REMARK  Name = ZINC02374877
REMARK  7 active torsions:
REMARK  status: ('A' for Active; 'I' for Inactive)
REMARK    1  A    between atoms: C_4  and  C_7
REMARK    2  A    between atoms: N_8  and  N_9
REMARK    3  A    between atoms: C_10  and  N_33
REMARK    4  A    between atoms: C_11  and  C_22
REMARK    5  A    between atoms: N_24  and  C_25
REMARK    6  A    between atoms: C_25  and  C_26
REMARK    7  A    between atoms: C_26  and  C_27
REMARK                            x       y       z     vdW  Elec       q    Type
REMARK                         _______ _______ _______ _____ _____    ______ ____
ROOT
ATOM      1  N   UNL     1      -4.285  -0.216  -0.710  0.00  0.00    -0.198 N 
ATOM      2  C   UNL     1      -3.162   0.456  -1.095  0.00  0.00    +0.134 A 
ATOM      3  C   UNL     1      -2.443   0.876   0.018  0.00  0.00    +0.105 A 
ATOM      4  C   UNL     1      -3.191   0.414   1.199  0.00  0.00    +0.124 A 
ATOM      5  C   UNL     1      -4.369  -0.277   0.668  0.00  0.00    +0.183 A 
ATOM      6  N   UNL     1      -5.242  -0.803   1.501  0.00  0.00    -0.224 NA
ATOM      7  C   UNL     1      -5.049  -0.699   2.822  0.00  0.00    +0.092 A 
ATOM      8  C   UNL     1      -5.976  -1.259   3.720  0.00  0.00    +0.030 A 
ATOM      9  C   UNL     1      -5.773  -1.147   5.061  0.00  0.00    +0.002 A 
ATOM     10  C   UNL     1      -4.655  -0.485   5.564  0.00  0.00    +0.002 A 
ATOM     11  C   UNL     1      -3.736   0.069   4.727  0.00  0.00    +0.030 A 
ATOM     12  C   UNL     1      -3.912  -0.025   3.334  0.00  0.00    +0.090 A 
ATOM     13  N   UNL     1      -3.014   0.517   2.501  0.00  0.00    -0.241 NA
ENDROOT
BRANCH   3  14
ATOM     14  C   UNL     1      -1.187   1.624   0.017  0.00  0.00    +0.250 C 
ATOM     15  O   UNL     1      -1.204   2.841   0.023  0.00  0.00    -0.270 OA
ATOM     16  N   UNL     1      -0.011   0.966   0.007  0.00  0.00    -0.311 N 
ATOM     17  H   UNL     1       0.002  -0.004   0.002  0.00  0.00    +0.149 HD
BRANCH  16  18
ATOM     18  C   UNL     1       1.248   1.716  -0.001  0.00  0.00    +0.109 C 
BRANCH  18  19
ATOM     19  C   UNL     1       2.424   0.737  -0.017  0.00  0.00    +0.049 C 
BRANCH  19  20
ATOM     20  C   UNL     1       3.719   1.508  -0.025  0.00  0.00    -0.072 C 
ATOM     21  C   UNL     1       4.302   1.727   1.109  0.00  0.00    -0.028 C 
ATOM     22  C   UNL     1       5.587   2.486   1.261  0.00  0.00    +0.027 C 
ATOM     23  C   UNL     1       6.305   2.582  -0.087  0.00  0.00    +0.004 C 
ATOM     24  C   UNL     1       5.300   3.069  -1.138  0.00  0.00    +0.005 C 
ATOM     25  C   UNL     1       4.254   1.970  -1.349  0.00  0.00    +0.030 C 
ENDBRANCH  19  20
ENDBRANCH  18  19
ENDBRANCH  16  18
ENDBRANCH   3  14
BRANCH   2  26
ATOM     26  N   UNL     1      -2.795   0.686  -2.396  0.00  0.00    -0.342 N 
ATOM     27  H   UNL     1      -1.980   1.173  -2.591  0.00  0.00    +0.144 HD
ATOM     28  H   UNL     1      -3.351   0.360  -3.122  0.00  0.00    +0.144 HD
ENDBRANCH   2  26
BRANCH   1  30
ATOM     29  C   UNL     1      -5.083  -1.990  -2.006  0.00  0.00    +0.141 C 
ATOM     30  N   UNL     1      -5.224  -0.768  -1.591  0.00  0.00    -0.171 NA
BRANCH  29  34
ATOM     31  C   UNL     1      -7.928  -3.665  -4.674  0.00  0.00    +0.000 A 
ATOM     32  C   UNL     1      -6.852  -4.424  -4.250  0.00  0.00    +0.001 A 
ATOM     33  C   UNL     1      -5.923  -3.886  -3.383  0.00  0.00    +0.009 A 
ATOM     34  C   UNL     1      -6.072  -2.571  -2.934  0.00  0.00    -0.005 A 
ATOM     35  C   UNL     1      -7.163  -1.813  -3.362  0.00  0.00    +0.009 A 
ATOM     36  C   UNL     1      -8.081  -2.362  -4.233  0.00  0.00    +0.001 A 
ENDBRANCH  29  34
ENDBRANCH   1  30
TORSDOF 7
