REMARK  Name = ZINC45841775
REMARK  13 active torsions:
REMARK  status: ('A' for Active; 'I' for Inactive)
REMARK    1  A    between atoms: C_1  and  C_2
REMARK    2  A    between atoms: C_8  and  N_10
REMARK    3  A    between atoms: C_11  and  C_13
REMARK    4  A    between atoms: C_13  and  N_14
REMARK    5  A    between atoms: N_14  and  C_15
REMARK    6  A    between atoms: N_14  and  C_20
REMARK    7  A    between atoms: C_15  and  C_16
REMARK    8  A    between atoms: C_16  and  C_17
REMARK    9  A    between atoms: C_17  and  O_18
REMARK   10  A    between atoms: O_18  and  C_19
REMARK   11  A    between atoms: C_21  and  N_36
REMARK   12  A    between atoms: N_22  and  C_29
REMARK   13  A    between atoms: C_29  and  C_30
REMARK                            x       y       z     vdW  Elec       q    Type
REMARK                         _______ _______ _______ _____ _____    ______ ____
ROOT
ATOM      1  C   UNL     1       1.132  -0.430   6.904  0.00  0.00    +0.134 A 
ATOM      2  C   UNL     1       0.012  -1.021   7.423  0.00  0.00    +0.127 A 
ATOM      3  N   UNL     1       0.141  -2.165   8.177  0.00  0.00    -0.276 N 
ATOM      4  C   UNL     1       1.356  -2.699   8.402  0.00  0.00    +0.331 A 
ATOM      5  O   UNL     1       1.451  -3.711   9.070  0.00  0.00    -0.246 OA
ATOM      6  N   UNL     1       2.467  -2.131   7.899  0.00  0.00    -0.273 N 
ATOM      7  H   UNL     1       3.333  -2.532   8.072  0.00  0.00    +0.173 HD
ATOM      8  C   UNL     1       2.388  -1.013   7.150  0.00  0.00    +0.277 A 
ATOM      9  O   UNL     1       3.399  -0.508   6.693  0.00  0.00    -0.266 OA
ENDROOT
BRANCH   2  10
ATOM     10  N   UNL     1      -1.231  -0.476   7.195  0.00  0.00    -0.343 N 
ATOM     11  H   UNL     1      -1.316   0.331   6.664  0.00  0.00    +0.144 HD
ATOM     12  H   UNL     1      -2.021  -0.899   7.565  0.00  0.00    +0.144 HD
ENDBRANCH   2  10
BRANCH   1  13
ATOM     13  N   UNL     1       1.027   0.746   6.126  0.00  0.00    -0.314 N 
BRANCH  13  14
ATOM     14  C   UNL     1       0.333   0.712   4.836  0.00  0.00    +0.201 C 
BRANCH  14  16
ATOM     15  N   UNL     1       0.925   0.439   2.450  0.00  0.00    -0.311 N 
ATOM     16  C   UNL     1       1.337   0.504   3.731  0.00  0.00    +0.231 C 
ATOM     17  O   UNL     1       2.516   0.396   3.995  0.00  0.00    -0.274 OA
ATOM     18  H   UNL     1      -0.018   0.526   2.238  0.00  0.00    +0.149 HD
BRANCH  15  25
ATOM     19  C   UNL     1       1.069   2.298   0.233  0.00  0.00    +0.009 C 
ATOM     20  C   UNL     1       1.343   0.802   0.067  0.00  0.00    +0.006 C 
ATOM     21  C   UNL     1       0.040   0.081  -0.285  0.00  0.00    +0.005 C 
ATOM     22  C   UNL     1       0.314  -1.415  -0.451  0.00  0.00    +0.000 C 
ATOM     23  C   UNL     1       0.871  -1.980   0.857  0.00  0.00    +0.002 C 
ATOM     24  C   UNL     1       2.174  -1.259   1.210  0.00  0.00    +0.022 C 
ATOM     25  C   UNL     1       1.900   0.237   1.375  0.00  0.00    +0.076 C 
ENDBRANCH  15  25
ENDBRANCH  14  16
ENDBRANCH  13  14
BRANCH  13  26
ATOM     26  C   UNL     1       1.612   1.999   6.610  0.00  0.00    +0.108 C 
BRANCH  26  27
ATOM     27  C   UNL     1       0.603   2.722   7.504  0.00  0.00    +0.047 C 
BRANCH  27  28
ATOM     28  C   UNL     1       1.214   4.030   8.009  0.00  0.00    +0.161 C 
BRANCH  28  29
ATOM     29  O   UNL     1       0.271   4.705   8.845  0.00  0.00    -0.383 OA
ATOM     30  C   UNL     1       0.745   5.945   9.372  0.00  0.00    +0.193 C 
ENDBRANCH  28  29
ENDBRANCH  27  28
ENDBRANCH  26  27
ENDBRANCH  13  26
ENDBRANCH   1  13
BRANCH   3  31
ATOM     31  C   UNL     1      -1.051  -2.806   8.739  0.00  0.00    +0.163 C 
BRANCH  31  32
ATOM     32  C   UNL     1      -1.589  -3.814   7.757  0.00  0.00    -0.028 A 
ATOM     33  C   UNL     1      -2.519  -3.428   6.810  0.00  0.00    +0.005 A 
ATOM     34  C   UNL     1      -3.013  -4.353   5.909  0.00  0.00    +0.000 A 
ATOM     35  C   UNL     1      -2.576  -5.663   5.955  0.00  0.00    +0.000 A 
ATOM     36  C   UNL     1      -1.646  -6.049   6.901  0.00  0.00    +0.000 A 
ATOM     37  C   UNL     1      -1.149  -5.124   7.799  0.00  0.00    +0.005 A 
ENDBRANCH  31  32
ENDBRANCH   3  31
TORSDOF 11
