REMARK  Name = ZINC65794053
REMARK  10 active torsions:
REMARK  status: ('A' for Active; 'I' for Inactive)
REMARK    1  A    between atoms: C_1  and  C_2
REMARK    2  A    between atoms: C_3  and  C_9
REMARK    3  A    between atoms: C_4  and  C_8
REMARK    4  A    between atoms: N_5  and  C_7
REMARK    5  A    between atoms: C_9  and  C_10
REMARK    6  A    between atoms: C_9  and  N_11
REMARK    7  A    between atoms: N_11  and  S_12
REMARK    8  A    between atoms: S_12  and  C_15
REMARK    9  A    between atoms: C_17  and  C_21
REMARK   10  A    between atoms: N_18  and  C_20
REMARK                            x       y       z     vdW  Elec       q    Type
REMARK                         _______ _______ _______ _____ _____    ______ ____
ROOT
ATOM      1  S   UNL     1       1.774   0.573  -4.249  0.00  0.00    +0.060 S 
ATOM      2  O   UNL     1       2.700   1.631  -4.050  0.00  0.00    -0.153 OA
ATOM      3  O   UNL     1       2.179  -0.730  -4.647  0.00  0.00    -0.153 OA
ENDROOT
BRANCH   1   4
ATOM      4  C   UNL     1       0.621   1.133  -5.458  0.00  0.00    +0.123 A 
ATOM      5  C   UNL     1      -0.159   0.323  -6.290  0.00  0.00    +0.061 A 
ATOM      6  C   UNL     1      -0.916   1.162  -7.079  0.00  0.00    +0.106 A 
ATOM      7  N   UNL     1      -0.600   2.456  -6.730  0.00  0.00    -0.344 N 
ATOM      8  C   UNL     1       0.329   2.424  -5.743  0.00  0.00    +0.114 A 
ATOM      9  C   UNL     1      -1.175   3.666  -7.323  0.00  0.00    +0.149 C 
BRANCH   6  10
ATOM     10  C   UNL     1      -1.882   0.752  -8.104  0.00  0.00    +0.258 C 
ATOM     11  O   UNL     1      -2.567   1.588  -8.663  0.00  0.00    -0.269 OA
ATOM     12  N   UNL     1      -2.010  -0.550  -8.425  0.00  0.00    -0.324 N 
ATOM     13  H   UNL     1      -1.518  -1.223  -7.929  0.00  0.00    +0.145 HD
ATOM     14  H   UNL     1      -2.595  -0.815  -9.153  0.00  0.00    +0.145 HD
ENDBRANCH   6  10
ENDBRANCH   1   4
BRANCH   1  15
ATOM     15  N   UNL     1       0.944   0.396  -2.827  0.00  0.00    -0.183 NA
ATOM     16  H   UNL     1       1.159   0.960  -2.067  0.00  0.00    +0.149 HD
BRANCH  15  17
ATOM     17  C   UNL     1      -0.114  -0.611  -2.716  0.00  0.00    +0.107 C 
ATOM     18  C   UNL     1      -1.469   0.039  -3.002  0.00  0.00    +0.031 C 
BRANCH  17  21
ATOM     19  C   UNL     1       0.104   1.040  -0.020  0.00  0.00    +0.068 C 
ATOM     20  C   UNL     1      -0.021  -0.458  -0.132  0.00  0.00    +0.065 A 
ATOM     21  C   UNL     1      -0.116  -1.186  -1.323  0.00  0.00    +0.014 A 
ATOM     22  C   UNL     1      -0.212  -2.497  -1.002  0.00  0.00    +0.041 A 
ATOM     23  N   UNL     1      -0.178  -2.595   0.343  0.00  0.00    -0.271 N 
ATOM     24  N   UNL     1      -0.052  -1.302   0.867  0.00  0.00    -0.176 NA
ATOM     25  C   UNL     1      -0.254  -3.836   1.119  0.00  0.00    +0.172 C 
ATOM     26  C   UNL     1      -0.335  -3.642  -1.974  0.00  0.00    +0.065 C 
ENDBRANCH  17  21
ENDBRANCH  15  17
ENDBRANCH   1  15
TORSDOF 5
