REMARK  Name = ZINC13450572
REMARK  10 active torsions:
REMARK  status: ('A' for Active; 'I' for Inactive)
REMARK    1  A    between atoms: C_1  and  C_2
REMARK    2  A    between atoms: C_3  and  C_25
REMARK    3  A    between atoms: C_8  and  S_10
REMARK    4  A    between atoms: S_10  and  C_11
REMARK    5  A    between atoms: C_11  and  C_12
REMARK    6  A    between atoms: N_14  and  C_15
REMARK    7  A    between atoms: C_20  and  S_21
REMARK    8  A    between atoms: S_21  and  C_24
REMARK    9  A    between atoms: C_25  and  C_26
REMARK   10  A    between atoms: C_26  and  C_27
REMARK                            x       y       z     vdW  Elec       q    Type
REMARK                         _______ _______ _______ _____ _____    ______ ____
ROOT
ATOM      1  S   UNL     1       1.557  -6.463  -0.127  0.00  0.00    -0.078 S 
ENDROOT
BRANCH   1   9
ATOM      2  C   UNL     1       1.718  -1.935  -2.499  0.00  0.00    +0.066 C 
ATOM      3  C   UNL     1       1.620  -2.686  -1.196  0.00  0.00    +0.049 A 
ATOM      4  C   UNL     1       1.524  -2.000  -0.020  0.00  0.00    +0.038 A 
ATOM      5  C   UNL     1       1.440  -2.722   1.183  0.00  0.00    +0.256 A 
ATOM      6  O   UNL     1       1.358  -2.140   2.253  0.00  0.00    -0.267 OA
ATOM      7  N   UNL     1       1.445  -4.071   1.133  0.00  0.00    -0.302 N 
ATOM      8  H   UNL     1       1.384  -4.589   1.950  0.00  0.00    +0.171 HD
ATOM      9  C   UNL     1       1.543  -4.702  -0.070  0.00  0.00    +0.170 A 
ATOM     10  N   UNL     1       1.627  -4.017  -1.195  0.00  0.00    -0.228 NA
BRANCH   4  11
ATOM     11  C   UNL     1       1.516  -0.493  -0.011  0.00  0.00    +0.053 C 
BRANCH  11  12
ATOM     12  C   UNL     1       0.070   0.009   0.005  0.00  0.00    +0.130 C 
BRANCH  12  13
ATOM     13  C   UNL     1       0.062   1.516   0.014  0.00  0.00    +0.356 C 
ATOM     14  O   UNL     1       1.105   2.126   0.008  0.00  0.00    -0.246 OA
ATOM     15  O   UNL     1      -1.104   2.180   0.023  0.00  0.00    -0.246 OA
ENDBRANCH  12  13
ENDBRANCH  11  12
ENDBRANCH   4  11
ENDBRANCH   1   9
BRANCH   1  16
ATOM     16  C   UNL     1       1.698  -6.719  -1.913  0.00  0.00    +0.173 C 
BRANCH  16  17
ATOM     17  C   UNL     1       1.730  -8.197  -2.207  0.00  0.00    +0.228 C 
ATOM     18  O   UNL     1       1.663  -8.998  -1.299  0.00  0.00    -0.275 OA
ATOM     19  N   UNL     1       1.832  -8.629  -3.480  0.00  0.00    -0.283 N 
ATOM     20  H   UNL     1       1.804  -7.992  -4.211  0.00  0.00    +0.155 HD
BRANCH  19  21
ATOM     21  C   UNL     1       1.977  -9.995  -3.746  0.00  0.00    +0.058 A 
ATOM     22  C   UNL     1       2.522 -10.837  -2.785  0.00  0.00    +0.025 A 
ATOM     23  C   UNL     1       2.660 -12.185  -3.049  0.00  0.00    +0.002 A 
ATOM     24  C   UNL     1       2.265 -12.696  -4.272  0.00  0.00    +0.002 A 
ATOM     25  C   UNL     1       1.728 -11.859  -5.233  0.00  0.00    +0.029 A 
ATOM     26  C   UNL     1       1.583 -10.510  -4.973  0.00  0.00    +0.109 A 
BRANCH  26  27
ATOM     27  S   UNL     1       0.899  -9.445  -6.199  0.00  0.00    -0.004 S 
ATOM     28  O   UNL     1       1.825  -8.373  -6.306  0.00  0.00    -0.170 OA
ATOM     29  O   UNL     1       0.638 -10.291  -7.310  0.00  0.00    -0.170 OA
ATOM     30  C   UNL     1      -0.660  -8.854  -5.484  0.00  0.00    +0.200 C 
ENDBRANCH  26  27
ENDBRANCH  19  21
ENDBRANCH  16  17
ENDBRANCH   1  16
TORSDOF 8
