REMARK  Name = ZINC12367458
REMARK  6 active torsions:
REMARK  status: ('A' for Active; 'I' for Inactive)
REMARK    1  A    between atoms: C_5  and  O_24
REMARK    2  A    between atoms: C_6  and  C_7
REMARK    3  A    between atoms: N_8  and  N_9
REMARK    4  A    between atoms: N_12  and  N_13
REMARK    5  A    between atoms: C_14  and  C_15
REMARK    6  A    between atoms: C_20  and  O_21
REMARK                            x       y       z     vdW  Elec       q    Type
REMARK                         _______ _______ _______ _____ _____    ______ ____
ROOT
ATOM      1  N   UNL     1      -1.031   3.002   0.774  0.00  0.00    -0.189 N 
ATOM      2  C   UNL     1      -2.164   3.646   1.117  0.00  0.00    +0.339 C 
ATOM      3  O   UNL     1      -2.127   4.823   1.418  0.00  0.00    -0.249 OA
ATOM      4  N   UNL     1      -3.338   2.984   1.127  0.00  0.00    -0.189 N 
ATOM      5  H   UNL     1      -0.186   3.478   0.767  0.00  0.00    +0.179 HD
ATOM      6  H   UNL     1      -4.154   3.447   1.373  0.00  0.00    +0.179 HD
ENDROOT
BRANCH   1   8
ATOM      7  C   UNL     1      -0.005   1.054  -0.014  0.00  0.00    +0.142 C 
ATOM      8  N   UNL     1      -1.073   1.645   0.427  0.00  0.00    -0.186 NA
BRANCH   7  14
ATOM      9  C   UNL     1       1.043   3.181  -0.768  0.00  0.00    +0.033 A 
ATOM     10  C   UNL     1       2.160   3.921  -1.101  0.00  0.00    +0.043 A 
ATOM     11  C   UNL     1       3.420   3.348  -1.041  0.00  0.00    +0.043 A 
ATOM     12  C   UNL     1       3.571   2.030  -0.649  0.00  0.00    +0.084 A 
ATOM     13  C   UNL     1       2.460   1.276  -0.306  0.00  0.00    +0.144 A 
ATOM     14  C   UNL     1       1.183   1.850  -0.370  0.00  0.00    +0.039 A 
ATOM     15 CL   UNL     1       5.154   1.323  -0.578  0.00  0.00    -0.080 Cl
ATOM     16 CL   UNL     1       1.986   5.576  -1.595  0.00  0.00    -0.083 Cl
BRANCH  13  17
ATOM     17  O   UNL     1       2.608  -0.017   0.085  0.00  0.00    -0.505 OA
ATOM     18  H   UNL     1       2.651  -0.647  -0.647  0.00  0.00    +0.292 HD
ENDBRANCH  13  17
ENDBRANCH   7  14
ENDBRANCH   1   8
BRANCH   4  19
ATOM     19  N   UNL     1      -3.381   1.627   0.780  0.00  0.00    -0.186 NA
ATOM     20  C   UNL     1      -4.512   0.990   0.789  0.00  0.00    +0.142 C 
BRANCH  20  21
ATOM     21  C   UNL     1      -4.556  -0.437   0.424  0.00  0.00    +0.039 A 
ATOM     22  C   UNL     1      -5.772  -1.126   0.433  0.00  0.00    +0.033 A 
ATOM     23  C   UNL     1      -5.807  -2.462   0.090  0.00  0.00    +0.043 A 
ATOM     24  C   UNL     1      -4.642  -3.124  -0.263  0.00  0.00    +0.043 A 
ATOM     25  C   UNL     1      -3.433  -2.452  -0.276  0.00  0.00    +0.084 A 
ATOM     26  C   UNL     1      -3.382  -1.108   0.061  0.00  0.00    +0.144 A 
ATOM     27 CL   UNL     1      -1.980  -3.291  -0.720  0.00  0.00    -0.080 Cl
ATOM     28 CL   UNL     1      -7.318  -3.318   0.102  0.00  0.00    -0.083 Cl
BRANCH  26  29
ATOM     29  O   UNL     1      -2.196  -0.446   0.044  0.00  0.00    -0.505 OA
ATOM     30  H   UNL     1      -1.717  -0.474   0.884  0.00  0.00    +0.292 HD
ENDBRANCH  26  29
ENDBRANCH  20  21
ENDBRANCH   4  19
TORSDOF 6
