REMARK  Name = ZINC04526003
REMARK  7 active torsions:
REMARK  status: ('A' for Active; 'I' for Inactive)
REMARK    1  A    between atoms: C_1  and  O_2
REMARK    2  A    between atoms: O_2  and  C_3
REMARK    3  A    between atoms: N_5  and  N_6
REMARK    4  A    between atoms: C_7  and  C_8
REMARK    5  A    between atoms: C_13  and  O_14
REMARK    6  A    between atoms: O_14  and  C_15
REMARK    7  A    between atoms: C_15  and  C_16
REMARK                            x       y       z     vdW  Elec       q    Type
REMARK                         _______ _______ _______ _____ _____    ______ ____
ROOT
ATOM      1  C   UNL     1      -0.068   1.391  -0.002  0.00  0.00    +0.039 A 
ATOM      2  C   UNL     1      -0.050  -0.006   0.001  0.00  0.00    +0.033 A 
ATOM      3  C   UNL     1       1.155  -0.678  -0.033  0.00  0.00    +0.043 A 
ATOM      4  C   UNL     1       2.347   0.027  -0.071  0.00  0.00    +0.043 A 
ATOM      5  C   UNL     1       2.341   1.410  -0.074  0.00  0.00    +0.085 A 
ATOM      6  C   UNL     1       1.140   2.100  -0.040  0.00  0.00    +0.148 A 
ATOM      7 CL   UNL     1       3.841   2.283  -0.122  0.00  0.00    -0.080 Cl
ATOM      8 CL   UNL     1       1.177  -2.414  -0.029  0.00  0.00    -0.083 Cl
ENDROOT
BRANCH   1  10
ATOM      9  N   UNL     1      -2.469   1.459  -0.042  0.00  0.00    -0.185 NA
ATOM     10  C   UNL     1      -1.351   2.115   0.029  0.00  0.00    +0.142 C 
BRANCH   9  13
ATOM     11  C   UNL     1      -4.849   1.474  -0.091  0.00  0.00    +0.420 C 
ATOM     12  O   UNL     1      -5.899   2.063  -0.251  0.00  0.00    -0.225 OA
ATOM     13  N   UNL     1      -3.684   2.151  -0.119  0.00  0.00    -0.172 N 
ATOM     14  H   UNL     1      -3.688   3.119  -0.193  0.00  0.00    +0.181 HD
BRANCH  11  16
ATOM     15  C   UNL     1      -6.126  -0.540   0.015  0.00  0.00    +0.282 C 
ATOM     16  O   UNL     1      -4.848   0.143   0.115  0.00  0.00    -0.453 OA
ENDBRANCH  11  16
ENDBRANCH   9  13
ENDBRANCH   1  10
BRANCH   6  17
ATOM     17  O   UNL     1       1.133   3.459  -0.044  0.00  0.00    -0.485 OA
BRANCH  17  18
ATOM     18  C   UNL     1       1.258   4.112   1.221  0.00  0.00    +0.264 C 
BRANCH  18  19
ATOM     19  C   UNL     1       1.112   5.600   1.035  0.00  0.00    -0.010 A 
ATOM     20  C   UNL     1       2.236   6.392   0.889  0.00  0.00    +0.008 A 
ATOM     21  C   UNL     1       2.102   7.756   0.712  0.00  0.00    +0.020 A 
ATOM     22  C   UNL     1       0.844   8.331   0.693  0.00  0.00    +0.041 A 
ATOM     23  C   UNL     1      -0.281   7.538   0.845  0.00  0.00    +0.020 A 
ATOM     24  C   UNL     1      -0.146   6.173   1.016  0.00  0.00    +0.008 A 
ATOM     25 CL   UNL     1       0.675  10.045   0.478  0.00  0.00    -0.084 Cl
ENDBRANCH  18  19
ENDBRANCH  17  18
ENDBRANCH   6  17
TORSDOF 6
