REMARK  Name = ZINC20613522
REMARK  6 active torsions:
REMARK  status: ('A' for Active; 'I' for Inactive)
REMARK    1  A    between atoms: C_1  and  C_2
REMARK    2  A    between atoms: C_2  and  C_3
REMARK    3  A    between atoms: C_2  and  C_4
REMARK    4  A    between atoms: C_2  and  N_5
REMARK    5  A    between atoms: C_6  and  C_8
REMARK    6  A    between atoms: N_13  and  C_15
REMARK                            x       y       z     vdW  Elec       q    Type
REMARK                         _______ _______ _______ _____ _____    ______ ____
ROOT
ATOM      1  C   UNL     1      -0.770   3.454   0.456  0.00  0.00    +0.101 C 
ATOM      2  C   UNL     1      -1.266   2.058   0.009  0.00  0.00    +0.110 C 
ATOM      3  C   UNL     1      -0.014   1.209  -0.007  0.00  0.00    +0.221 C 
ATOM      4  O   UNL     1       0.002  -0.004  -0.029  0.00  0.00    -0.275 OA
ATOM      5  N   UNL     1       1.077   1.994   0.003  0.00  0.00    -0.271 N 
ATOM      6  C   UNL     1       0.711   3.415   0.020  0.00  0.00    +0.127 C 
ENDROOT
BRANCH   5   7
ATOM      7  C   UNL     1       2.393   1.516  -0.003  0.00  0.00    +0.038 A 
ATOM      8  C   UNL     1       3.455   2.405  -0.114  0.00  0.00    +0.026 A 
ATOM      9  C   UNL     1       4.753   1.933  -0.119  0.00  0.00    +0.041 A 
ATOM     10  C   UNL     1       4.997   0.574  -0.013  0.00  0.00    +0.142 A 
ATOM     11  C   UNL     1       3.939  -0.315   0.098  0.00  0.00    +0.078 A 
ATOM     12  C   UNL     1       2.639   0.154   0.108  0.00  0.00    +0.046 A 
ATOM     13 CL   UNL     1       4.248  -2.018   0.230  0.00  0.00    -0.081 Cl
ATOM     14  F   UNL     1       6.267   0.115  -0.018  0.00  0.00    -0.204 F 
ENDBRANCH   5   7
BRANCH   1  16
ATOM     15  N   UNL     1      -2.827   4.742  -0.022  0.00  0.00    -0.310 N 
ATOM     16  C   UNL     1      -1.516   4.546  -0.266  0.00  0.00    +0.218 C 
ATOM     17  O   UNL     1      -0.937   5.248  -1.068  0.00  0.00    -0.275 OA
ATOM     18  H   UNL     1      -3.352   4.105   0.706  0.00  0.00    +0.149 HD
BRANCH  15  20
ATOM     19  C   UNL     1      -3.492   5.551  -2.232  0.00  0.00    +0.031 C 
ATOM     20  C   UNL     1      -3.553   5.803  -0.724  0.00  0.00    +0.026 C 
ATOM     21  C   UNL     1      -5.013   5.811  -0.267  0.00  0.00    +0.031 C 
ATOM     22  C   UNL     1      -2.911   7.155  -0.407  0.00  0.00    +0.031 C 
ENDBRANCH  15  20
ENDBRANCH   1  16
TORSDOF 3
