REMARK  Name = ZINC35507256
REMARK  6 active torsions:
REMARK  status: ('A' for Active; 'I' for Inactive)
REMARK    1  A    between atoms: C_1  and  C_2
REMARK    2  A    between atoms: C_2  and  O_3
REMARK    3  A    between atoms: O_3  and  C_4
REMARK    4  A    between atoms: C_4  and  C_6
REMARK    5  A    between atoms: C_10  and  C_15
REMARK    6  A    between atoms: N_16  and  C_17
REMARK                            x       y       z     vdW  Elec       q    Type
REMARK                         _______ _______ _______ _____ _____    ______ ____
ROOT
ATOM      1  C   UNL     1       1.504  -2.375   2.486  0.00  0.00    +0.243 A 
ATOM      2  N   UNL     1       1.607  -3.694   2.596  0.00  0.00    -0.206 NA
ATOM      3  C   UNL     1       2.217  -4.247   3.639  0.00  0.00    +0.140 A 
ATOM      4  C   UNL     1       2.754  -3.400   4.626  0.00  0.00    +0.103 A 
ATOM      5  C   UNL     1       3.474  -3.609   5.878  0.00  0.00    +0.093 A 
ATOM      6  N   UNL     1       3.725  -2.438   6.381  0.00  0.00    -0.080 NA
ATOM      7  O   UNL     1       3.210  -1.433   5.529  0.00  0.00    -0.334 OA
ATOM      8  C   UNL     1       2.621  -2.008   4.466  0.00  0.00    +0.264 A 
ATOM      9  N   UNL     1       2.000  -1.545   3.389  0.00  0.00    -0.184 NA
ATOM     10  C   UNL     1       3.854  -4.938   6.479  0.00  0.00    +0.070 C 
ATOM     11  N   UNL     1       2.321  -5.620   3.751  0.00  0.00    -0.296 N 
ATOM     12  H   UNL     1       2.843  -6.010   4.469  0.00  0.00    +0.154 HD
ENDROOT
BRANCH  11  13
ATOM     13  C   UNL     1       1.673  -6.449   2.827  0.00  0.00    +0.068 A 
ATOM     14  C   UNL     1       0.558  -5.988   2.142  0.00  0.00    +0.027 A 
ATOM     15  C   UNL     1      -0.080  -6.808   1.231  0.00  0.00    +0.017 A 
ATOM     16  C   UNL     1       0.392  -8.088   1.001  0.00  0.00    +0.021 A 
ATOM     17  C   UNL     1       1.503  -8.552   1.681  0.00  0.00    +0.055 A 
ATOM     18  C   UNL     1       2.150  -7.734   2.590  0.00  0.00    +0.145 A 
ATOM     19  F   UNL     1       3.239  -8.184   3.251  0.00  0.00    -0.204 F 
ATOM     20 BR   UNL     1      -0.485  -9.206  -0.247  0.00  0.00    -0.050 Br
ENDBRANCH  11  13
BRANCH   1  21
ATOM     21  C   UNL     1       0.812  -1.810   1.300  0.00  0.00    +0.377 C 
ATOM     22  O   UNL     1       0.348  -2.550   0.458  0.00  0.00    -0.241 OA
BRANCH  21  23
ATOM     23  O   UNL     1       0.698  -0.476   1.160  0.00  0.00    -0.459 OA
BRANCH  23  25
ATOM     24  C   UNL     1      -0.010   1.528   0.010  0.00  0.00    +0.048 C 
ATOM     25  C   UNL     1       0.020  -0.001  -0.005  0.00  0.00    +0.229 C 
ENDBRANCH  23  25
ENDBRANCH  21  23
ENDBRANCH   1  21
TORSDOF 4
