REMARK  Name = ZINC48421995
REMARK  8 active torsions:
REMARK  status: ('A' for Active; 'I' for Inactive)
REMARK    1  A    between atoms: C_1  and  C_2
REMARK    2  A    between atoms: C_5  and  N_8
REMARK    3  A    between atoms: N_8  and  C_9
REMARK    4  A    between atoms: C_9  and  C_10
REMARK    5  A    between atoms: N_15  and  C_16
REMARK    6  A    between atoms: C_16  and  C_17
REMARK    7  A    between atoms: C_16  and  C_18
REMARK    8  A    between atoms: C_16  and  C_19
REMARK                            x       y       z     vdW  Elec       q    Type
REMARK                         _______ _______ _______ _____ _____    ______ ____
ROOT
ATOM      1  C   UNL     1       0.092  -6.387   0.960  0.00  0.00    +0.237 C 
ATOM      2  O   UNL     1       0.092  -6.785  -0.185  0.00  0.00    -0.274 OA
ATOM      3  N   UNL     1       0.109  -7.268   1.980  0.00  0.00    -0.239 N 
ATOM      4  C   UNL     1       0.125  -8.592   1.726  0.00  0.00    +0.306 C 
ATOM      5  O   UNL     1       0.125  -8.990   0.578  0.00  0.00    -0.252 OA
ATOM      6  N   UNL     1       0.142  -9.473   2.746  0.00  0.00    -0.294 N 
ATOM      7  H   UNL     1       0.109  -6.950   2.896  0.00  0.00    +0.159 HD
ATOM      8  H   UNL     1       0.142  -9.155   3.662  0.00  0.00    +0.151 HD
ENDROOT
BRANCH   6   9
ATOM      9  C   UNL     1       0.160 -10.912   2.470  0.00  0.00    +0.028 C 
ATOM     10  C   UNL     1       1.410 -11.260   1.660  0.00  0.00    +0.031 C 
ATOM     11  C   UNL     1       0.176 -11.684   3.791  0.00  0.00    +0.031 C 
ATOM     12  C   UNL     1      -1.089 -11.293   1.672  0.00  0.00    +0.031 C 
ENDBRANCH   6   9
BRANCH   1  13
ATOM     13  C   UNL     1       0.074  -4.907   1.244  0.00  0.00    +0.198 C 
BRANCH  13  14
ATOM     14  N   UNL     1       0.058  -4.167  -0.021  0.00  0.00    -0.335 N 
ATOM     15  H   UNL     1       0.060  -4.648  -0.864  0.00  0.00    +0.147 HD
BRANCH  14  20
ATOM     16  C   UNL     1      -0.018   1.503   0.010  0.00  0.00    +0.044 C 
ATOM     17  C   UNL     1       0.002  -0.004   0.002  0.00  0.00    -0.050 A 
ATOM     18  C   UNL     1       0.006  -0.687  -1.200  0.00  0.00    +0.005 A 
ATOM     19  C   UNL     1       0.024  -2.068  -1.212  0.00  0.00    +0.023 A 
ATOM     20  C   UNL     1       0.040  -2.771  -0.013  0.00  0.00    +0.028 A 
ATOM     21  C   UNL     1       0.036  -2.081   1.193  0.00  0.00    +0.023 A 
ATOM     22  C   UNL     1       0.023  -0.700   1.197  0.00  0.00    +0.005 A 
ENDBRANCH  14  20
ENDBRANCH  13  14
ENDBRANCH   1  13
TORSDOF 4
