REMARK  Name = ZINC20733080
REMARK  2 active torsions:
REMARK  status: ('A' for Active; 'I' for Inactive)
REMARK    1  A    between atoms: C_1  and  C_2
REMARK    2  A    between atoms: C_18  and  C_20
REMARK                            x       y       z     vdW  Elec       q    Type
REMARK                         _______ _______ _______ _____ _____    ______ ____
ROOT
ATOM      1  C   UNL     1       0.466   1.296   0.043  0.00  0.00    +0.068 C 
ATOM      2  C   UNL     1       0.447  -0.205  -0.083  0.00  0.00    +0.067 A 
ATOM      3  C   UNL     1       0.116  -0.927  -1.250  0.00  0.00    +0.033 A 
ATOM      4  C   UNL     1       0.213  -2.243  -0.963  0.00  0.00    +0.137 A 
ATOM      5  N   UNL     1       0.600  -2.340   0.358  0.00  0.00    -0.183 N 
ATOM      6  N   UNL     1       0.738  -1.048   0.866  0.00  0.00    -0.167 NA
ATOM      7  C   UNL     1       0.821  -3.523   1.061  0.00  0.00    +0.253 A 
ATOM      8  N   UNL     1       1.064  -3.466   2.360  0.00  0.00    -0.219 NA
ATOM      9  C   UNL     1       1.278  -4.569   3.058  0.00  0.00    +0.116 A 
ATOM     10  C   UNL     1       1.245  -5.795   2.411  0.00  0.00    +0.039 A 
ATOM     11  C   UNL     1       0.987  -5.817   1.049  0.00  0.00    +0.116 A 
ATOM     12  N   UNL     1       0.777  -4.676   0.413  0.00  0.00    -0.219 NA
ATOM     13  N   UNL     1      -0.002  -3.366  -1.723  0.00  0.00    -0.269 N 
ATOM     14  C   UNL     1      -0.316  -3.588  -2.964  0.00  0.00    +0.228 C 
ATOM     15  O   UNL     1      -0.313  -4.757  -3.290  0.00  0.00    -0.275 OA
ATOM     16  C   UNL     1      -0.676  -2.643  -4.042  0.00  0.00    +0.166 C 
ATOM     17  S   UNL     1       0.283  -1.123  -3.992  0.00  0.00    -0.138 S 
ATOM     18  C   UNL     1      -0.261  -0.242  -2.526  0.00  0.00    +0.117 C 
ATOM     19  H   UNL     1       0.106  -4.186  -1.215  0.00  0.00    +0.156 HD
ENDROOT
BRANCH  18  20
ATOM     20  C   UNL     1       0.351   1.135  -2.534  0.00  0.00    +0.040 A 
ATOM     21  C   UNL     1       1.723   1.282  -2.648  0.00  0.00    +0.131 A 
ATOM     22  C   UNL     1       2.284   2.548  -2.656  0.00  0.00    +0.039 A 
ATOM     23  C   UNL     1       1.476   3.664  -2.549  0.00  0.00    +0.006 A 
ATOM     24  C   UNL     1       0.106   3.518  -2.435  0.00  0.00    +0.039 A 
ATOM     25  C   UNL     1      -0.458   2.253  -2.434  0.00  0.00    +0.131 A 
ATOM     26  F   UNL     1      -1.797   2.111  -2.328  0.00  0.00    -0.205 F 
ATOM     27  F   UNL     1       2.514   0.192  -2.752  0.00  0.00    -0.205 F 
ENDBRANCH  18  20
TORSDOF 1
