REMARK  Name = ZINC15082605
REMARK  6 active torsions:
REMARK  status: ('A' for Active; 'I' for Inactive)
REMARK    1  A    between atoms: C_1  and  C_2
REMARK    2  A    between atoms: C_4  and  C_11
REMARK    3  A    between atoms: C_8  and  C_9
REMARK    4  A    between atoms: C_9  and  O_10
REMARK    5  A    between atoms: C_15  and  O_17
REMARK    6  A    between atoms: O_17  and  C_18
REMARK                            x       y       z     vdW  Elec       q    Type
REMARK                         _______ _______ _______ _____ _____    ______ ____
ROOT
ATOM      1  C   UNL     1      -1.284   2.391  -4.727  0.00  0.00    +0.003 A 
ATOM      2  C   UNL     1      -1.447   1.719  -5.924  0.00  0.00    +0.057 A 
ATOM      3  C   UNL     1      -1.132   2.342  -7.121  0.00  0.00    +0.170 A 
ATOM      4  C   UNL     1      -0.651   3.648  -7.116  0.00  0.00    +0.208 A 
ATOM      5  C   UNL     1      -0.489   4.320  -5.911  0.00  0.00    +0.166 A 
ATOM      6  C   UNL     1      -0.812   3.690  -4.718  0.00  0.00    +0.057 A 
ATOM      7  O   UNL     1      -0.417   4.032  -8.406  0.00  0.00    -0.449 OA
ATOM      8  C   UNL     1      -1.144   3.096  -9.223  0.00  0.00    +0.467 C 
ATOM      9  O   UNL     1      -1.200   1.907  -8.413  0.00  0.00    -0.452 OA
ENDROOT
BRANCH   1  12
ATOM     10  C   UNL     1      -0.015  -0.161  -2.861  0.00  0.00    +0.018 C 
ATOM     11  C   UNL     1      -0.345   1.319  -2.653  0.00  0.00    +0.084 C 
ATOM     12  C   UNL     1      -1.629   1.708  -3.428  0.00  0.00    +0.243 C 
ATOM     13  O   UNL     1      -2.251   2.630  -2.509  0.00  0.00    -0.385 OA
ATOM     14  N   UNL     1      -1.793   2.308  -1.210  0.00  0.00    -0.091 NA
ATOM     15  C   UNL     1      -0.742   1.585  -1.213  0.00  0.00    +0.090 C 
BRANCH  15  16
ATOM     16  C   UNL     1      -0.013   1.086   0.008  0.00  0.00    +0.210 C 
BRANCH  16  17
ATOM     17  O   UNL     1      -0.682   1.547   1.184  0.00  0.00    -0.389 OA
ATOM     18  H   UNL     1      -0.266   1.262   2.009  0.00  0.00    +0.210 HD
ENDBRANCH  16  17
ENDBRANCH  15  16
ENDBRANCH   1  12
BRANCH   5  19
ATOM     19  O   UNL     1      -0.018   5.596  -5.901  0.00  0.00    -0.491 OA
ATOM     20  C   UNL     1       0.123   6.225  -4.626  0.00  0.00    +0.277 C 
ENDBRANCH   5  19
TORSDOF 4
