REMARK  Name = ZINC39982702
REMARK  7 active torsions:
REMARK  status: ('A' for Active; 'I' for Inactive)
REMARK    1  A    between atoms: C_1  and  C_2
REMARK    2  A    between atoms: C_2  and  C_4
REMARK    3  A    between atoms: C_2  and  S_19
REMARK    4  A    between atoms: C_16  and  C_17
REMARK    5  A    between atoms: C_16  and  C_18
REMARK    6  A    between atoms: S_19  and  C_20
REMARK    7  A    between atoms: C_24  and  C_26
REMARK                            x       y       z     vdW  Elec       q    Type
REMARK                         _______ _______ _______ _____ _____    ______ ____
ROOT
ATOM      1  C   UNL     1      -0.336   1.465   0.117  0.00  0.00    +0.029 C 
ATOM      2  C   UNL     1      -0.703  -0.009   0.306  0.00  0.00    +0.135 C 
ENDROOT
BRANCH   2   3
ATOM      3  C   UNL     1      -0.019  -0.836  -0.752  0.00  0.00    +0.234 C 
ATOM      4  O   UNL     1       0.804  -1.668  -0.433  0.00  0.00    -0.274 OA
ATOM      5  N   UNL     1      -0.322  -0.652  -2.052  0.00  0.00    -0.255 N 
ATOM      6  C   UNL     1       0.429  -1.269  -3.065  0.00  0.00    +0.059 A 
ATOM      7  C   UNL     1       1.768  -1.562  -2.883  0.00  0.00    +0.025 A 
ATOM      8  C   UNL     1       2.483  -2.167  -3.902  0.00  0.00    +0.002 A 
ATOM      9  C   UNL     1       1.861  -2.477  -5.098  0.00  0.00    +0.002 A 
ATOM     10  C   UNL     1       0.522  -2.187  -5.286  0.00  0.00    +0.025 A 
ATOM     11  C   UNL     1      -0.202  -1.584  -4.270  0.00  0.00    +0.055 A 
ATOM     12  N   UNL     1      -1.560  -1.293  -4.435  0.00  0.00    -0.282 N 
ATOM     13  C   UNL     1      -2.196  -0.470  -3.579  0.00  0.00    +0.241 C 
ATOM     14  O   UNL     1      -3.384  -0.267  -3.715  0.00  0.00    -0.273 OA
ATOM     15  C   UNL     1      -1.453   0.197  -2.455  0.00  0.00    +0.113 C 
ATOM     16  C   UNL     1      -2.395   0.393  -1.265  0.00  0.00    +0.042 C 
ATOM     17  C   UNL     1      -0.932   1.556  -2.926  0.00  0.00    +0.042 C 
ATOM     18  H   UNL     1      -2.049  -1.688  -5.173  0.00  0.00    +0.155 HD
ENDBRANCH   2   3
BRANCH   2  19
ATOM     19  S   UNL     1      -0.164  -0.560   1.948  0.00  0.00    -0.084 S 
BRANCH  19  20
ATOM     20  C   UNL     1      -1.178   0.415   3.093  0.00  0.00    +0.340 C 
ATOM     21  N   UNL     1      -2.610   0.177   2.843  0.00  0.00    -0.219 N 
ATOM     22  N   UNL     1      -3.141   1.424   2.483  0.00  0.00    -0.145 NA
ATOM     23  C   UNL     1      -2.202   2.333   2.497  0.00  0.00    +0.238 C 
ATOM     24  O   UNL     1      -0.997   1.817   2.852  0.00  0.00    -0.443 OA
ATOM     25  H   UNL     1      -3.085  -0.666   2.912  0.00  0.00    +0.173 HD
BRANCH  23  26
ATOM     26  C   UNL     1      -2.414   3.683   2.183  0.00  0.00    +0.043 C 
ATOM     27  C   UNL     1      -3.619   4.285   1.818  0.00  0.00    +0.008 A 
ATOM     28  C   UNL     1      -4.926   3.780   1.655  0.00  0.00    +0.010 A 
ATOM     29  C   UNL     1      -5.931   4.615   1.284  0.00  0.00    +0.001 A 
ATOM     30  C   UNL     1      -5.704   5.975   1.058  0.00  0.00    +0.002 A 
ATOM     31  C   UNL     1      -4.474   6.528   1.196  0.00  0.00    +0.026 A 
ATOM     32  C   UNL     1      -3.376   5.717   1.581  0.00  0.00    +0.043 A 
ATOM     33  N   UNL     1      -2.105   6.008   1.780  0.00  0.00    -0.380 N 
ATOM     34  C   UNL     1      -1.386   4.793   2.175  0.00  0.00    +0.154 C 
ATOM     35  H   UNL     1      -1.708   6.888   1.684  0.00  0.00    +0.160 HD
ENDBRANCH  23  26
ENDBRANCH  19  20
ENDBRANCH   2  19
TORSDOF 4
