REMARK  Name = ZINC02451473
REMARK  9 active torsions:
REMARK  status: ('A' for Active; 'I' for Inactive)
REMARK    1  A    between atoms: C_1  and  C_2
REMARK    2  A    between atoms: C_5  and  S_8
REMARK    3  A    between atoms: S_8  and  C_9
REMARK    4  A    between atoms: C_9  and  C_10
REMARK    5  A    between atoms: C_11  and  C_21
REMARK    6  A    between atoms: N_23  and  N_24
REMARK    7  A    between atoms: C_25  and  C_26
REMARK    8  A    between atoms: C_29  and  O_33
REMARK    9  A    between atoms: C_31  and  O_32
REMARK                            x       y       z     vdW  Elec       q    Type
REMARK                         _______ _______ _______ _____ _____    ______ ____
ROOT
ATOM      1  C   UNL     1       1.855   3.722   0.004  0.00  0.00    +0.089 A 
ATOM      2  C   UNL     1       1.918   4.540  -1.089  0.00  0.00    +0.173 A 
ATOM      3  N   UNL     1       2.020   5.811  -0.664  0.00  0.00    -0.124 NA
ATOM      4  N   UNL     1       2.035   5.837   0.623  0.00  0.00    -0.058 NA
ATOM      5  N   UNL     1       1.932   4.520   1.093  0.00  0.00    -0.191 N 
ATOM      6  C   UNL     1       1.911   4.110   2.431  0.00  0.00    +0.240 A 
ATOM      7  C   UNL     1       1.995   4.991   3.599  0.00  0.00    +0.206 A 
ATOM      8  N   UNL     1       1.945   4.253   4.674  0.00  0.00    -0.032 NA
ATOM      9  O   UNL     1       1.829   2.901   4.267  0.00  0.00    -0.239 OA
ATOM     10  N   UNL     1       1.808   2.881   2.850  0.00  0.00    -0.027 NA
ATOM     11  N   UNL     1       2.109   6.377   3.567  0.00  0.00    -0.337 N 
ATOM     12  H   UNL     1       2.139   6.841   2.717  0.00  0.00    +0.144 HD
ATOM     13  H   UNL     1       2.159   6.878   4.396  0.00  0.00    +0.144 HD
ENDROOT
BRANCH   2  14
ATOM     14  C   UNL     1       1.876   4.101  -2.496  0.00  0.00    +0.285 C 
ATOM     15  O   UNL     1       1.778   2.918  -2.762  0.00  0.00    -0.267 OA
ATOM     16  N   UNL     1       1.946   5.012  -3.488  0.00  0.00    -0.202 N 
ATOM     17  H   UNL     1       2.024   5.955  -3.276  0.00  0.00    +0.178 HD
BRANCH  16  18
ATOM     18  N   UNL     1       1.907   4.595  -4.825  0.00  0.00    -0.187 NA
ATOM     19  C   UNL     1       1.974   5.472  -5.780  0.00  0.00    +0.142 C 
BRANCH  19  20
ATOM     20  C   UNL     1       1.933   5.035  -7.186  0.00  0.00    +0.036 A 
ATOM     21  C   UNL     1       2.005   5.976  -8.216  0.00  0.00    +0.016 A 
ATOM     22  C   UNL     1       1.966   5.562  -9.530  0.00  0.00    +0.046 A 
ATOM     23  C   UNL     1       1.854   4.211  -9.835  0.00  0.00    +0.120 A 
ATOM     24  C   UNL     1       1.782   3.268  -8.819  0.00  0.00    +0.091 A 
ATOM     25  C   UNL     1       1.826   3.671  -7.496  0.00  0.00    +0.129 A 
BRANCH  25  26
ATOM     26  O   UNL     1       1.760   2.749  -6.501  0.00  0.00    -0.506 OA
ATOM     27  H   UNL     1       0.861   2.550  -6.208  0.00  0.00    +0.292 HD
ENDBRANCH  25  26
BRANCH  23  28
ATOM     28  O   UNL     1       1.817   3.811 -11.132  0.00  0.00    -0.507 OA
ATOM     29  H   UNL     1       2.686   3.623 -11.511  0.00  0.00    +0.292 HD
ENDBRANCH  23  28
ENDBRANCH  19  20
ENDBRANCH  16  18
ENDBRANCH   2  14
BRANCH   1  30
ATOM     30  C   UNL     1       1.732   2.220  -0.003  0.00  0.00    +0.132 C 
BRANCH  30  31
ATOM     31  S   UNL     1      -0.022   1.758   0.012  0.00  0.00    -0.119 S 
BRANCH  31  36
ATOM     32  C   UNL     1       0.060  -4.278  -0.022  0.00  0.00    +0.044 C 
ATOM     33  C   UNL     1       0.040  -2.771  -0.014  0.00  0.00    -0.050 A 
ATOM     34  C   UNL     1      -1.168  -2.098   0.002  0.00  0.00    +0.004 A 
ATOM     35  C   UNL     1      -1.191  -0.717   0.010  0.00  0.00    +0.015 A 
ATOM     36  C   UNL     1       0.002  -0.004   0.002  0.00  0.00    +0.008 A 
ATOM     37  C   UNL     1       1.214  -0.684  -0.019  0.00  0.00    +0.015 A 
ATOM     38  C   UNL     1       1.229  -2.065  -0.021  0.00  0.00    +0.004 A 
ENDBRANCH  31  36
ENDBRANCH  30  31
ENDBRANCH   1  30
TORSDOF 8
