REMARK  Name = ZINC37636871
REMARK  6 active torsions:
REMARK  status: ('A' for Active; 'I' for Inactive)
REMARK    1  A    between atoms: C_4  and  C_8
REMARK    2  A    between atoms: C_8  and  C_10
REMARK    3  A    between atoms: C_8  and  N_21
REMARK    4  A    between atoms: C_10  and  C_11
REMARK    5  A    between atoms: C_11  and  C_17
REMARK    6  A    between atoms: C_17  and  C_18
REMARK                            x       y       z     vdW  Elec       q    Type
REMARK                         _______ _______ _______ _____ _____    ______ ____
ROOT
ATOM      1  C   UNL     1       4.074   0.518   1.708  0.00  0.00    -0.042 C 
ENDROOT
BRANCH   1   5
ATOM      2  C   UNL     1       0.168   1.417   3.191  0.00  0.00    +0.021 A 
ATOM      3  C   UNL     1       1.093   0.798   4.011  0.00  0.00    +0.021 A 
ATOM      4  C   UNL     1       2.357   0.507   3.531  0.00  0.00    +0.043 A 
ATOM      5  C   UNL     1       2.696   0.835   2.231  0.00  0.00    -0.042 A 
ATOM      6  C   UNL     1       1.772   1.454   1.411  0.00  0.00    +0.023 A 
ATOM      7  C   UNL     1       0.507   1.745   1.891  0.00  0.00    +0.041 A 
ATOM      8 CL   UNL     1      -0.654   2.522   0.861  0.00  0.00    -0.084 Cl
ATOM      9 CL   UNL     1       3.519  -0.270   4.561  0.00  0.00    -0.083 Cl
ENDBRANCH   1   5
BRANCH   1  10
ATOM     10  N   UNL     1       4.403   1.434   0.609  0.00  0.00    +0.383 N 
ATOM     11  H   UNL     1       3.702   1.359  -0.113  0.00  0.00    -0.089 HD
ATOM     12  H   UNL     1       4.428   2.381   0.956  0.00  0.00    -0.089 HD
ATOM     13  H   UNL     1       5.306   1.192   0.228  0.00  0.00    -0.089 HD
ENDBRANCH   1  10
BRANCH   1  14
ATOM     14  C   UNL     1       4.106  -0.924   1.197  0.00  0.00    -0.004 C 
BRANCH  14  15
ATOM     15  C   UNL     1       5.548  -1.435   1.203  0.00  0.00    -0.022 C 
ATOM     16  C   UNL     1       5.605  -2.810   0.534  0.00  0.00    +0.007 C 
ATOM     17  C   UNL     1       4.714  -3.788   1.303  0.00  0.00    +0.001 C 
ATOM     18  C   UNL     1       5.210  -3.902   2.746  0.00  0.00    +0.000 C 
ATOM     19  C   UNL     1       5.153  -2.527   3.415  0.00  0.00    +0.001 C 
ATOM     20  C   UNL     1       6.043  -1.549   2.646  0.00  0.00    +0.007 C 
BRANCH  15  21
ATOM     21  C   UNL     1       6.439  -0.457   0.434  0.00  0.00    +0.102 C 
BRANCH  21  22
ATOM     22  C   UNL     1       7.840  -1.006   0.359  0.00  0.00    +0.211 C 
ATOM     23  O   UNL     1       8.101  -2.074   0.870  0.00  0.00    -0.276 OA
ATOM     24  N   UNL     1       8.803  -0.309  -0.277  0.00  0.00    -0.329 N 
ATOM     25  H   UNL     1       8.595   0.545  -0.685  0.00  0.00    +0.145 HD
ATOM     26  H   UNL     1       9.705  -0.662  -0.325  0.00  0.00    +0.145 HD
ENDBRANCH  21  22
ENDBRANCH  15  21
ENDBRANCH  14  15
ENDBRANCH   1  14
TORSDOF 6
