REMARK  Name = ZINC20410731
REMARK  3 active torsions:
REMARK  status: ('A' for Active; 'I' for Inactive)
REMARK    1  A    between atoms: C_1  and  C_2
REMARK    2  A    between atoms: C_2  and  N_3
REMARK    3  A    between atoms: C_6  and  C_12
REMARK                            x       y       z     vdW  Elec       q    Type
REMARK                         _______ _______ _______ _____ _____    ______ ____
ROOT
ATOM      1  C   UNL     1       0.125   3.771   0.021  0.00  0.00    +0.018 C 
ATOM      2  C   UNL     1       0.060   4.569  -1.260  0.00  0.00    +0.011 A 
ATOM      3  C   UNL     1      -0.245   5.886  -1.292  0.00  0.00    -0.022 A 
ATOM      4  C   UNL     1      -0.207   6.300  -2.676  0.00  0.00    +0.003 A 
ATOM      5  C   UNL     1      -0.432   7.527  -3.308  0.00  0.00    +0.010 A 
ATOM      6  C   UNL     1      -0.307   7.554  -4.675  0.00  0.00    +0.001 A 
ATOM      7  C   UNL     1       0.026   6.426  -5.406  0.00  0.00    +0.002 A 
ATOM      8  C   UNL     1       0.255   5.199  -4.807  0.00  0.00    +0.026 A 
ATOM      9  C   UNL     1       0.135   5.141  -3.421  0.00  0.00    +0.047 A 
ATOM     10  N   UNL     1       0.288   4.116  -2.531  0.00  0.00    -0.359 N 
ATOM     11  H   UNL     1       0.551   3.062  -2.700  0.00  0.00    +0.166 HD
ATOM     12  C   UNL     1      -0.558   6.698  -0.060  0.00  0.00    +0.018 C 
ATOM     13  C   UNL     1      -0.853   5.723   1.088  0.00  0.00    -0.076 C 
ATOM     14  N   UNL     1       0.206   4.705   1.155  0.00  0.00    +0.388 N 
ATOM     15  H   UNL     1       0.097   4.148   2.097  0.00  0.00    -0.084 HD
ATOM     16  H   UNL     1       1.181   5.214   1.141  0.00  0.00    -0.084 HD
ENDROOT
BRANCH   1  20
ATOM     17  N   UNL     1       3.712   2.640  -0.019  0.00  0.00    -0.289 N 
ATOM     18  C   UNL     1       2.634   3.449  -0.005  0.00  0.00    +0.260 A 
ATOM     19  O   UNL     1       2.775   4.659   0.001  0.00  0.00    -0.267 OA
ATOM     20  C   UNL     1       1.345   2.886   0.005  0.00  0.00    +0.073 A 
ATOM     21  C   UNL     1       1.214   1.529  -0.001  0.00  0.00    +0.258 A 
ATOM     22  N   UNL     1       2.338   0.743  -0.011  0.00  0.00    -0.302 N 
ATOM     23  C   UNL     1       3.562   1.303  -0.025  0.00  0.00    +0.163 A 
ATOM     24  S   UNL     1       4.949   0.299  -0.044  0.00  0.00    -0.013 S 
ATOM     25  O   UNL     1      -0.011   0.963   0.007  0.00  0.00    -0.267 OA
ATOM     26  H   UNL     1       2.243  -0.353  -0.006  0.00  0.00    +0.171 HD
BRANCH  17  28
ATOM     27  C   UNL     1       5.539   3.416   1.409  0.00  0.00    +0.027 C 
ATOM     28  C   UNL     1       5.057   3.221  -0.030  0.00  0.00    +0.124 C 
ENDBRANCH  17  28
ENDBRANCH   1  20
TORSDOF 2
