REMARK  Name = ZINC44785433
REMARK  3 active torsions:
REMARK  status: ('A' for Active; 'I' for Inactive)
REMARK    1  A    between atoms: C_13  and  C_15
REMARK    2  A    between atoms: C_15  and  C_20
REMARK    3  A    between atoms: N_21  and  O_22
REMARK                            x       y       z     vdW  Elec       q    Type
REMARK                         _______ _______ _______ _____ _____    ______ ____
ROOT
ATOM      1  C   UNL     1      -2.319   0.208  -0.697  0.00  0.00    +0.000 C 
ATOM      2  C   UNL     1      -1.089   0.949  -0.169  0.00  0.00    +0.000 C 
ATOM      3  C   UNL     1       0.072   0.777  -1.151  0.00  0.00    +0.005 C 
ATOM      4  C   UNL     1       0.395  -0.710  -1.301  0.00  0.00    +0.010 C 
ATOM      5  C   UNL     1       1.561  -0.887  -2.278  0.00  0.00    +0.111 C 
ATOM      6  N   UNL     1       1.130  -0.455  -3.615  0.00  0.00    -0.300 N 
ATOM      7  C   UNL     1      -0.090  -1.041  -4.186  0.00  0.00    +0.108 C 
ATOM      8  C   UNL     1      -1.238  -0.855  -3.189  0.00  0.00    +0.023 C 
ATOM      9  C   UNL     1      -0.835  -1.447  -1.838  0.00  0.00    -0.005 C 
ATOM     10  C   UNL     1      -1.993  -1.280  -0.851  0.00  0.00    +0.004 C 
ATOM     11  C   UNL     1       1.841   0.461  -4.303  0.00  0.00    +0.229 C 
ATOM     12  O   UNL     1       2.798   0.999  -3.787  0.00  0.00    -0.275 OA
ENDROOT
BRANCH  11  13
ATOM     13  C   UNL     1       1.446   0.817  -5.713  0.00  0.00    +0.105 C 
ATOM     14  C   UNL     1       2.461   1.807  -6.311  0.00  0.00    +0.024 C 
ATOM     15  C   UNL     1       1.675   3.089  -6.654  0.00  0.00    +0.001 C 
ATOM     16  C   UNL     1       0.439   3.039  -5.723  0.00  0.00    +0.001 C 
ATOM     17  C   UNL     1       0.079   1.532  -5.714  0.00  0.00    +0.024 C 
BRANCH  13  18
ATOM     18  C   UNL     1       1.378  -0.428  -6.559  0.00  0.00    +0.147 C 
ATOM     19  N   UNL     1       0.954  -0.359  -7.777  0.00  0.00    -0.076 NA
ATOM     20  N   UNL     1       1.767  -1.640  -6.034  0.00  0.00    -0.343 N 
ATOM     21  H   UNL     1       2.174  -1.679  -5.154  0.00  0.00    +0.144 HD
ATOM     22  H   UNL     1       1.635  -2.455  -6.544  0.00  0.00    +0.144 HD
BRANCH  19  23
ATOM     23  O   UNL     1       0.665   0.901  -8.356  0.00  0.00    -0.408 OA
ATOM     24  H   UNL     1       0.354   0.852  -9.270  0.00  0.00    +0.328 HD
ENDBRANCH  19  23
ENDBRANCH  13  18
ENDBRANCH  11  13
TORSDOF 3
