REMARK  Name = ZINC15969833
REMARK  7 active torsions:
REMARK  status: ('A' for Active; 'I' for Inactive)
REMARK    1  A    between atoms: C_1  and  C_2
REMARK    2  A    between atoms: C_16  and  C_19
REMARK    3  A    between atoms: C_19  and  C_20
REMARK    4  A    between atoms: C_20  and  C_21
REMARK    5  A    between atoms: N_26  and  C_29
REMARK    6  A    between atoms: C_29  and  C_30
REMARK    7  A    between atoms: C_30  and  C_31
REMARK                            x       y       z     vdW  Elec       q    Type
REMARK                         _______ _______ _______ _____ _____    ______ ____
ROOT
ATOM      1  C   UNL     1       3.800   0.787   0.048  0.00  0.00    +0.046 C 
ATOM      2  C   UNL     1       3.160  -0.577   0.019  0.00  0.00    -0.028 A 
ATOM      3  C   UNL     1       3.224  -1.343  -1.127  0.00  0.00    +0.025 A 
ATOM      4  C   UNL     1       2.640  -2.596  -1.163  0.00  0.00    +0.042 A 
ATOM      5  C   UNL     1       1.989  -3.085  -0.042  0.00  0.00    +0.027 A 
ATOM      6  C   UNL     1       1.924  -2.324   1.103  0.00  0.00    +0.005 A 
ATOM      7  C   UNL     1       2.512  -1.063   1.152  0.00  0.00    +0.042 A 
ATOM      8  N   UNL     1       2.320  -0.489   2.411  0.00  0.00    -0.283 N 
ATOM      9  C   UNL     1       1.631  -1.298   3.238  0.00  0.00    +0.243 C 
ATOM     10  O   UNL     1       1.319  -1.063   4.386  0.00  0.00    -0.273 OA
ATOM     11  C   UNL     1       1.315  -2.545   2.458  0.00  0.00    +0.136 C 
ATOM     12  C   UNL     1      -0.196  -2.793   2.366  0.00  0.00    +0.122 C 
ATOM     13  C   UNL     1      -0.492  -3.823   3.492  0.00  0.00    +0.107 C 
ATOM     14  C   UNL     1       0.872  -4.073   4.169  0.00  0.00    +0.068 C 
ATOM     15  N   UNL     1       1.880  -3.735   3.120  0.00  0.00    -0.295 NA
ATOM     16  C   UNL     1      -0.923  -5.056   2.733  0.00  0.00    +0.227 C 
ATOM     17  O   UNL     1      -1.243  -6.112   3.236  0.00  0.00    -0.275 OA
ATOM     18  N   UNL     1      -0.898  -4.802   1.420  0.00  0.00    -0.241 N 
ATOM     19  C   UNL     1      -0.509  -3.548   1.093  0.00  0.00    +0.228 C 
ATOM     20  O   UNL     1      -0.421  -3.097  -0.028  0.00  0.00    -0.275 OA
ATOM     21 CL   UNL     1       2.723  -3.554  -2.608  0.00  0.00    -0.084 Cl
ATOM     22  H   UNL     1       2.646   0.390   2.660  0.00  0.00    +0.155 HD
ATOM     23  H   UNL     1       2.000  -4.492   2.463  0.00  0.00    +0.123 HD
ENDROOT
BRANCH  14  24
ATOM     24  C   UNL     1       1.028  -3.179   5.401  0.00  0.00    +0.028 C 
BRANCH  24  25
ATOM     25  C   UNL     1       0.534  -3.927   6.640  0.00  0.00    +0.097 C 
BRANCH  25  26
ATOM     26  C   UNL     1       0.687  -3.045   7.853  0.00  0.00    +0.211 C 
ATOM     27  O   UNL     1       1.146  -1.929   7.737  0.00  0.00    -0.276 OA
ATOM     28  N   UNL     1       0.314  -3.498   9.066  0.00  0.00    -0.329 N 
ATOM     29  H   UNL     1      -0.053  -4.391   9.159  0.00  0.00    +0.145 HD
ATOM     30  H   UNL     1       0.413  -2.931   9.847  0.00  0.00    +0.145 HD
ENDBRANCH  25  26
ENDBRANCH  24  25
ENDBRANCH  14  24
BRANCH  18  31
ATOM     31  C   UNL     1      -1.269  -5.799   0.413  0.00  0.00    +0.121 C 
BRANCH  31  32
ATOM     32  C   UNL     1      -2.768  -5.698   0.122  0.00  0.00    +0.054 C 
BRANCH  32  33
ATOM     33  C   UNL     1      -3.149  -6.724  -0.914  0.00  0.00    -0.046 A 
ATOM     34  C   UNL     1      -3.096  -6.402  -2.257  0.00  0.00    +0.004 A 
ATOM     35  C   UNL     1      -3.446  -7.343  -3.208  0.00  0.00    +0.000 A 
ATOM     36  C   UNL     1      -3.848  -8.606  -2.815  0.00  0.00    +0.000 A 
ATOM     37  C   UNL     1      -3.900  -8.928  -1.472  0.00  0.00    +0.000 A 
ATOM     38  C   UNL     1      -3.546  -7.988  -0.521  0.00  0.00    +0.004 A 
ENDBRANCH  32  33
ENDBRANCH  31  32
ENDBRANCH  18  31
TORSDOF 6
