REMARK  Name = ZINC21084379
REMARK  12 active torsions:
REMARK  status: ('A' for Active; 'I' for Inactive)
REMARK    1  A    between atoms: C_1  and  C_2
REMARK    2  A    between atoms: C_2  and  C_3
REMARK    3  A    between atoms: C_3  and  C_4
REMARK    4  A    between atoms: C_4  and  N_5
REMARK    5  A    between atoms: C_6  and  N_37
REMARK    6  A    between atoms: C_7  and  N_14
REMARK    7  A    between atoms: N_14  and  C_15
REMARK    8  A    between atoms: C_15  and  C_16
REMARK    9  A    between atoms: C_17  and  C_19
REMARK   10  A    between atoms: C_19  and  C_20
REMARK   11  A    between atoms: C_20  and  C_21
REMARK   12  A    between atoms: C_21  and  N_22
REMARK                            x       y       z     vdW  Elec       q    Type
REMARK                         _______ _______ _______ _____ _____    ______ ____
ROOT
ATOM      1  N   UNL     1       6.976   7.883   3.120  0.00  0.00    -0.265 N 
ATOM      2  C   UNL     1       5.940   7.035   2.950  0.00  0.00    +0.220 C 
ATOM      3  O   UNL     1       5.433   6.496   3.912  0.00  0.00    -0.275 OA
ENDROOT
BRANCH   1   6
ATOM      4  N   UNL     1       7.019   9.201   6.549  0.00  0.00    -0.280 N 
ATOM      5  C   UNL     1       6.569   8.889   5.287  0.00  0.00    +0.127 A 
ATOM      6  C   UNL     1       7.408   8.218   4.420  0.00  0.00    +0.140 A 
ATOM      7  C   UNL     1       8.699   7.869   4.858  0.00  0.00    +0.277 A 
ATOM      8  O   UNL     1       9.459   7.271   4.114  0.00  0.00    -0.266 OA
ATOM      9  N   UNL     1       9.092   8.204   6.103  0.00  0.00    -0.273 N 
ATOM     10  H   UNL     1      10.103   7.942   6.449  0.00  0.00    +0.173 HD
ATOM     11  C   UNL     1       8.261   8.857   6.934  0.00  0.00    +0.331 A 
ATOM     12  O   UNL     1       8.640   9.143   8.053  0.00  0.00    -0.246 OA
BRANCH   5  13
ATOM     13  N   UNL     1       5.300   9.241   4.894  0.00  0.00    -0.343 N 
ATOM     14  H   UNL     1       4.947   8.987   3.884  0.00  0.00    +0.144 HD
ATOM     15  H   UNL     1       4.637   9.775   5.590  0.00  0.00    +0.144 HD
ENDBRANCH   5  13
BRANCH   4  16
ATOM     16  C   UNL     1       6.139   9.913   7.480  0.00  0.00    +0.128 C 
BRANCH  16  17
ATOM     17  C   UNL     1       5.333   8.900   8.295  0.00  0.00    +0.021 C 
BRANCH  17  19
ATOM     18  C   UNL     1       3.607   8.629  10.082  0.00  0.00    +0.004 C 
ATOM     19  C   UNL     1       4.414   9.643   9.267  0.00  0.00    -0.002 C 
ENDBRANCH  17  19
ENDBRANCH  16  17
ENDBRANCH   4  16
ENDBRANCH   1   6
BRANCH   1  20
ATOM     20  C   UNL     1       7.652   8.456   1.953  0.00  0.00    +0.110 C 
ATOM     21  C   UNL     1       7.011   9.799   1.600  0.00  0.00    +0.025 C 
ENDBRANCH   1  20
BRANCH   2  22
ATOM     22  C   UNL     1       5.412   6.758   1.566  0.00  0.00    +0.098 C 
BRANCH  22  23
ATOM     23  C   UNL     1       4.246   5.771   1.653  0.00  0.00    +0.029 C 
BRANCH  23  24
ATOM     24  C   UNL     1       3.711   5.489   0.248  0.00  0.00    +0.117 C 
BRANCH  24  25
ATOM     25  N   UNL     1       2.594   4.544   0.331  0.00  0.00    -0.234 N 
ATOM     26  C   UNL     1       2.855   3.225   0.261  0.00  0.00    +0.254 C 
ATOM     27  O   UNL     1       4.002   2.841   0.131  0.00  0.00    -0.270 OA
ATOM     28  C   UNL     1       1.761   2.246   0.341  0.00  0.00    +0.046 A 
ATOM     29  C   UNL     1       1.985   0.879   0.273  0.00  0.00    +0.014 A 
ATOM     30  C   UNL     1       0.917  -0.008   0.354  0.00  0.00    +0.001 A 
ATOM     31  C   UNL     1      -0.368   0.431   0.495  0.00  0.00    +0.008 A 
ATOM     32  C   UNL     1      -0.637   1.808   0.574  0.00  0.00    -0.016 A 
ATOM     33  C   UNL     1       0.438   2.718   0.493  0.00  0.00    +0.006 A 
ATOM     34  C   UNL     1       0.200   4.110   0.563  0.00  0.00    +0.046 A 
ATOM     35  C   UNL     1      -1.102   4.563   0.713  0.00  0.00    +0.014 A 
ATOM     36  C   UNL     1      -2.153   3.656   0.791  0.00  0.00    +0.001 A 
ATOM     37  C   UNL     1      -1.942   2.309   0.726  0.00  0.00    +0.008 A 
ATOM     38  C   UNL     1       1.345   5.027   0.475  0.00  0.00    +0.254 C 
ATOM     39  O   UNL     1       1.164   6.228   0.533  0.00  0.00    -0.270 OA
ENDBRANCH  24  25
ENDBRANCH  23  24
ENDBRANCH  22  23
ENDBRANCH   2  22
TORSDOF 10
