REMARK  Name = ZINC66976245
REMARK  12 active torsions:
REMARK  status: ('A' for Active; 'I' for Inactive)
REMARK    1  A    between atoms: C_1  and  C_2
REMARK    2  A    between atoms: C_2  and  N_3
REMARK    3  A    between atoms: N_3  and  C_4
REMARK    4  A    between atoms: C_4  and  C_6
REMARK    5  A    between atoms: C_4  and  C_7
REMARK    6  A    between atoms: C_7  and  C_8
REMARK    7  A    between atoms: C_11  and  O_14
REMARK    8  A    between atoms: O_14  and  C_15
REMARK    9  A    between atoms: N_18  and  C_19
REMARK   10  A    between atoms: C_19  and  C_21
REMARK   11  A    between atoms: C_19  and  C_22
REMARK   12  A    between atoms: C_25  and  C_27
REMARK                            x       y       z     vdW  Elec       q    Type
REMARK                         _______ _______ _______ _____ _____    ______ ____
ROOT
ATOM      1  N   UNL     1      -1.372  -0.511   0.012  0.00  0.00    -0.283 N 
ATOM      2  C   UNL     1      -1.993  -0.751   1.184  0.00  0.00    +0.303 C 
ATOM      3  O   UNL     1      -3.134  -1.171   1.193  0.00  0.00    -0.253 OA
ATOM      4  N   UNL     1      -1.350  -0.524   2.347  0.00  0.00    -0.290 N 
ATOM      5  H   UNL     1      -0.440  -0.188   2.340  0.00  0.00    +0.151 HD
ENDROOT
BRANCH   1   7
ATOM      6  C   UNL     1      -0.019   1.526   0.010  0.00  0.00    +0.024 C 
ATOM      7  C   UNL     1       0.002  -0.004   0.002  0.00  0.00    +0.106 C 
ENDBRANCH   1   7
BRANCH   1   8
ATOM      8  C   UNL     1      -2.072  -0.758  -1.251  0.00  0.00    +0.079 C 
ATOM      9  C   UNL     1      -2.165   0.546  -2.046  0.00  0.00    +0.028 C 
BRANCH   8  10
ATOM     10  C   UNL     1      -1.300  -1.798  -2.066  0.00  0.00    +0.057 C 
BRANCH  10  11
ATOM     11  C   UNL     1      -1.314  -3.117  -1.339  0.00  0.00    -0.045 A 
ATOM     12  C   UNL     1      -0.313  -3.416  -0.433  0.00  0.00    +0.007 A 
ATOM     13  C   UNL     1      -0.323  -4.625   0.235  0.00  0.00    +0.046 A 
ATOM     14  C   UNL     1      -1.338  -5.540  -0.004  0.00  0.00    +0.120 A 
ATOM     15  C   UNL     1      -2.341  -5.238  -0.913  0.00  0.00    +0.046 A 
ATOM     16  C   UNL     1      -2.330  -4.025  -1.575  0.00  0.00    +0.007 A 
BRANCH  14  17
ATOM     17  O   UNL     1      -1.350  -6.731   0.652  0.00  0.00    -0.495 OA
ATOM     18  C   UNL     1      -2.426  -7.623   0.356  0.00  0.00    +0.277 C 
ENDBRANCH  14  17
ENDBRANCH  10  11
ENDBRANCH   8  10
ENDBRANCH   1   8
BRANCH   4  19
ATOM     19  C   UNL     1      -2.025  -0.784   3.620  0.00  0.00    +0.137 C 
ATOM     20  C   UNL     1      -2.860   0.436   4.014  0.00  0.00    +0.036 C 
BRANCH  19  21
ATOM     21  C   UNL     1      -0.996  -1.054   4.688  0.00  0.00    +0.125 A 
ATOM     22  C   UNL     1      -1.090  -1.988   5.652  0.00  0.00    +0.047 A 
ATOM     23  C   UNL     1       0.088  -1.894   6.428  0.00  0.00    +0.045 A 
ATOM     24  C   UNL     1       0.831  -0.908   5.893  0.00  0.00    +0.102 A 
ATOM     25  O   UNL     1       0.171  -0.407   4.835  0.00  0.00    -0.463 OA
ATOM     26  C   UNL     1       2.177  -0.449   6.391  0.00  0.00    +0.086 C 
ENDBRANCH  19  21
ENDBRANCH   4  19
TORSDOF 7
