REMARK  Name = ZINC60213639
REMARK  8 active torsions:
REMARK  status: ('A' for Active; 'I' for Inactive)
REMARK    1  A    between atoms: C_1  and  C_2
REMARK    2  A    between atoms: C_7  and  C_9
REMARK    3  A    between atoms: C_7  and  C_10
REMARK    4  A    between atoms: N_13  and  C_17
REMARK    5  A    between atoms: C_17  and  C_18
REMARK    6  A    between atoms: N_20  and  C_21
REMARK    7  A    between atoms: C_21  and  C_22
REMARK    8  A    between atoms: N_24  and  C_25
REMARK                            x       y       z     vdW  Elec       q    Type
REMARK                         _______ _______ _______ _____ _____    ______ ____
ROOT
ATOM      1  C   UNL     1      -0.019   1.528   0.010  0.00  0.00    +0.007 C 
ATOM      2  C   UNL     1       0.002  -0.004   0.002  0.00  0.00    -0.011 C 
ATOM      3  C   UNL     1      -1.435  -0.529   0.021  0.00  0.00    +0.038 C 
ATOM      4  C   UNL     1      -1.427  -2.050  -0.036  0.00  0.00    +0.113 C 
ATOM      5  C   UNL     1      -0.575  -2.676   1.049  0.00  0.00    +0.041 C 
ATOM      6  C   UNL     1       0.782  -2.031   1.270  0.00  0.00    -0.032 C 
ATOM      7  C   UNL     1       0.719  -0.508   1.253  0.00  0.00    +0.009 C 
ATOM      8  C   UNL     1       1.296  -2.464   2.661  0.00  0.00    +0.011 C 
ATOM      9  C   UNL     1       1.795  -2.526   0.234  0.00  0.00    +0.011 C 
ATOM     10  C   UNL     1      -1.044  -2.534  -1.413  0.00  0.00    +0.247 C 
ATOM     11  O   UNL     1      -0.058  -2.253  -2.060  0.00  0.00    -0.273 OA
ATOM     12  N   UNL     1      -2.050  -3.344  -1.810  0.00  0.00    -0.215 N 
ATOM     13  C   UNL     1      -3.063  -3.331  -0.937  0.00  0.00    +0.310 C 
ATOM     14  O   UNL     1      -4.088  -3.969  -1.082  0.00  0.00    -0.252 OA
ATOM     15  N   UNL     1      -2.817  -2.537   0.119  0.00  0.00    -0.285 N 
ATOM     16  H   UNL     1      -3.418  -2.318   0.845  0.00  0.00    +0.151 HD
ENDROOT
BRANCH  12  17
ATOM     17  C   UNL     1      -2.031  -4.134  -3.043  0.00  0.00    +0.213 C 
BRANCH  17  18
ATOM     18  C   UNL     1      -1.431  -5.488  -2.763  0.00  0.00    +0.231 C 
ATOM     19  O   UNL     1      -1.057  -5.765  -1.643  0.00  0.00    -0.274 OA
ATOM     20  N   UNL     1      -1.311  -6.390  -3.757  0.00  0.00    -0.305 N 
ATOM     21  H   UNL     1      -1.611  -6.169  -4.652  0.00  0.00    +0.149 HD
BRANCH  20  22
ATOM     22  C   UNL     1      -0.728  -7.706  -3.484  0.00  0.00    +0.200 C 
BRANCH  22  23
ATOM     23  C   UNL     1      -0.708  -8.520  -4.753  0.00  0.00    +0.230 C 
ATOM     24  O   UNL     1      -1.139  -8.046  -5.783  0.00  0.00    -0.274 OA
ATOM     25  N   UNL     1      -0.212  -9.773  -4.742  0.00  0.00    -0.311 N 
ATOM     26  H   UNL     1       0.133 -10.151  -3.918  0.00  0.00    +0.149 HD
BRANCH  25  27
ATOM     27  C   UNL     1      -0.193 -10.563  -5.976  0.00  0.00    +0.073 C 
ATOM     28  C   UNL     1      -1.544 -11.257  -6.158  0.00  0.00    +0.022 C 
ATOM     29  C   UNL     1      -1.524 -12.082  -7.446  0.00  0.00    +0.002 C 
ATOM     30  C   UNL     1      -0.418 -13.136  -7.359  0.00  0.00    +0.000 C 
ATOM     31  C   UNL     1       0.934 -12.442  -7.177  0.00  0.00    +0.002 C 
ATOM     32  C   UNL     1       0.914 -11.616  -5.889  0.00  0.00    +0.022 C 
ENDBRANCH  25  27
ENDBRANCH  22  23
ENDBRANCH  20  22
ENDBRANCH  17  18
ENDBRANCH  12  17
TORSDOF 5
