REMARK  Name = ZINC48889158
REMARK  6 active torsions:
REMARK  status: ('A' for Active; 'I' for Inactive)
REMARK    1  A    between atoms: C_1  and  C_2
REMARK    2  A    between atoms: C_2  and  C_3
REMARK    3  A    between atoms: C_2  and  C_4
REMARK    4  A    between atoms: C_2  and  N_15
REMARK    5  A    between atoms: N_6  and  C_7
REMARK    6  A    between atoms: N_18  and  C_19
REMARK                            x       y       z     vdW  Elec       q    Type
REMARK                         _______ _______ _______ _____ _____    ______ ____
ROOT
ATOM      1  C   UNL     1      -1.412  -0.526   0.013  0.00  0.00    +0.236 C 
ATOM      2  O   UNL     1      -1.939  -0.827   1.062  0.00  0.00    -0.273 OA
ATOM      3  N   UNL     1      -2.090  -0.657  -1.144  0.00  0.00    -0.311 N 
ATOM      4  H   UNL     1      -1.669  -0.416  -1.984  0.00  0.00    +0.149 HD
ENDROOT
BRANCH   3   5
ATOM      5  C   UNL     1      -3.465  -1.164  -1.134  0.00  0.00    +0.073 C 
ATOM      6  C   UNL     1      -4.432  -0.010  -0.867  0.00  0.00    +0.022 C 
ATOM      7  C   UNL     1      -5.852  -0.437  -1.244  0.00  0.00    +0.002 C 
ATOM      8  C   UNL     1      -6.409  -1.366  -0.162  0.00  0.00    +0.000 C 
ATOM      9  C   UNL     1      -5.780  -2.752  -0.308  0.00  0.00    +0.000 C 
ATOM     10  C   UNL     1      -5.761  -3.152  -1.785  0.00  0.00    +0.000 C 
ATOM     11  C   UNL     1      -4.314  -3.216  -2.278  0.00  0.00    +0.002 C 
ATOM     12  C   UNL     1      -3.785  -1.796  -2.490  0.00  0.00    +0.022 C 
ENDBRANCH   3   5
BRANCH   1  14
ATOM     13  C   UNL     1      -0.019   1.526   0.010  0.00  0.00    +0.041 C 
ATOM     14  C   UNL     1       0.002  -0.004   0.002  0.00  0.00    +0.106 C 
ATOM     15  C   UNL     1       0.742  -0.511   1.242  0.00  0.00    +0.041 C 
BRANCH  14  16
ATOM     16  N   UNL     1       0.688  -0.476  -1.203  0.00  0.00    -0.286 N 
ATOM     17  C   UNL     1       1.972  -0.132  -1.427  0.00  0.00    +0.300 C 
ATOM     18  O   UNL     1       2.561   0.570  -0.628  0.00  0.00    -0.253 OA
ATOM     19  N   UNL     1       2.602  -0.567  -2.536  0.00  0.00    -0.302 N 
ATOM     20  C   UNL     1       3.998  -0.193  -2.779  0.00  0.00    +0.129 C 
ATOM     21  H   UNL     1       0.218  -1.037  -1.840  0.00  0.00    +0.151 HD
ATOM     22  H   UNL     1       2.132  -1.127  -3.173  0.00  0.00    +0.150 HD
ENDBRANCH  14  16
ENDBRANCH   1  14
TORSDOF 3
