REMARK  Name = ZINC64254597
REMARK  5 active torsions:
REMARK  status: ('A' for Active; 'I' for Inactive)
REMARK    1  A    between atoms: C_3  and  N_9
REMARK    2  A    between atoms: N_9  and  N_10
REMARK    3  A    between atoms: N_13  and  C_14
REMARK    4  A    between atoms: N_17  and  C_20
REMARK    5  A    between atoms: C_20  and  C_21
REMARK                            x       y       z     vdW  Elec       q    Type
REMARK                         _______ _______ _______ _____ _____    ______ ____
ROOT
ATOM      1  N   UNL     1       3.592   3.356  -0.103  0.00  0.00    -0.220 N 
ATOM      2  C   UNL     1       4.731   4.077  -0.119  0.00  0.00    +0.316 C 
ATOM      3  O   UNL     1       4.681   5.291  -0.173  0.00  0.00    -0.251 OA
ATOM      4  N   UNL     1       5.925   3.453  -0.076  0.00  0.00    -0.296 N 
ATOM      5  H   UNL     1       2.733   3.805  -0.134  0.00  0.00    +0.174 HD
ATOM      6  H   UNL     1       5.965   2.485  -0.033  0.00  0.00    +0.151 HD
ENDROOT
BRANCH   4   7
ATOM      7  C   UNL     1       7.162   4.237  -0.093  0.00  0.00    +0.071 C 
ATOM      8  C   UNL     1       7.552   4.547  -1.542  0.00  0.00    +0.004 C 
ATOM      9  C   UNL     1       8.885   5.297  -1.556  0.00  0.00    -0.077 C 
ATOM     10  N   UNL     1       9.924   4.466  -0.935  0.00  0.00    +0.383 N 
ATOM     11  C   UNL     1       9.593   4.226   0.474  0.00  0.00    -0.077 C 
ATOM     12  C   UNL     1       8.286   3.435   0.567  0.00  0.00    +0.004 C 
ATOM     13  H   UNL     1       9.984   3.584  -1.421  0.00  0.00    -0.082 HD
BRANCH  10  14
ATOM     14  C   UNL     1      11.218   5.158  -1.021  0.00  0.00    -0.006 C 
BRANCH  14  15
ATOM     15  C   UNL     1      11.657   5.238  -2.485  0.00  0.00    +0.325 C 
ATOM     16  F   UNL     1      11.639   3.957  -3.048  0.00  0.00    -0.211 F 
ATOM     17  F   UNL     1      10.780   6.069  -3.189  0.00  0.00    -0.211 F 
ENDBRANCH  14  15
ENDBRANCH  10  14
ENDBRANCH   4   7
BRANCH   1  18
ATOM     18  N   UNL     1       3.650   1.957  -0.041  0.00  0.00    -0.262 N 
ATOM     19  H   UNL     1       4.509   1.508  -0.010  0.00  0.00    +0.170 HD
BRANCH  18  22
ATOM     20  C   UNL     1       0.073   1.109  -0.053  0.00  0.00    +0.040 A 
ATOM     21  C   UNL     1       1.238   1.850  -0.069  0.00  0.00    +0.028 A 
ATOM     22  C   UNL     1       2.469   1.209  -0.025  0.00  0.00    +0.059 A 
ATOM     23  C   UNL     1       2.525  -0.179   0.036  0.00  0.00    +0.043 A 
ATOM     24  C   UNL     1       1.356  -0.916   0.052  0.00  0.00    +0.055 A 
ATOM     25  C   UNL     1       0.130  -0.273   0.008  0.00  0.00    +0.125 A 
ATOM     26  F   UNL     1      -1.011  -0.996   0.024  0.00  0.00    -0.205 F 
ATOM     27 BR   UNL     1       4.199  -1.056   0.096  0.00  0.00    -0.048 Br
ENDBRANCH  18  22
ENDBRANCH   1  18
TORSDOF 5
