REMARK  Name = ZINC13541427
REMARK  4 active torsions:
REMARK  status: ('A' for Active; 'I' for Inactive)
REMARK    1  A    between atoms: C_1  and  C_2
REMARK    2  A    between atoms: C_2  and  C_4
REMARK    3  A    between atoms: C_7  and  N_10
REMARK    4  A    between atoms: C_12  and  C_21
REMARK                            x       y       z     vdW  Elec       q    Type
REMARK                         _______ _______ _______ _____ _____    ______ ____
ROOT
ATOM      1  N   UNL     1      -6.243   2.428   1.167  0.00  0.00    -0.213 NA
ATOM      2  C   UNL     1      -6.913   2.300   0.039  0.00  0.00    +0.233 A 
ATOM      3  C   UNL     1      -8.350   2.625  -0.036  0.00  0.00    +0.099 A 
ATOM      4  C   UNL     1      -8.857   2.992  -1.274  0.00  0.00    +0.030 A 
ATOM      5  C   UNL     1      -7.972   3.000  -2.384  0.00  0.00    +0.018 A 
ATOM      6  C   UNL     1      -8.377   3.536  -3.614  0.00  0.00    +0.011 A 
ATOM      7  C   UNL     1      -7.503   3.566  -4.663  0.00  0.00    +0.001 A 
ATOM      8  C   UNL     1      -6.219   3.058  -4.526  0.00  0.00    +0.004 A 
ATOM      9  C   UNL     1      -5.808   2.501  -3.332  0.00  0.00    +0.047 A 
ATOM     10  C   UNL     1      -6.681   2.453  -2.255  0.00  0.00    +0.138 A 
ATOM     11  O   UNL     1      -6.304   1.870  -1.095  0.00  0.00    -0.437 OA
ENDROOT
BRANCH   1  15
ATOM     12  C   UNL     1      -2.163   1.816   1.223  0.00  0.00    +0.017 A 
ATOM     13  C   UNL     1      -3.035   0.765   1.544  0.00  0.00    +0.013 A 
ATOM     14  C   UNL     1      -4.382   0.970   1.532  0.00  0.00    +0.028 A 
ATOM     15  C   UNL     1      -4.897   2.226   1.185  0.00  0.00    +0.068 A 
ATOM     16  C   UNL     1      -4.027   3.275   0.858  0.00  0.00    +0.028 A 
ATOM     17  C   UNL     1      -2.679   3.074   0.877  0.00  0.00    +0.013 A 
BRANCH  12  19
ATOM     18  C   UNL     1      -0.160   0.248   1.615  0.00  0.00    +0.091 C 
ATOM     19  C   UNL     1      -0.714   1.599   1.243  0.00  0.00    +0.160 C 
ATOM     20  O   UNL     1       0.040   2.507   0.961  0.00  0.00    -0.292 OA
ENDBRANCH  12  19
ENDBRANCH   1  15
BRANCH   3  21
ATOM     21  C   UNL     1      -9.212   2.564   1.157  0.00  0.00    +0.247 C 
ATOM     22  O   UNL     1      -8.742   2.240   2.231  0.00  0.00    -0.270 OA
ATOM     23  N   UNL     1     -10.522   2.866   1.058  0.00  0.00    -0.325 N 
ATOM     24  H   UNL     1     -10.897   3.125   0.202  0.00  0.00    +0.145 HD
ATOM     25  H   UNL     1     -11.090   2.826   1.844  0.00  0.00    +0.145 HD
ENDBRANCH   3  21
TORSDOF 3
