REMARK  Name = ZINC65369772
REMARK  5 active torsions:
REMARK  status: ('A' for Active; 'I' for Inactive)
REMARK    1  A    between atoms: C_4  and  C_7
REMARK    2  A    between atoms: C_9  and  C_21
REMARK    3  A    between atoms: N_11  and  C_14
REMARK    4  A    between atoms: C_14  and  C_15
REMARK    5  A    between atoms: C_24  and  N_27
REMARK                            x       y       z     vdW  Elec       q    Type
REMARK                         _______ _______ _______ _____ _____    ______ ____
ROOT
ATOM      1  C   UNL     1       3.711  -0.707  -0.038  0.00  0.00    +0.073 C 
ATOM      2  C   UNL     1       4.054  -1.218   1.375  0.00  0.00    -0.014 C 
ATOM      3  N   UNL     1       4.130  -2.694   1.258  0.00  0.00    +0.398 N 
ATOM      4  C   UNL     1       4.426  -2.937  -0.178  0.00  0.00    +0.007 C 
ATOM      5  N   UNL     1       3.610  -1.917  -0.888  0.00  0.00    -0.327 NA
ATOM      6  H   UNL     1       2.651  -2.218  -0.976  0.00  0.00    +0.120 HD
ATOM      7  H   UNL     1       3.248  -3.113   1.512  0.00  0.00    -0.078 HD
ENDROOT
BRANCH   1  11
ATOM      8  C   UNL     1      -0.017   1.378   0.010  0.00  0.00    +0.000 A 
ATOM      9  C   UNL     1       1.171   2.086   0.002  0.00  0.00    +0.000 A 
ATOM     10  C   UNL     1       2.377   1.411  -0.013  0.00  0.00    +0.005 A 
ATOM     11  C   UNL     1       2.396   0.029  -0.020  0.00  0.00    -0.032 A 
ATOM     12  C   UNL     1       1.208  -0.679  -0.012  0.00  0.00    +0.005 A 
ATOM     13  C   UNL     1       0.002  -0.004   0.002  0.00  0.00    +0.000 A 
ENDBRANCH   1  11
BRANCH   2  14
ATOM     14  C   UNL     1       2.972  -0.827   2.347  0.00  0.00    -0.059 A 
ATOM     15  C   UNL     1       1.793  -1.548   2.395  0.00  0.00    +0.004 A 
ATOM     16  C   UNL     1       0.799  -1.191   3.285  0.00  0.00    +0.028 A 
ATOM     17  C   UNL     1       0.985  -0.107   4.133  0.00  0.00    +0.065 A 
ATOM     18  C   UNL     1       2.170   0.615   4.083  0.00  0.00    +0.028 A 
ATOM     19  C   UNL     1       3.162   0.250   3.195  0.00  0.00    +0.004 A 
BRANCH  17  20
ATOM     20  N   UNL     1      -0.023   0.258   5.037  0.00  0.00    -0.240 N 
ATOM     21  C   UNL     1       0.027   1.290   5.910  0.00  0.00    +0.114 A 
ATOM     22  C   UNL     1      -1.138   1.303   6.598  0.00  0.00    +0.041 A 
ATOM     23  C   UNL     1      -1.926   0.246   6.131  0.00  0.00    +0.135 A 
ATOM     24  N   UNL     1      -1.261  -0.378   5.192  0.00  0.00    -0.175 NA
ENDBRANCH  17  20
ENDBRANCH   2  14
BRANCH   3  25
ATOM     25  C   UNL     1       5.213  -3.220   2.100  0.00  0.00    +0.003 C 
BRANCH  25  26
ATOM     26  C   UNL     1       5.192  -4.726   2.061  0.00  0.00    +0.135 A 
ATOM     27  H   UNL     1       4.437  -7.629   2.899  0.00  0.00    +0.190 HD
ATOM     28  N   UNL     1       5.852  -5.487   1.188  0.00  0.00    -0.222 NA
ATOM     29  C   UNL     1       5.617  -6.750   1.434  0.00  0.00    +0.216 A 
ATOM     30  N   UNL     1       4.786  -6.823   2.488  0.00  0.00    -0.265 N 
ATOM     31  N   UNL     1       4.530  -5.499   2.881  0.00  0.00    -0.160 NA
ENDBRANCH  25  26
ENDBRANCH   3  25
TORSDOF 5
