REMARK  Name = ZINC39980677
REMARK  5 active torsions:
REMARK  status: ('A' for Active; 'I' for Inactive)
REMARK    1  A    between atoms: C_1  and  C_2
REMARK    2  A    between atoms: C_8  and  C_14
REMARK    3  A    between atoms: C_16  and  N_26
REMARK    4  A    between atoms: N_26  and  C_27
REMARK    5  A    between atoms: C_27  and  C_28
REMARK                            x       y       z     vdW  Elec       q    Type
REMARK                         _______ _______ _______ _____ _____    ______ ____
ROOT
ATOM      1  C   UNL     1      -1.262  -2.467   4.380  0.00  0.00    +0.158 C 
ATOM      2  C   UNL     1      -1.149  -1.993   5.841  0.00  0.00    +0.173 C 
ATOM      3  N   UNL     1      -1.026  -3.248   6.603  0.00  0.00    -0.272 N 
ATOM      4  C   UNL     1      -0.895  -3.455   7.946  0.00  0.00    +0.098 C 
ATOM      5  C   UNL     1      -0.796  -4.704   8.448  0.00  0.00    +0.055 C 
ATOM      6  C   UNL     1      -0.828  -5.813   7.585  0.00  0.00    +0.024 C 
ATOM      7  C   UNL     1      -0.958  -5.624   6.249  0.00  0.00    +0.045 C 
ATOM      8  C   UNL     1      -1.062  -4.303   5.729  0.00  0.00    +0.122 C 
ATOM      9  N   UNL     1      -1.194  -3.929   4.470  0.00  0.00    -0.261 NA
ATOM     10 CL   UNL     1      -0.630  -4.940  10.160  0.00  0.00    -0.082 Cl
ENDROOT
BRANCH   1  18
ATOM     11  C   UNL     1       2.089  -4.441  -0.368  0.00  0.00    +0.045 C 
ATOM     12  C   UNL     1       2.451  -4.194   1.074  0.00  0.00    -0.029 A 
ATOM     13  C   UNL     1       3.605  -4.705   1.577  0.00  0.00    +0.005 A 
ATOM     14  C   UNL     1       3.999  -4.513   2.901  0.00  0.00    +0.001 A 
ATOM     15  C   UNL     1       3.239  -3.795   3.768  0.00  0.00    +0.009 A 
ATOM     16  C   UNL     1       1.982  -3.216   3.292  0.00  0.00    -0.007 A 
ATOM     17  C   UNL     1       1.187  -2.489   4.127  0.00  0.00    -0.003 C 
ATOM     18  C   UNL     1      -0.097  -1.927   3.549  0.00  0.00    +0.126 C 
ATOM     19  C   UNL     1      -0.391  -2.218   2.095  0.00  0.00    +0.226 C 
ATOM     20  O   UNL     1      -1.407  -1.792   1.580  0.00  0.00    -0.275 OA
ATOM     21  N   UNL     1       0.461  -2.939   1.385  0.00  0.00    -0.284 N 
ATOM     22  C   UNL     1       1.594  -3.431   1.888  0.00  0.00    +0.043 A 
ATOM     23  H   UNL     1       0.254  -3.115   0.454  0.00  0.00    +0.155 HD
ENDBRANCH   1  18
BRANCH   2  24
ATOM     24  N   UNL     1       0.045  -1.156   6.021  0.00  0.00    -0.289 NA
ATOM     25  H   UNL     1       0.786  -1.675   6.469  0.00  0.00    +0.124 HD
BRANCH  24  26
ATOM     26  C   UNL     1      -0.276   0.062   6.776  0.00  0.00    +0.157 C 
BRANCH  26  27
ATOM     27  C   UNL     1       0.971   0.894   6.941  0.00  0.00    +0.119 A 
ATOM     28  C   UNL     1       1.395   1.851   6.096  0.00  0.00    +0.046 A 
ATOM     29  C   UNL     1       2.596   2.368   6.634  0.00  0.00    +0.041 A 
ATOM     30  C   UNL     1       2.833   1.696   7.775  0.00  0.00    +0.195 A 
ATOM     31  O   UNL     1       1.842   0.809   7.959  0.00  0.00    -0.467 OA
ENDBRANCH  26  27
ENDBRANCH  24  26
ENDBRANCH   2  24
TORSDOF 4
