REMARK  Name = ZINC16693824
REMARK  5 active torsions:
REMARK  status: ('A' for Active; 'I' for Inactive)
REMARK    1  A    between atoms: C_1  and  C_2
REMARK    2  A    between atoms: C_3  and  C_29
REMARK    3  A    between atoms: N_6  and  C_28
REMARK    4  A    between atoms: C_10  and  N_11
REMARK    5  A    between atoms: N_11  and  N_12
REMARK                            x       y       z     vdW  Elec       q    Type
REMARK                         _______ _______ _______ _____ _____    ______ ____
ROOT
ATOM      1  N   UNL     1      -0.158  -0.086   4.806  0.00  0.00    -0.150 N 
ATOM      2  C   UNL     1       0.938   0.511   5.311  0.00  0.00    +0.270 C 
ATOM      3  O   UNL     1       1.991   0.457   4.704  0.00  0.00    -0.268 OA
ATOM      4  C   UNL     1       0.870   1.229   6.592  0.00  0.00    +0.047 A 
ATOM      5  C   UNL     1       1.974   1.857   7.149  0.00  0.00    +0.014 A 
ATOM      6  C   UNL     1       1.861   2.523   8.363  0.00  0.00    +0.001 A 
ATOM      7  C   UNL     1       0.675   2.579   9.039  0.00  0.00    +0.009 A 
ATOM      8  C   UNL     1      -0.467   1.956   8.510  0.00  0.00    -0.002 A 
ATOM      9  C   UNL     1      -0.365   1.277   7.278  0.00  0.00    +0.008 A 
ATOM     10  C   UNL     1      -1.496   0.639   6.718  0.00  0.00    +0.047 A 
ATOM     11  C   UNL     1      -2.706   0.690   7.396  0.00  0.00    +0.015 A 
ATOM     12  C   UNL     1      -2.800   1.362   8.608  0.00  0.00    +0.016 A 
ATOM     13  C   UNL     1      -1.710   1.987   9.169  0.00  0.00    +0.026 A 
ATOM     14 BR   UNL     1      -1.882   2.888  10.823  0.00  0.00    -0.050 Br
ATOM     15  C   UNL     1      -1.350  -0.055   5.431  0.00  0.00    +0.270 C 
ATOM     16  O   UNL     1      -2.310  -0.607   4.929  0.00  0.00    -0.268 OA
ENDROOT
BRANCH   1  17
ATOM     17  N   UNL     1      -0.055  -0.760   3.582  0.00  0.00    -0.261 N 
ATOM     18  H   UNL     1      -0.042  -1.730   3.562  0.00  0.00    +0.170 HD
BRANCH  17  28
ATOM     19  C   UNL     1      -0.214   1.429  -0.025  0.00  0.00    +0.046 C 
ATOM     20  C   UNL     1       0.140  -0.036   0.004  0.00  0.00    -0.015 C 
ATOM     21  C   UNL     1       0.374  -0.730  -1.174  0.00  0.00    +0.118 C 
ATOM     22  C   UNL     1       0.716  -2.152  -1.120  0.00  0.00    +0.263 C 
ATOM     23  O   UNL     1       0.921  -2.761  -2.154  0.00  0.00    -0.269 OA
ATOM     24  N   UNL     1       0.807  -2.794   0.058  0.00  0.00    -0.237 N 
ATOM     25  C   UNL     1       0.588  -2.155   1.222  0.00  0.00    +0.254 C 
ATOM     26  O   UNL     1       0.678  -2.763   2.272  0.00  0.00    -0.270 OA
ATOM     27  C   UNL     1       0.247  -0.727   1.232  0.00  0.00    +0.057 C 
ATOM     28  C   UNL     1       0.026  -0.063   2.435  0.00  0.00    +0.101 C 
ATOM     29  C   UNL     1       1.153  -4.217   0.075  0.00  0.00    +0.142 C 
BRANCH  21  30
ATOM     30  C   UNL     1       0.280  -0.059  -2.436  0.00  0.00    +0.105 C 
ATOM     31  N   UNL     1       0.205   0.473  -3.437  0.00  0.00    -0.191 NA
ENDBRANCH  21  30
ENDBRANCH  17  28
ENDBRANCH   1  17
TORSDOF 3
