REMARK  Name = ZINC49236938
REMARK  6 active torsions:
REMARK  status: ('A' for Active; 'I' for Inactive)
REMARK    1  A    between atoms: C_1  and  C_2
REMARK    2  A    between atoms: C_5  and  C_9
REMARK    3  A    between atoms: C_7  and  N_8
REMARK    4  A    between atoms: N_13  and  C_14
REMARK    5  A    between atoms: C_14  and  C_15
REMARK    6  A    between atoms: C_14  and  C_18
REMARK                            x       y       z     vdW  Elec       q    Type
REMARK                         _______ _______ _______ _____ _____    ______ ____
ROOT
ATOM      1  C   UNL     1       0.184  -4.263  -0.010  0.00  0.00    +0.182 A 
ATOM      2  N   UNL     1      -0.043  -5.055   1.017  0.00  0.00    -0.108 NA
ATOM      3  N   UNL     1      -0.114  -6.279   0.634  0.00  0.00    -0.023 NA
ATOM      4  N   UNL     1       0.059  -6.361  -0.640  0.00  0.00    -0.043 NA
ATOM      5  N   UNL     1       0.254  -5.051  -1.111  0.00  0.00    -0.221 N 
ENDROOT
BRANCH   1  10
ATOM      6  C   UNL     1       0.741   1.469   0.130  0.00  0.00    +0.045 C 
ATOM      7  C   UNL     1       0.596  -0.030   0.095  0.00  0.00    -0.030 A 
ATOM      8  C   UNL     1       0.032  -0.643  -1.008  0.00  0.00    +0.006 A 
ATOM      9  C   UNL     1      -0.104  -2.016  -1.047  0.00  0.00    +0.012 A 
ATOM     10  C   UNL     1       0.329  -2.791   0.030  0.00  0.00    +0.022 A 
ATOM     11  C   UNL     1       0.897  -2.174   1.142  0.00  0.00    +0.034 A 
ATOM     12  C   UNL     1       1.035  -0.794   1.170  0.00  0.00    +0.028 A 
BRANCH  12  13
ATOM     13  N   UNL     1       1.609  -0.171   2.281  0.00  0.00    -0.358 N 
ATOM     14  H   UNL     1       1.702   0.794   2.302  0.00  0.00    +0.142 HD
ATOM     15  H   UNL     1       1.916  -0.704   3.031  0.00  0.00    +0.142 HD
ENDBRANCH  12  13
ENDBRANCH   1  10
BRANCH   5  16
ATOM     16  C   UNL     1       0.485  -4.628  -2.494  0.00  0.00    +0.117 C 
BRANCH  16  17
ATOM     17  C   UNL     1       1.780  -5.259  -3.011  0.00  0.00    +0.014 C 
ATOM     18  C   UNL     1       2.965  -4.327  -3.271  0.00  0.00    +0.006 C 
ATOM     19  C   UNL     1       2.199  -4.936  -4.447  0.00  0.00    +0.006 C 
ENDBRANCH  16  17
BRANCH  16  20
ATOM     20  C   UNL     1      -0.686  -5.079  -3.369  0.00  0.00    +0.014 C 
ATOM     21  C   UNL     1      -1.355  -4.025  -4.254  0.00  0.00    +0.006 C 
ATOM     22  C   UNL     1      -2.078  -4.553  -3.013  0.00  0.00    +0.006 C 
ENDBRANCH  16  20
ENDBRANCH   5  16
TORSDOF 5
