REMARK  Name = ZINC38853510
REMARK  8 active torsions:
REMARK  status: ('A' for Active; 'I' for Inactive)
REMARK    1  A    between atoms: C_1  and  C_2
REMARK    2  A    between atoms: C_2  and  C_3
REMARK    3  A    between atoms: C_2  and  C_4
REMARK    4  A    between atoms: C_2  and  C_5
REMARK    5  A    between atoms: N_11  and  S_27
REMARK    6  A    between atoms: C_13  and  C_16
REMARK    7  A    between atoms: N_18  and  C_19
REMARK    8  A    between atoms: S_27  and  C_30
REMARK                            x       y       z     vdW  Elec       q    Type
REMARK                         _______ _______ _______ _____ _____    ______ ____
ROOT
ATOM      1  C   UNL     1       0.526   0.376  -1.646  0.00  0.00    -0.040 A 
ATOM      2  C   UNL     1      -0.171  -0.402  -2.552  0.00  0.00    +0.008 A 
ATOM      3  C   UNL     1       0.503  -1.099  -3.537  0.00  0.00    +0.048 A 
ATOM      4  C   UNL     1       1.885  -1.021  -3.621  0.00  0.00    +0.144 A 
ATOM      5  C   UNL     1       2.586  -0.239  -2.706  0.00  0.00    +0.093 A 
ATOM      6  C   UNL     1       1.904   0.463  -1.724  0.00  0.00    +0.032 A 
ATOM      7  N   UNL     1       3.985  -0.164  -2.782  0.00  0.00    -0.200 N 
ATOM      8  C   UNL     1       4.632  -0.660  -4.008  0.00  0.00    +0.185 C 
ATOM      9  C   UNL     1       3.932  -1.968  -4.405  0.00  0.00    +0.278 C 
ATOM     10  O   UNL     1       2.540  -1.706  -4.596  0.00  0.00    -0.476 OA
ENDROOT
BRANCH   1  12
ATOM     11  C   UNL     1       0.051   2.632  -0.734  0.00  0.00    +0.015 C 
ATOM     12  C   UNL     1      -0.217   1.134  -0.576  0.00  0.00    -0.013 C 
ATOM     13  C   UNL     1       0.262   0.672   0.802  0.00  0.00    +0.015 C 
ATOM     14  C   UNL     1      -1.717   0.867  -0.711  0.00  0.00    +0.015 C 
ENDBRANCH   1  12
BRANCH   9  15
ATOM     15  C   UNL     1       4.530  -2.492  -5.685  0.00  0.00    +0.260 C 
ATOM     16  O   UNL     1       3.853  -2.555  -6.690  0.00  0.00    -0.271 OA
ATOM     17  N   UNL     1       5.817  -2.892  -5.714  0.00  0.00    -0.282 N 
ATOM     18  H   UNL     1       6.334  -2.922  -4.893  0.00  0.00    +0.155 HD
BRANCH  17  19
ATOM     19  C   UNL     1       6.408  -3.263  -6.928  0.00  0.00    +0.035 A 
ATOM     20  C   UNL     1       7.378  -4.257  -6.953  0.00  0.00    +0.026 A 
ATOM     21  C   UNL     1       7.960  -4.622  -8.151  0.00  0.00    +0.041 A 
ATOM     22  C   UNL     1       7.577  -3.999  -9.327  0.00  0.00    +0.142 A 
ATOM     23  C   UNL     1       6.610  -3.007  -9.304  0.00  0.00    +0.078 A 
ATOM     24  C   UNL     1       6.021  -2.643  -8.107  0.00  0.00    +0.046 A 
ATOM     25 CL   UNL     1       6.132  -2.227 -10.779  0.00  0.00    -0.081 Cl
ATOM     26  F   UNL     1       8.149  -4.357 -10.498  0.00  0.00    -0.204 F 
ENDBRANCH  17  19
ENDBRANCH   9  15
BRANCH   7  27
ATOM     27  S   UNL     1       4.878   0.462  -1.535  0.00  0.00    +0.043 S 
ATOM     28  O   UNL     1       4.172   0.088  -0.360  0.00  0.00    -0.155 OA
ATOM     29  O   UNL     1       6.200  -0.006  -1.766  0.00  0.00    -0.155 OA
ATOM     30  C   UNL     1       4.803   2.260  -1.764  0.00  0.00    +0.218 C 
ENDBRANCH   7  27
TORSDOF 4
