REMARK  Name = ZINC09229791
REMARK  10 active torsions:
REMARK  status: ('A' for Active; 'I' for Inactive)
REMARK    1  A    between atoms: C_1  and  C_2
REMARK    2  A    between atoms: C_2  and  C_3
REMARK    3  A    between atoms: C_4  and  C_28
REMARK    4  A    between atoms: C_6  and  N_11
REMARK    5  A    between atoms: C_7  and  C_8
REMARK    6  A    between atoms: N_11  and  C_12
REMARK    7  A    between atoms: C_12  and  N_14
REMARK    8  A    between atoms: C_15  and  C_17
REMARK    9  A    between atoms: C_18  and  C_19
REMARK   10  A    between atoms: C_22  and  N_25
REMARK                            x       y       z     vdW  Elec       q    Type
REMARK                         _______ _______ _______ _____ _____    ______ ____
ROOT
ATOM      1  C   UNL     1      -0.935   3.568   0.026  0.00  0.00    +0.141 C 
ATOM      2  S   UNL     1       0.648   4.219   0.022  0.00  0.00    -0.018 S 
ENDROOT
BRANCH   1   3
ATOM      3  N   UNL     1      -2.003   4.391   0.036  0.00  0.00    -0.264 N 
ATOM      4  C   UNL     1      -1.824   5.726   0.042  0.00  0.00    +0.242 C 
ATOM      5  O   UNL     1      -0.699   6.190   0.039  0.00  0.00    -0.270 OA
ATOM      6  H   UNL     1      -2.900   4.021   0.038  0.00  0.00    +0.157 HD
BRANCH   4   7
ATOM      7  C   UNL     1      -2.982   6.620   0.053  0.00  0.00    +0.068 C 
ATOM      8  C   UNL     1      -2.804   7.957   0.059  0.00  0.00    +0.013 C 
BRANCH   8   9
ATOM      9  C   UNL     1      -3.969   8.855   0.070  0.00  0.00    -0.025 A 
ATOM     10  C   UNL     1      -5.264   8.327   0.068  0.00  0.00    +0.010 A 
ATOM     11  C   UNL     1      -6.351   9.175   0.084  0.00  0.00    +0.033 A 
ATOM     12  C   UNL     1      -6.163  10.546   0.091  0.00  0.00    +0.126 A 
ATOM     13  C   UNL     1      -4.885  11.077   0.087  0.00  0.00    +0.033 A 
ATOM     14  C   UNL     1      -3.788  10.242   0.077  0.00  0.00    +0.010 A 
BRANCH  12  15
ATOM     15  N   UNL     1      -7.335  11.450   0.102  0.00  0.00    +0.056 N 
ATOM     16  O   UNL     1      -7.174  12.657   0.107  0.00  0.00    -0.126 OA
ATOM     17  O   UNL     1      -8.462  10.986   0.105  0.00  0.00    -0.126 OA
ENDBRANCH  12  15
ENDBRANCH   8   9
ENDBRANCH   4   7
ENDBRANCH   1   3
BRANCH   1  18
ATOM     18  N   UNL     1      -1.114   2.232   0.020  0.00  0.00    -0.291 N 
ATOM     19  H   UNL     1      -2.011   1.863   0.022  0.00  0.00    +0.154 HD
BRANCH  18  23
ATOM     20  C   UNL     1       1.300  -0.635  -0.014  0.00  0.00    -0.024 A 
ATOM     21  C   UNL     1       2.376   0.172  -0.020  0.00  0.00    -0.008 A 
ATOM     22  S   UNL     1       1.663   1.804  -0.004  0.00  0.00    -0.078 S 
ATOM     23  C   UNL     1      -0.017   1.386   0.010  0.00  0.00    +0.084 A 
ATOM     24  C   UNL     1       0.002  -0.004   0.002  0.00  0.00    +0.068 A 
ATOM     25  C   UNL     1       3.833  -0.212  -0.035  0.00  0.00    +0.052 C 
BRANCH  24  26
ATOM     26  C   UNL     1      -1.235  -0.790   0.010  0.00  0.00    +0.244 C 
ATOM     27  O   UNL     1      -1.759  -1.111  -1.041  0.00  0.00    -0.270 OA
ATOM     28  N   UNL     1      -1.793  -1.157   1.181  0.00  0.00    -0.325 N 
ATOM     29  H   UNL     1      -1.375  -0.901   2.018  0.00  0.00    +0.145 HD
ATOM     30  H   UNL     1      -2.611  -1.677   1.186  0.00  0.00    +0.145 HD
ENDBRANCH  24  26
BRANCH  20  32
ATOM     31  C   UNL     1       1.479  -2.636  -1.468  0.00  0.00    +0.009 C 
ATOM     32  C   UNL     1       1.444  -2.135  -0.023  0.00  0.00    +0.033 C 
ENDBRANCH  20  32
ENDBRANCH  18  23
ENDBRANCH   1  18
TORSDOF 8
