REMARK  Name = ZINC39394585
REMARK  4 active torsions:
REMARK  status: ('A' for Active; 'I' for Inactive)
REMARK    1  A    between atoms: C_6  and  C_7
REMARK    2  A    between atoms: C_11  and  C_13
REMARK    3  A    between atoms: C_13  and  N_14
REMARK    4  A    between atoms: C_21  and  C_26
REMARK                            x       y       z     vdW  Elec       q    Type
REMARK                         _______ _______ _______ _____ _____    ______ ____
ROOT
ATOM      1  N   UNL     1      -0.854  -4.338  -1.307  0.00  0.00    -0.300 NA
ATOM      2  C   UNL     1       0.037  -4.864  -2.373  0.00  0.00    +0.087 C 
ATOM      3  C   UNL     1      -0.217  -6.327  -2.663  0.00  0.00    +0.051 C 
ATOM      4  C   UNL     1      -0.441  -7.100  -1.366  0.00  0.00    +0.141 C 
ATOM      5  N   UNL     1       0.053  -8.489  -1.493  0.00  0.00    -0.238 NA
ATOM      6  N   UNL     1      -0.804  -9.267  -0.591  0.00  0.00    -0.236 NA
ATOM      7  C   UNL     1      -2.062  -8.507  -0.434  0.00  0.00    +0.169 C 
ATOM      8  N   UNL     1      -1.926  -7.278  -1.250  0.00  0.00    -0.266 NA
ATOM      9  C   UNL     1      -2.476  -6.091  -0.652  0.00  0.00    +0.103 C 
ATOM     10  C   UNL     1      -2.224  -4.819  -1.453  0.00  0.00    +0.100 C 
ATOM     11  H   UNL     1      -0.030  -8.817  -2.443  0.00  0.00    +0.142 HD
ATOM     12  H   UNL     1      -0.354  -9.411   0.300  0.00  0.00    +0.142 HD
ENDROOT
BRANCH   7  13
ATOM     13  C   UNL     1      -3.245  -9.344  -0.924  0.00  0.00    +0.151 C 
ATOM     14  C   UNL     1      -3.437 -10.569  -0.005  0.00  0.00    +0.037 C 
ATOM     15  C   UNL     1      -3.802 -11.688  -1.018  0.00  0.00    +0.031 C 
ATOM     16  C   UNL     1      -2.949 -11.267  -2.241  0.00  0.00    +0.160 C 
ATOM     17  O   UNL     1      -2.983  -9.829  -2.246  0.00  0.00    -0.374 OA
ENDBRANCH   7  13
BRANCH   1  18
ATOM     18  C   UNL     1      -0.813  -2.870  -1.264  0.00  0.00    +0.099 C 
BRANCH  18  23
ATOM     19  C   UNL     1       0.657  -0.902  -0.773  0.00  0.00    +0.080 C 
ATOM     20  N   UNL     1       0.805  -0.519   0.465  0.00  0.00    -0.153 NA
ATOM     21  N   UNL     1       0.812  -1.592   1.350  0.00  0.00    -0.161 NA
ATOM     22  C   UNL     1       0.671  -2.729   0.750  0.00  0.00    +0.118 C 
ATOM     23  C   UNL     1       0.544  -2.414  -0.727  0.00  0.00    +0.097 C 
BRANCH  19  29
ATOM     24  C   UNL     1       0.723   1.343  -1.842  0.00  0.00    +0.011 A 
ATOM     25  C   UNL     1       0.671   2.140  -2.965  0.00  0.00    +0.020 A 
ATOM     26  C   UNL     1       0.500   1.570  -4.216  0.00  0.00    +0.041 A 
ATOM     27  C   UNL     1       0.381   0.196  -4.348  0.00  0.00    +0.020 A 
ATOM     28  C   UNL     1       0.430  -0.614  -3.234  0.00  0.00    +0.011 A 
ATOM     29  C   UNL     1       0.603  -0.045  -1.968  0.00  0.00    -0.001 A 
ATOM     30 CL   UNL     1       0.435   2.582  -5.625  0.00  0.00    -0.084 Cl
ENDBRANCH  19  29
ENDBRANCH  18  23
ENDBRANCH   1  18
TORSDOF 4
