REMARK  Name = ZINC59135892
REMARK  10 active torsions:
REMARK  status: ('A' for Active; 'I' for Inactive)
REMARK    1  A    between atoms: C_1  and  C_2
REMARK    2  A    between atoms: C_2  and  O_3
REMARK    3  A    between atoms: O_3  and  C_4
REMARK    4  A    between atoms: C_6  and  C_21
REMARK    5  A    between atoms: C_8  and  C_18
REMARK    6  A    between atoms: C_9  and  O_10
REMARK    7  A    between atoms: O_10  and  C_11
REMARK    8  A    between atoms: C_11  and  C_12
REMARK    9  A    between atoms: C_18  and  C_19
REMARK   10  A    between atoms: N_28  and  C_31
REMARK                            x       y       z     vdW  Elec       q    Type
REMARK                         _______ _______ _______ _____ _____    ______ ____
ROOT
ATOM      1  C   UNL     1      -1.458  -2.471  -0.255  0.00  0.00    +0.163 A 
ATOM      2  C   UNL     1      -0.361  -3.306  -0.213  0.00  0.00    +0.057 A 
ATOM      3  C   UNL     1      -0.484  -4.588   0.348  0.00  0.00    -0.020 A 
ATOM      4  C   UNL     1      -1.722  -5.008   0.860  0.00  0.00    +0.015 A 
ATOM      5  C   UNL     1      -2.801  -4.173   0.813  0.00  0.00    +0.002 A 
ATOM      6  C   UNL     1      -2.682  -2.901   0.264  0.00  0.00    +0.166 A 
ENDROOT
BRANCH   3   7
ATOM      7  C   UNL     1       0.671  -5.481   0.397  0.00  0.00    +0.026 C 
ATOM      8  C   UNL     1       0.537  -6.809   0.027  0.00  0.00    +0.102 C 
ATOM      9  C   UNL     1      -0.678  -7.301  -0.643  0.00  0.00    +0.274 C 
ATOM     10  O   UNL     1      -1.702  -6.466  -0.918  0.00  0.00    -0.268 OA
ATOM     11  N   UNL     1      -0.742  -8.580  -0.969  0.00  0.00    -0.153 NA
ATOM     12  C   UNL     1       0.251  -9.427  -0.711  0.00  0.00    +0.171 C 
ATOM     13  S   UNL     1       0.061 -11.063  -1.178  0.00  0.00    -0.016 S 
ATOM     14  N   UNL     1       1.393  -9.069  -0.106  0.00  0.00    -0.213 N 
ATOM     15  C   UNL     1       1.607  -7.793   0.281  0.00  0.00    +0.262 C 
ATOM     16  O   UNL     1       2.646  -7.467   0.826  0.00  0.00    -0.269 OA
BRANCH  14  17
ATOM     17  C   UNL     1       2.384 -10.034   0.122  0.00  0.00    +0.078 A 
ATOM     18  C   UNL     1       3.367 -10.261  -0.831  0.00  0.00    +0.027 A 
ATOM     19  C   UNL     1       4.342 -11.213  -0.602  0.00  0.00    +0.002 A 
ATOM     20  C   UNL     1       4.341 -11.940   0.574  0.00  0.00    +0.003 A 
ATOM     21  C   UNL     1       3.363 -11.718   1.526  0.00  0.00    +0.040 A 
ATOM     22  C   UNL     1       2.387 -10.763   1.307  0.00  0.00    +0.145 A 
ATOM     23  F   UNL     1       1.435 -10.542   2.240  0.00  0.00    -0.204 F 
ENDBRANCH  14  17
ENDBRANCH   3   7
BRANCH   1  24
ATOM     24  O   UNL     1      -1.348  -1.228  -0.796  0.00  0.00    -0.489 OA
BRANCH  24  26
ATOM     25  C   UNL     1      -0.136   0.566  -1.871  0.00  0.00    +0.048 C 
ATOM     26  C   UNL     1      -0.067  -0.855  -1.307  0.00  0.00    +0.226 C 
ENDBRANCH  24  26
ENDBRANCH   1  24
BRANCH   6  27
ATOM     27  O   UNL     1      -3.759  -2.076   0.228  0.00  0.00    -0.483 OA
BRANCH  27  28
ATOM     28  C   UNL     1      -3.892  -1.136   1.295  0.00  0.00    +0.264 C 
BRANCH  28  29
ATOM     29  C   UNL     1      -5.074  -0.240   1.030  0.00  0.00    -0.010 A 
ATOM     30  C   UNL     1      -4.906   0.934   0.320  0.00  0.00    +0.007 A 
ATOM     31  C   UNL     1      -5.991   1.756   0.076  0.00  0.00    +0.000 A 
ATOM     32  C   UNL     1      -7.243   1.405   0.544  0.00  0.00    +0.000 A 
ATOM     33  C   UNL     1      -7.411   0.231   1.254  0.00  0.00    +0.000 A 
ATOM     34  C   UNL     1      -6.328  -0.594   1.493  0.00  0.00    +0.007 A 
ENDBRANCH  28  29
ENDBRANCH  27  28
ENDBRANCH   6  27
BRANCH   5  35
ATOM     35  C   UNL     1      -4.127  -4.629   1.364  0.00  0.00    +0.065 C 
BRANCH  35  36
ATOM     36  C   UNL     1      -4.984  -5.154   0.240  0.00  0.00    -0.030 C 
ATOM     37  C   UNL     1      -5.432  -6.384   0.278  0.00  0.00    +0.004 C 
ENDBRANCH  35  36
ENDBRANCH   5  35
TORSDOF 9
