REMARK  Name = ZINC65181634
REMARK  10 active torsions:
REMARK  status: ('A' for Active; 'I' for Inactive)
REMARK    1  A    between atoms: C_1  and  C_2
REMARK    2  A    between atoms: C_5  and  C_32
REMARK    3  A    between atoms: C_6  and  C_8
REMARK    4  A    between atoms: N_10  and  C_11
REMARK    5  A    between atoms: N_10  and  C_12
REMARK    6  A    between atoms: C_12  and  C_13
REMARK    7  A    between atoms: C_13  and  C_14
REMARK    8  A    between atoms: C_17  and  C_20
REMARK    9  A    between atoms: C_26  and  O_30
REMARK   10  A    between atoms: O_30  and  C_31
REMARK                            x       y       z     vdW  Elec       q    Type
REMARK                         _______ _______ _______ _____ _____    ______ ____
ROOT
ATOM      1  C   UNL     1       1.538  -3.726   6.719  0.00  0.00    +0.139 C 
ATOM      2  N   UNL     1       0.533  -4.224   7.341  0.00  0.00    -0.072 NA
ATOM      3  O   UNL     1       0.942  -4.874   8.530  0.00  0.00    -0.367 OA
ATOM      4  C   UNL     1       2.370  -4.729   8.598  0.00  0.00    +0.318 C 
ATOM      5  N   UNL     1       2.716  -3.972   7.384  0.00  0.00    -0.291 N 
ATOM      6  H   UNL     1       3.605  -3.698   7.107  0.00  0.00    +0.151 HD
ENDROOT
BRANCH   4   7
ATOM      7  C   UNL     1       3.049  -6.100   8.583  0.00  0.00    +0.165 C 
ATOM      8  C   UNL     1       4.549  -5.939   8.679  0.00  0.00    +0.012 C 
ATOM      9  C   UNL     1       4.924  -6.572   9.812  0.00  0.00    -0.004 A 
ATOM     10  C   UNL     1       6.230  -6.771  10.453  0.00  0.00    +0.013 A 
ATOM     11  C   UNL     1       6.295  -7.464  11.610  0.00  0.00    +0.046 A 
ATOM     12  C   UNL     1       5.143  -7.999  12.216  0.00  0.00    +0.122 A 
ATOM     13  C   UNL     1       3.903  -7.855  11.681  0.00  0.00    +0.071 A 
ATOM     14  C   UNL     1       3.725  -7.144  10.468  0.00  0.00    +0.046 A 
ATOM     15  N   UNL     1       2.649  -6.874   9.763  0.00  0.00    -0.373 N 
ATOM     16  H   UNL     1       1.743  -7.141   9.986  0.00  0.00    +0.160 HD
BRANCH  12  17
ATOM     17  O   UNL     1       5.276  -8.685  13.379  0.00  0.00    -0.495 OA
ATOM     18  C   UNL     1       6.596  -8.814  13.908  0.00  0.00    +0.277 C 
ENDBRANCH  12  17
ENDBRANCH   4   7
BRANCH   1  19
ATOM     19  C   UNL     1       1.441  -2.970   5.418  0.00  0.00    +0.094 C 
BRANCH  19  20
ATOM     20  C   UNL     1      -0.023  -2.894   4.981  0.00  0.00    +0.115 C 
BRANCH  20  23
ATOM     21  C   UNL     1      -0.037  -2.821   2.545  0.00  0.00    +0.247 C 
ATOM     22  O   UNL     1       0.035  -4.035   2.536  0.00  0.00    -0.270 OA
ATOM     23  N   UNL     1      -0.118  -2.160   3.717  0.00  0.00    -0.300 N 
ATOM     24  C   UNL     1      -0.300  -0.706   3.726  0.00  0.00    +0.132 C 
BRANCH  21  30
ATOM     25  C   UNL     1      -2.160   0.506  -0.507  0.00  0.00    +0.044 C 
ATOM     26  C   UNL     1      -1.054  -0.471  -0.201  0.00  0.00    -0.050 A 
ATOM     27  C   UNL     1      -0.035  -0.668  -1.116  0.00  0.00    +0.003 A 
ATOM     28  C   UNL     1       0.985  -1.562  -0.843  0.00  0.00    +0.004 A 
ATOM     29  C   UNL     1       0.990  -2.265   0.345  0.00  0.00    -0.038 A 
ATOM     30  C   UNL     1      -0.036  -2.071   1.271  0.00  0.00    +0.040 A 
ATOM     31  C   UNL     1      -1.058  -1.163   0.992  0.00  0.00    +0.016 A 
ATOM     32  C   UNL     1       2.100  -3.240   0.640  0.00  0.00    +0.044 C 
ENDBRANCH  21  30
ENDBRANCH  20  23
ENDBRANCH  19  20
ENDBRANCH   1  19
TORSDOF 6
