REMARK  Name = ZINC59816596
REMARK  8 active torsions:
REMARK  status: ('A' for Active; 'I' for Inactive)
REMARK    1  A    between atoms: C_1  and  C_2
REMARK    2  A    between atoms: C_2  and  C_4
REMARK    3  A    between atoms: C_2  and  S_10
REMARK    4  A    between atoms: N_6  and  C_7
REMARK    5  A    between atoms: C_7  and  C_8
REMARK    6  A    between atoms: S_10  and  C_11
REMARK    7  A    between atoms: N_16  and  N_17
REMARK    8  A    between atoms: C_18  and  C_19
REMARK                            x       y       z     vdW  Elec       q    Type
REMARK                         _______ _______ _______ _____ _____    ______ ____
ROOT
ATOM      1  C   UNL     1      -0.219  -0.106  -2.806  0.00  0.00    +0.211 A 
ATOM      2  N   UNL     1       0.011  -0.310  -4.108  0.00  0.00    -0.186 NA
ATOM      3  C   UNL     1      -0.954   0.235  -4.818  0.00  0.00    +0.232 A 
ATOM      4  N   UNL     1      -1.831   0.804  -3.964  0.00  0.00    -0.245 N 
ATOM      5  N   UNL     1      -1.337   0.566  -2.671  0.00  0.00    -0.144 NA
ATOM      6  N   UNL     1      -1.053   0.225  -6.197  0.00  0.00    -0.205 N 
ATOM      7  H   UNL     1      -1.806   0.655  -6.633  0.00  0.00    +0.177 HD
ATOM      8  H   UNL     1      -2.643   1.280  -4.197  0.00  0.00    +0.192 HD
ENDROOT
BRANCH   6   9
ATOM      9  N   UNL     1      -0.067  -0.407  -6.966  0.00  0.00    -0.188 NA
ATOM     10  C   UNL     1      -0.160  -0.416  -8.265  0.00  0.00    +0.139 C 
BRANCH  10  11
ATOM     11  C   UNL     1       0.872  -1.077  -9.069  0.00  0.00    +0.010 A 
ATOM     12  C   UNL     1       0.722  -1.192 -10.466  0.00  0.00    -0.009 A 
ATOM     13  C   UNL     1      -0.412  -0.680 -11.120  0.00  0.00    +0.009 A 
ATOM     14  C   UNL     1      -0.525  -0.808 -12.469  0.00  0.00    +0.001 A 
ATOM     15  C   UNL     1       0.459  -1.437 -13.229  0.00  0.00    +0.001 A 
ATOM     16  C   UNL     1       1.579  -1.953 -12.659  0.00  0.00    +0.008 A 
ATOM     17  C   UNL     1       1.758  -1.853 -11.263  0.00  0.00    -0.017 A 
ATOM     18  C   UNL     1       2.897  -2.372 -10.646  0.00  0.00    +0.017 A 
ATOM     19  C   UNL     1       3.053  -2.262  -9.264  0.00  0.00    -0.017 A 
ATOM     20  C   UNL     1       2.029  -1.599  -8.454  0.00  0.00    -0.009 A 
ATOM     21  C   UNL     1       2.221  -1.501  -7.066  0.00  0.00    +0.009 A 
ATOM     22  C   UNL     1       3.348  -2.015  -6.505  0.00  0.00    +0.001 A 
ATOM     23  C   UNL     1       4.327  -2.642  -7.274  0.00  0.00    +0.001 A 
ATOM     24  C   UNL     1       4.197  -2.780  -8.619  0.00  0.00    +0.008 A 
ENDBRANCH  10  11
ENDBRANCH   6   9
BRANCH   1  25
ATOM     25  S   UNL     1       0.810  -0.658  -1.487  0.00  0.00    -0.072 S 
BRANCH  25  27
ATOM     26  C   UNL     1      -0.053   1.449   0.029  0.00  0.00    +0.029 C 
ATOM     27  C   UNL     1      -0.044  -0.081   0.006  0.00  0.00    +0.137 C 
BRANCH  27  28
ATOM     28  C   UNL     1       0.675  -0.596   1.227  0.00  0.00    +0.226 C 
ATOM     29  O   UNL     1       1.853  -0.876   1.164  0.00  0.00    -0.275 OA
ATOM     30  N   UNL     1       0.007  -0.746   2.388  0.00  0.00    -0.311 N 
ATOM     31  H   UNL     1      -0.935  -0.522   2.438  0.00  0.00    +0.149 HD
BRANCH  30  32
ATOM     32  C   UNL     1       0.705  -1.247   3.575  0.00  0.00    +0.131 C 
BRANCH  32  33
ATOM     33  C   UNL     1      -0.258  -1.321   4.731  0.00  0.00    -0.016 C 
ATOM     34  C   UNL     1      -0.421  -2.449   5.377  0.00  0.00    +0.005 C 
ENDBRANCH  32  33
ENDBRANCH  30  32
ENDBRANCH  27  28
ENDBRANCH  25  27
ENDBRANCH   1  25
TORSDOF 7
