REMARK  Name = ZINC09120398
REMARK  8 active torsions:
REMARK  status: ('A' for Active; 'I' for Inactive)
REMARK    1  A    between atoms: C_5  and  N_7
REMARK    2  A    between atoms: C_8  and  C_10
REMARK    3  A    between atoms: C_10  and  C_22
REMARK    4  A    between atoms: C_11  and  C_12
REMARK    5  A    between atoms: C_15  and  O_18
REMARK    6  A    between atoms: O_18  and  C_19
REMARK    7  A    between atoms: C_19  and  C_20
REMARK    8  A    between atoms: N_24  and  C_25
REMARK                            x       y       z     vdW  Elec       q    Type
REMARK                         _______ _______ _______ _____ _____    ______ ____
ROOT
ATOM      1  C   UNL     1       2.320  -2.321   0.246  0.00  0.00    +0.099 C 
ATOM      2  C   UNL     1       1.410  -1.288   0.331  0.00  0.00    +0.026 C 
ENDROOT
BRANCH   2   3
ATOM      3  C   UNL     1       1.833   0.085   0.053  0.00  0.00    -0.024 A 
ATOM      4  C   UNL     1       0.938   0.994  -0.530  0.00  0.00    +0.011 A 
ATOM      5  C   UNL     1       1.339   2.274  -0.786  0.00  0.00    +0.046 A 
ATOM      6  C   UNL     1       2.633   2.677  -0.470  0.00  0.00    +0.121 A 
ATOM      7  C   UNL     1       3.525   1.781   0.108  0.00  0.00    +0.046 A 
ATOM      8  C   UNL     1       3.136   0.498   0.370  0.00  0.00    +0.011 A 
BRANCH   6   9
ATOM      9  O   UNL     1       3.025   3.950  -0.727  0.00  0.00    -0.481 OA
BRANCH   9  10
ATOM     10  C   UNL     1       4.366   4.299  -0.378  0.00  0.00    +0.353 C 
BRANCH  10  11
ATOM     11  C   UNL     1       4.620   5.741  -0.735  0.00  0.00    +0.393 C 
ATOM     12  O   UNL     1       3.741   6.402  -1.236  0.00  0.00    -0.243 OA
ATOM     13  O   UNL     1       5.820   6.290  -0.495  0.00  0.00    -0.243 OA
ENDBRANCH  10  11
ENDBRANCH   9  10
ENDBRANCH   6   9
ENDBRANCH   2   3
BRANCH   1  15
ATOM     14  N   UNL     1       3.855  -1.848  -1.592  0.00  0.00    -0.279 N 
ATOM     15  C   UNL     1       3.671  -2.069  -0.275  0.00  0.00    +0.253 C 
ATOM     16  O   UNL     1       4.623  -2.060   0.482  0.00  0.00    -0.270 OA
ATOM     17  H   UNL     1       3.090  -1.774  -2.183  0.00  0.00    +0.155 HD
BRANCH  14  22
ATOM     18  C   UNL     1       7.509  -2.120  -1.913  0.00  0.00    +0.002 A 
ATOM     19  C   UNL     1       7.715  -1.482  -3.123  0.00  0.00    +0.003 A 
ATOM     20  C   UNL     1       6.643  -0.965  -3.827  0.00  0.00    +0.040 A 
ATOM     21  C   UNL     1       5.361  -1.084  -3.322  0.00  0.00    +0.144 A 
ATOM     22  C   UNL     1       5.151  -1.725  -2.106  0.00  0.00    +0.069 A 
ATOM     23  C   UNL     1       6.231  -2.238  -1.401  0.00  0.00    +0.026 A 
ATOM     24  F   UNL     1       4.313  -0.578  -4.010  0.00  0.00    -0.204 F 
ENDBRANCH  14  22
ENDBRANCH   1  15
BRANCH   1  25
ATOM     25  C   UNL     1       1.938  -3.674   0.676  0.00  0.00    +0.253 C 
ATOM     26  O   UNL     1       0.855  -3.865   1.196  0.00  0.00    -0.270 OA
ATOM     27  N   UNL     1       2.788  -4.704   0.495  0.00  0.00    -0.279 N 
ATOM     28  H   UNL     1       3.682  -4.541   0.154  0.00  0.00    +0.155 HD
BRANCH  27  29
ATOM     29  C   UNL     1       2.382  -6.009   0.797  0.00  0.00    +0.069 A 
ATOM     30  C   UNL     1       1.031  -6.318   0.867  0.00  0.00    +0.026 A 
ATOM     31  C   UNL     1       0.633  -7.608   1.161  0.00  0.00    +0.002 A 
ATOM     32  C   UNL     1       1.578  -8.589   1.397  0.00  0.00    +0.003 A 
ATOM     33  C   UNL     1       2.926  -8.285   1.333  0.00  0.00    +0.040 A 
ATOM     34  C   UNL     1       3.332  -6.997   1.034  0.00  0.00    +0.144 A 
ATOM     35  F   UNL     1       4.648  -6.699   0.973  0.00  0.00    -0.204 F 
ENDBRANCH  27  29
ENDBRANCH   1  25
TORSDOF 8
