REMARK  Name = ZINC03978301
REMARK  11 active torsions:
REMARK  status: ('A' for Active; 'I' for Inactive)
REMARK    1  A    between atoms: C_1  and  C_2
REMARK    2  A    between atoms: C_10  and  O_20
REMARK    3  A    between atoms: C_13  and  C_15
REMARK    4  A    between atoms: C_24  and  O_40
REMARK    5  A    between atoms: C_26  and  C_38
REMARK    6  A    between atoms: C_26  and  C_39
REMARK    7  A    between atoms: C_27  and  C_33
REMARK    8  A    between atoms: C_29  and  C_32
REMARK    9  A    between atoms: C_33  and  C_34
REMARK   10  A    between atoms: C_34  and  O_36
REMARK   11  A    between atoms: O_36  and  C_37
REMARK                            x       y       z     vdW  Elec       q    Type
REMARK                         _______ _______ _______ _____ _____    ______ ____
ROOT
ATOM      1  C   UNL     1       0.598   2.090   1.532  0.00  0.00    +0.019 C 
ATOM      2  C   UNL     1       0.318   0.583   1.536  0.00  0.00    +0.020 C 
ATOM      3  C   UNL     1       0.473   0.039   0.118  0.00  0.00    +0.014 C 
ATOM      4  C   UNL     1       1.944   0.151  -0.298  0.00  0.00    +0.010 C 
ATOM      5  C   UNL     1       2.800  -0.725   0.600  0.00  0.00    +0.028 C 
ATOM      6  C   UNL     1       2.417  -0.629   2.044  0.00  0.00    -0.065 C 
ATOM      7  C   UNL     1       1.292  -0.078   2.463  0.00  0.00    -0.057 C 
ATOM      8  C   UNL     1       0.990  -0.162   3.943  0.00  0.00    +0.092 C 
ATOM      9  C   UNL     1      -0.510  -0.302   4.195  0.00  0.00    +0.252 C 
ATOM     10  O   UNL     1      -1.226   0.640   3.398  0.00  0.00    -0.342 OA
ATOM     11  C   UNL     1      -1.124   0.389   1.999  0.00  0.00    +0.164 C 
ATOM     12  C   UNL     1       3.326  -1.187   3.120  0.00  0.00    +0.044 C 
ATOM     13  C   UNL     1       4.792  -0.864   2.845  0.00  0.00    +0.089 C 
ATOM     14  C   UNL     1       5.583  -2.123   2.515  0.00  0.00    +0.131 C 
ATOM     15  C   UNL     1       5.262  -2.741   1.169  0.00  0.00    -0.004 C 
ATOM     16  C   UNL     1       4.990  -1.790   0.026  0.00  0.00    +0.021 C 
ATOM     17  C   UNL     1       4.289  -0.478   0.373  0.00  0.00    +0.037 C 
ATOM     18  C   UNL     1       4.876   0.070   1.658  0.00  0.00    +0.146 C 
ATOM     19  O   UNL     1       5.370   1.168   1.728  0.00  0.00    -0.296 OA
ATOM     20  C   UNL     1       4.542   0.529  -0.765  0.00  0.00    +0.020 C 
ATOM     21  C   UNL     1       4.108  -3.745   1.307  0.00  0.00    +0.014 C 
ATOM     22  C   UNL     1       6.505  -3.580   0.762  0.00  0.00    +0.014 C 
ENDROOT
BRANCH  11  23
ATOM     23  C   UNL     1      -2.018   1.356   1.266  0.00  0.00    +0.020 A 
ATOM     24  C   UNL     1      -2.836   1.067   0.150  0.00  0.00    +0.047 A 
ATOM     25  C   UNL     1      -3.460   2.211  -0.182  0.00  0.00    +0.195 A 
ATOM     26  O   UNL     1      -3.066   3.172   0.669  0.00  0.00    -0.471 OA
ATOM     27  C   UNL     1      -2.195   2.658   1.552  0.00  0.00    +0.201 A 
ENDBRANCH  11  23
BRANCH   9  28
ATOM     28  O   UNL     1      -0.784  -0.062   5.579  0.00  0.00    -0.367 OA
ATOM     29  H   UNL     1      -1.719  -0.134   5.813  0.00  0.00    +0.212 HD
ENDBRANCH   9  28
BRANCH  14  30
ATOM     30  O   UNL     1       5.375  -3.101   3.548  0.00  0.00    -0.391 OA
ATOM     31  H   UNL     1       5.654  -2.810   4.427  0.00  0.00    +0.210 HD
ENDBRANCH  14  30
BRANCH  16  32
ATOM     32  C   UNL     1       6.313  -1.468  -0.691  0.00  0.00    +0.125 C 
BRANCH  32  33
ATOM     33  C   UNL     1       7.285  -0.870   0.293  0.00  0.00    +0.307 C 
ATOM     34  O   UNL     1       6.912  -0.566   1.401  0.00  0.00    -0.251 OA
BRANCH  33  35
ATOM     35  O   UNL     1       8.565  -0.674  -0.062  0.00  0.00    -0.468 OA
ATOM     36  C   UNL     1       9.431  -0.103   0.920  0.00  0.00    +0.280 C 
ENDBRANCH  33  35
ENDBRANCH  32  33
ENDBRANCH  16  32
TORSDOF 6
