REMARK  Name = ZINC47145998
REMARK  7 active torsions:
REMARK  status: ('A' for Active; 'I' for Inactive)
REMARK    1  A    between atoms: C_1  and  C_2
REMARK    2  A    between atoms: C_2  and  O_3
REMARK    3  A    between atoms: O_3  and  C_4
REMARK    4  A    between atoms: C_6  and  C_11
REMARK    5  A    between atoms: C_9  and  O_10
REMARK    6  A    between atoms: N_27  and  C_30
REMARK    7  A    between atoms: C_33  and  N_36
REMARK                            x       y       z     vdW  Elec       q    Type
REMARK                         _______ _______ _______ _____ _____    ______ ____
ROOT
ATOM      1  C   UNL     1      -0.229  -4.969   0.477  0.00  0.00    +0.072 C 
ATOM      2  C   UNL     1      -1.379  -5.684  -0.135  0.00  0.00    +0.033 A 
ATOM      3  C   UNL     1      -1.665  -6.998  -0.105  0.00  0.00    +0.088 A 
ATOM      4  N   UNL     1      -2.832  -7.351  -0.746  0.00  0.00    -0.311 N 
ATOM      5  H   UNL     1      -3.119  -8.277  -0.753  0.00  0.00    +0.170 HD
ATOM      6  C   UNL     1      -3.572  -6.412  -1.363  0.00  0.00    +0.289 A 
ATOM      7  O   UNL     1      -4.616  -6.555  -1.975  0.00  0.00    -0.260 OA
ATOM      8  S   UNL     1      -2.711  -4.995  -1.085  0.00  0.00    -0.030 S 
ATOM      9  S   UNL     1      -0.584  -8.159   0.689  0.00  0.00    -0.093 S 
ATOM     10  C   UNL     1       0.481  -7.116   1.735  0.00  0.00    +0.152 C 
ATOM     11  C   UNL     1       0.861  -5.833   0.988  0.00  0.00    +0.110 C 
ATOM     12  C   UNL     1       1.940  -6.279   0.052  0.00  0.00    +0.232 C 
ATOM     13  O   UNL     1       2.236  -5.779  -1.012  0.00  0.00    -0.274 OA
ATOM     14  N   UNL     1       2.519  -7.354   0.638  0.00  0.00    -0.209 N 
ATOM     15  C   UNL     1       1.858  -7.803   1.726  0.00  0.00    +0.240 C 
ATOM     16  O   UNL     1       2.268  -8.603   2.539  0.00  0.00    -0.274 OA
ENDROOT
BRANCH   1  19
ATOM     17  C   UNL     1       1.444  -1.976  -1.111  0.00  0.00    +0.162 A 
ATOM     18  C   UNL     1       0.909  -2.834  -0.163  0.00  0.00    +0.053 A 
ATOM     19  C   UNL     1       0.352  -4.037  -0.555  0.00  0.00    -0.035 A 
ATOM     20  C   UNL     1       0.326  -4.387  -1.892  0.00  0.00    +0.008 A 
ATOM     21  C   UNL     1       0.858  -3.536  -2.843  0.00  0.00    +0.049 A 
ATOM     22  C   UNL     1       1.412  -2.326  -2.457  0.00  0.00    +0.158 A 
BRANCH  22  23
ATOM     23  O   UNL     1       1.931  -1.485  -3.392  0.00  0.00    -0.503 OA
ATOM     24  H   UNL     1       2.868  -1.634  -3.579  0.00  0.00    +0.292 HD
ENDBRANCH  22  23
BRANCH  17  25
ATOM     25  O   UNL     1       1.992  -0.793  -0.727  0.00  0.00    -0.489 OA
BRANCH  25  27
ATOM     26  C   UNL     1       2.642   0.863   0.909  0.00  0.00    +0.048 C 
ATOM     27  C   UNL     1       1.989  -0.500   0.672  0.00  0.00    +0.226 C 
ENDBRANCH  25  27
ENDBRANCH  17  25
ENDBRANCH   1  19
BRANCH  14  28
ATOM     28  C   UNL     1       3.701  -7.940   0.163  0.00  0.00    +0.044 A 
ATOM     29  C   UNL     1       4.337  -7.416  -0.954  0.00  0.00    +0.026 A 
ATOM     30  C   UNL     1       5.502  -7.995  -1.419  0.00  0.00    +0.034 A 
ATOM     31  C   UNL     1       6.034  -9.096  -0.773  0.00  0.00    +0.126 A 
ATOM     32  C   UNL     1       5.402  -9.620   0.340  0.00  0.00    +0.034 A 
ATOM     33  C   UNL     1       4.240  -9.042   0.813  0.00  0.00    +0.026 A 
BRANCH  31  34
ATOM     34  N   UNL     1       7.282  -9.714  -1.274  0.00  0.00    +0.056 N 
ATOM     35  O   UNL     1       7.835  -9.257  -2.247  0.00  0.00    -0.126 OA
ATOM     36  O   UNL     1       7.748 -10.677  -0.709  0.00  0.00    -0.126 OA
ENDBRANCH  31  34
ENDBRANCH  14  28
TORSDOF 6
