REMARK  Name = ZINC35851921
REMARK  5 active torsions:
REMARK  status: ('A' for Active; 'I' for Inactive)
REMARK    1  A    between atoms: C_1  and  C_2
REMARK    2  A    between atoms: C_7  and  C_8
REMARK    3  A    between atoms: N_25  and  C_28
REMARK    4  A    between atoms: C_31  and  N_35
REMARK    5  A    between atoms: C_33  and  C_34
REMARK                            x       y       z     vdW  Elec       q    Type
REMARK                         _______ _______ _______ _____ _____    ______ ____
ROOT
ATOM      1  C   UNL     1      -0.018   1.503   0.010  0.00  0.00    +0.044 C 
ATOM      2  C   UNL     1       0.002  -0.004   0.002  0.00  0.00    -0.046 A 
ATOM      3  C   UNL     1       0.006  -0.686  -1.201  0.00  0.00    +0.004 A 
ATOM      4  C   UNL     1       0.025  -2.069  -1.209  0.00  0.00    +0.008 A 
ATOM      5  C   UNL     1       0.040  -2.765  -0.021  0.00  0.00    +0.004 A 
ATOM      6  C   UNL     1       0.037  -2.090   1.196  0.00  0.00    +0.042 A 
ATOM      7  C   UNL     1       0.023  -0.697   1.195  0.00  0.00    -0.026 A 
ATOM      8  C   UNL     1       0.024   0.056   2.500  0.00  0.00    +0.046 C 
ATOM      9  N   UNL     1       0.055  -3.001   2.254  0.00  0.00    -0.283 N 
ATOM     10  C   UNL     1       0.070  -4.278   1.824  0.00  0.00    +0.243 C 
ATOM     11  O   UNL     1       0.088  -5.274   2.516  0.00  0.00    -0.273 OA
ATOM     12  C   UNL     1       0.061  -4.229   0.320  0.00  0.00    +0.138 C 
ATOM     13  C   UNL     1      -1.160  -4.954  -0.255  0.00  0.00    +0.123 C 
ATOM     14  C   UNL     1      -0.628  -6.352  -0.673  0.00  0.00    +0.107 C 
ATOM     15  C   UNL     1       0.870  -6.336  -0.318  0.00  0.00    +0.071 C 
ATOM     16  N   UNL     1       1.245  -4.896  -0.247  0.00  0.00    -0.281 NA
ATOM     17  C   UNL     1       1.417  -4.498  -1.665  0.00  0.00    +0.086 C 
ATOM     18  C   UNL     1       2.061  -5.718  -2.353  0.00  0.00    +0.017 C 
ATOM     19  C   UNL     1       1.676  -6.944  -1.480  0.00  0.00    +0.021 C 
ATOM     20  C   UNL     1      -1.366  -7.296   0.249  0.00  0.00    +0.232 C 
ATOM     21  O   UNL     1      -1.245  -8.502   0.260  0.00  0.00    -0.274 OA
ATOM     22  N   UNL     1      -2.173  -6.593   1.052  0.00  0.00    -0.210 N 
ATOM     23  C   UNL     1      -2.144  -5.256   0.853  0.00  0.00    +0.233 C 
ATOM     24  O   UNL     1      -2.792  -4.429   1.458  0.00  0.00    -0.274 OA
ATOM     25  H   UNL     1       0.056  -2.745   3.189  0.00  0.00    +0.155 HD
ENDROOT
BRANCH  22  26
ATOM     26  C   UNL     1      -2.990  -7.194   2.021  0.00  0.00    +0.047 A 
ATOM     27  C   UNL     1      -2.511  -7.391   3.309  0.00  0.00    +0.026 A 
ATOM     28  C   UNL     1      -3.319  -7.983   4.261  0.00  0.00    +0.034 A 
ATOM     29  C   UNL     1      -4.602  -8.379   3.931  0.00  0.00    +0.127 A 
ATOM     30  C   UNL     1      -5.081  -8.184   2.649  0.00  0.00    +0.038 A 
ATOM     31  C   UNL     1      -4.280  -7.587   1.694  0.00  0.00    -0.026 A 
ATOM     32  C   UNL     1      -4.805  -7.369   0.299  0.00  0.00    +0.046 C 
BRANCH  29  33
ATOM     33  N   UNL     1      -5.465  -9.013   4.953  0.00  0.00    +0.056 N 
ATOM     34  O   UNL     1      -5.047  -9.185   6.075  0.00  0.00    -0.126 OA
ATOM     35  O   UNL     1      -6.587  -9.360   4.667  0.00  0.00    -0.126 OA
ENDBRANCH  29  33
ENDBRANCH  22  26
TORSDOF 2
