REMARK  Name = ZINC67586967
REMARK  9 active torsions:
REMARK  status: ('A' for Active; 'I' for Inactive)
REMARK    1  A    between atoms: C_1  and  O_2
REMARK    2  A    between atoms: O_2  and  C_3
REMARK    3  A    between atoms: C_5  and  C_13
REMARK    4  A    between atoms: C_7  and  O_11
REMARK    5  A    between atoms: C_8  and  O_9
REMARK    6  A    between atoms: O_9  and  C_10
REMARK    7  A    between atoms: O_11  and  C_12
REMARK    8  A    between atoms: C_24  and  C_27
REMARK    9  A    between atoms: C_27  and  N_28
REMARK                            x       y       z     vdW  Elec       q    Type
REMARK                         _______ _______ _______ _____ _____    ______ ____
ROOT
ATOM      1  C   UNL     1       2.397   0.362  -4.221  0.00  0.00    -0.017 A 
ATOM      2  C   UNL     1       2.349   1.763  -4.139  0.00  0.00    +0.009 A 
ATOM      3  C   UNL     1       2.894   2.538  -5.112  0.00  0.00    +0.009 A 
ATOM      4  C   UNL     1       3.519   1.938  -6.221  0.00  0.00    -0.011 A 
ATOM      5  C   UNL     1       3.576   0.523  -6.312  0.00  0.00    -0.017 A 
ATOM      6  C   UNL     1       3.009  -0.258  -5.294  0.00  0.00    +0.017 A 
ATOM      7  C   UNL     1       4.207  -0.066  -7.420  0.00  0.00    +0.012 A 
ATOM      8  C   UNL     1       4.755   0.716  -8.385  0.00  0.00    +0.046 A 
ATOM      9  C   UNL     1       4.704   2.118  -8.307  0.00  0.00    +0.125 A 
ATOM     10  C   UNL     1       4.085   2.713  -7.241  0.00  0.00    +0.005 A 
ATOM     11  C   UNL     1       4.164   4.213  -7.449  0.00  0.00    +0.082 C 
ATOM     12  C   UNL     1       4.553   4.306  -8.944  0.00  0.00    +0.161 C 
ATOM     13  O   UNL     1       5.207   3.045  -9.171  0.00  0.00    -0.490 OA
ENDROOT
BRANCH   1  16
ATOM     14  C   UNL     1       0.606  -0.608  -1.056  0.00  0.00    +0.166 A 
ATOM     15  C   UNL     1       1.172   0.160  -2.060  0.00  0.00    +0.058 A 
ATOM     16  C   UNL     1       1.791  -0.459  -3.145  0.00  0.00    -0.011 A 
ATOM     17  C   UNL     1       1.839  -1.850  -3.217  0.00  0.00    +0.058 A 
ATOM     18  C   UNL     1       1.273  -2.615  -2.212  0.00  0.00    +0.166 A 
ATOM     19  C   UNL     1       0.661  -1.996  -1.127  0.00  0.00    +0.204 A 
BRANCH  14  21
ATOM     20  C   UNL     1      -0.017   1.425   0.010  0.00  0.00    +0.277 C 
ATOM     21  O   UNL     1       0.002  -0.004   0.002  0.00  0.00    -0.491 OA
ENDBRANCH  14  21
BRANCH  19  22
ATOM     22  O   UNL     1       0.109  -2.748  -0.137  0.00  0.00    -0.488 OA
ATOM     23  C   UNL     1      -1.262  -3.119  -0.291  0.00  0.00    +0.277 C 
ENDBRANCH  19  22
BRANCH  18  24
ATOM     24  O   UNL     1       1.320  -3.972  -2.282  0.00  0.00    -0.491 OA
ATOM     25  C   UNL     1       1.970  -4.540  -3.421  0.00  0.00    +0.277 C 
ENDBRANCH  18  24
ENDBRANCH   1  16
BRANCH  12  26
ATOM     26  C   UNL     1       5.515   5.471  -9.183  0.00  0.00    -0.041 C 
BRANCH  26  27
ATOM     27  N   UNL     1       5.771   5.607 -10.623  0.00  0.00    +0.380 N 
ATOM     28  H   UNL     1       4.902   5.784 -11.104  0.00  0.00    -0.090 HD
ATOM     29  H   UNL     1       6.406   6.375 -10.781  0.00  0.00    -0.090 HD
ATOM     30  H   UNL     1       6.182   4.754 -10.974  0.00  0.00    -0.090 HD
ENDBRANCH  26  27
ENDBRANCH  12  26
TORSDOF 6
