REMARK  Name = ZINC39670122
REMARK  6 active torsions:
REMARK  status: ('A' for Active; 'I' for Inactive)
REMARK    1  A    between atoms: C_1  and  C_2
REMARK    2  A    between atoms: C_7  and  C_11
REMARK    3  A    between atoms: C_11  and  N_12
REMARK    4  A    between atoms: C_13  and  C_15
REMARK    5  A    between atoms: C_26  and  C_28
REMARK    6  A    between atoms: N_32  and  C_33
REMARK                            x       y       z     vdW  Elec       q    Type
REMARK                         _______ _______ _______ _____ _____    ______ ____
ROOT
ATOM      1  C   UNL     1       2.766  -7.701   2.780  0.00  0.00    +0.100 C 
ATOM      2  C   UNL     1       3.826  -8.128   1.740  0.00  0.00    +0.121 C 
ATOM      3  N   UNL     1       4.761  -8.998   2.492  0.00  0.00    -0.295 N 
ATOM      4  C   UNL     1       3.885  -9.794   3.386  0.00  0.00    +0.115 C 
ATOM      5  C   UNL     1       2.808  -8.797   3.858  0.00  0.00    -0.004 C 
ATOM      6  C   UNL     1       1.453  -9.493   3.956  0.00  0.00    -0.010 C 
ATOM      7  C   UNL     1       1.501 -10.539   5.074  0.00  0.00    -0.082 C 
ATOM      8  N   UNL     1       1.831  -9.884   6.346  0.00  0.00    +0.379 N 
ATOM      9  C   UNL     1       3.174  -9.297   6.273  0.00  0.00    -0.082 C 
ATOM     10  C   UNL     1       3.197  -8.198   5.206  0.00  0.00    -0.010 C 
ATOM     11  C   UNL     1       6.103  -9.052   2.389  0.00  0.00    +0.263 C 
ATOM     12  O   UNL     1       6.719  -9.951   2.930  0.00  0.00    -0.268 OA
ATOM     13  H   UNL     1       1.157  -9.156   6.532  0.00  0.00    -0.086 HD
ATOM     14  H   UNL     1       1.802 -10.564   7.090  0.00  0.00    -0.086 HD
ENDROOT
BRANCH  11  15
ATOM     15  C   UNL     1       6.822  -8.028   1.623  0.00  0.00    +0.104 A 
ATOM     16  C   UNL     1       6.334  -6.791   1.259  0.00  0.00    +0.032 A 
ATOM     17  C   UNL     1       7.348  -6.144   0.545  0.00  0.00    +0.020 A 
ATOM     18  C   UNL     1       8.413  -6.978   0.487  0.00  0.00    +0.086 A 
ATOM     19  N   UNL     1       8.108  -8.124   1.143  0.00  0.00    -0.346 N 
ATOM     20  C   UNL     1       8.999  -9.275   1.311  0.00  0.00    +0.149 C 
ENDBRANCH  11  15
BRANCH   1  22
ATOM     21  N   UNL     1       0.439  -6.868   2.685  0.00  0.00    -0.309 N 
ATOM     22  C   UNL     1       1.401  -7.642   2.145  0.00  0.00    +0.219 C 
ATOM     23  O   UNL     1       1.168  -8.290   1.146  0.00  0.00    -0.275 OA
ATOM     24  H   UNL     1       0.626  -6.349   3.483  0.00  0.00    +0.149 HD
BRANCH  21  25
ATOM     25  C   UNL     1      -0.888  -6.810   2.067  0.00  0.00    +0.159 C 
BRANCH  25  32
ATOM     26  C   UNL     1      -5.489  -3.484   6.824  0.00  0.00    +0.044 C 
ATOM     27  C   UNL     1      -4.550  -3.716   5.668  0.00  0.00    -0.046 A 
ATOM     28  C   UNL     1      -4.228  -2.662   4.797  0.00  0.00    +0.021 A 
ATOM     29  C   UNL     1      -3.388  -2.866   3.761  0.00  0.00    +0.093 A 
ATOM     30  N   UNL     1      -2.840  -4.097   3.544  0.00  0.00    -0.308 N 
ATOM     31  C   UNL     1      -1.979  -4.572   2.592  0.00  0.00    +0.115 A 
ATOM     32  C   UNL     1      -1.770  -5.880   2.860  0.00  0.00    +0.051 A 
ATOM     33  N   UNL     1      -2.478  -6.212   3.942  0.00  0.00    -0.342 N 
ATOM     34  C   UNL     1      -3.135  -5.146   4.376  0.00  0.00    +0.116 A 
ATOM     35  C   UNL     1      -4.007  -4.947   5.465  0.00  0.00    +0.048 A 
ATOM     36  H   UNL     1      -2.506  -7.093   4.347  0.00  0.00    +0.167 HD
ENDBRANCH  25  32
ENDBRANCH  21  25
ENDBRANCH   1  22
TORSDOF 4
