REMARK  Name = ZINC27556331
REMARK  6 active torsions:
REMARK  status: ('A' for Active; 'I' for Inactive)
REMARK    1  A    between atoms: C_1  and  C_2
REMARK    2  A    between atoms: C_7  and  S_21
REMARK    3  A    between atoms: N_11  and  C_12
REMARK    4  A    between atoms: C_12  and  C_13
REMARK    5  A    between atoms: C_17  and  C_19
REMARK    6  A    between atoms: S_21  and  N_24
REMARK                            x       y       z     vdW  Elec       q    Type
REMARK                         _______ _______ _______ _____ _____    ______ ____
ROOT
ATOM      1  C   UNL     1      -4.979   2.281   0.331  0.00  0.00    +0.028 C 
ATOM      2  C   UNL     1      -3.522   2.339   0.793  0.00  0.00    +0.075 C 
ATOM      3  C   UNL     1      -2.855   3.659   0.342  0.00  0.00    +0.059 C 
ATOM      4  C   UNL     1      -1.439   3.227   0.016  0.00  0.00    -0.023 A 
ATOM      5  C   UNL     1      -0.279   3.952  -0.159  0.00  0.00    +0.034 A 
ATOM      6  C   UNL     1       0.908   3.302  -0.447  0.00  0.00    +0.105 A 
ATOM      7  C   UNL     1       0.930   1.924  -0.557  0.00  0.00    +0.030 A 
ATOM      8  C   UNL     1      -0.228   1.194  -0.384  0.00  0.00    +0.025 A 
ATOM      9  C   UNL     1      -1.430   1.842  -0.103  0.00  0.00    +0.034 A 
ATOM     10  N   UNL     1      -2.710   1.314   0.101  0.00  0.00    -0.322 N 
ENDROOT
BRANCH   6  11
ATOM     11  S   UNL     1       2.389   4.229  -0.672  0.00  0.00    +0.056 S 
ATOM     12  O   UNL     1       2.210   5.456   0.021  0.00  0.00    -0.153 OA
ATOM     13  O   UNL     1       3.467   3.346  -0.392  0.00  0.00    -0.153 OA
BRANCH  11  14
ATOM     14  N   UNL     1       2.492   4.605  -2.281  0.00  0.00    -0.204 NA
ATOM     15  H   UNL     1       3.407   5.186  -2.465  0.00  0.00    +0.144 HD
ATOM     16  H   UNL     1       1.614   5.200  -2.575  0.00  0.00    +0.144 HD
ENDBRANCH  11  14
ENDBRANCH   6  11
BRANCH  10  17
ATOM     17  C   UNL     1      -2.653   0.071   0.883  0.00  0.00    +0.140 C 
BRANCH  17  18
ATOM     18  C   UNL     1      -1.944   0.332   2.187  0.00  0.00    -0.029 A 
ATOM     19  C   UNL     1      -0.583   0.106   2.291  0.00  0.00    +0.005 A 
ATOM     20  C   UNL     1       0.077   0.346   3.483  0.00  0.00    +0.002 A 
ATOM     21  C   UNL     1      -0.622   0.804   4.581  0.00  0.00    +0.019 A 
ATOM     22  C   UNL     1      -1.997   1.030   4.485  0.00  0.00    +0.052 A 
ATOM     23  C   UNL     1      -2.655   0.789   3.277  0.00  0.00    +0.024 A 
BRANCH  22  24
ATOM     24  C   UNL     1      -2.728   1.506   5.620  0.00  0.00    +0.099 C 
ATOM     25  N   UNL     1      -3.308   1.883   6.521  0.00  0.00    -0.191 NA
ENDBRANCH  22  24
ENDBRANCH  17  18
ENDBRANCH  10  17
TORSDOF 5
