REMARK  Name = ZINC27372686
REMARK  9 active torsions:
REMARK  status: ('A' for Active; 'I' for Inactive)
REMARK    1  A    between atoms: C_1  and  C_2
REMARK    2  A    between atoms: C_2  and  C_4
REMARK    3  A    between atoms: C_2  and  N_14
REMARK    4  A    between atoms: N_10  and  C_11
REMARK    5  A    between atoms: N_10  and  C_12
REMARK    6  A    between atoms: N_14  and  C_15
REMARK    7  A    between atoms: N_14  and  C_16
REMARK    8  A    between atoms: C_16  and  C_17
REMARK    9  A    between atoms: C_22  and  N_23
REMARK                            x       y       z     vdW  Elec       q    Type
REMARK                         _______ _______ _______ _____ _____    ______ ____
ROOT
ATOM      1  N   UNL     1      -0.978   1.629   1.100  0.00  0.00    +0.387 N 
ATOM      2  C   UNL     1      -0.212   1.016   0.006  0.00  0.00    -0.095 C 
ATOM      3  H   UNL     1      -1.985   1.187   1.096  0.00  0.00    -0.081 HD
ENDROOT
BRANCH   1   5
ATOM      4  C   UNL     1       0.239   3.676   0.526  0.00  0.00    -0.005 C 
ATOM      5  C   UNL     1      -1.120   3.077   0.896  0.00  0.00    -0.002 C 
BRANCH   5   6
ATOM      6  C   UNL     1      -2.102   3.334  -0.218  0.00  0.00    +0.123 A 
ATOM      7  N   UNL     1      -1.948   2.731  -1.384  0.00  0.00    -0.201 NA
ATOM      8  C   UNL     1      -2.817   2.951  -2.368  0.00  0.00    +0.217 A 
ATOM      9  N   UNL     1      -3.833   3.787  -2.181  0.00  0.00    -0.181 NA
ATOM     10  C   UNL     1      -3.981   4.395  -1.009  0.00  0.00    +0.222 A 
ATOM     11  N   UNL     1      -3.111   4.165  -0.028  0.00  0.00    -0.201 NA
ATOM     12  N   UNL     1      -5.035   5.263  -0.810  0.00  0.00    -0.306 N 
ATOM     13  C   UNL     1      -5.197   5.933   0.483  0.00  0.00    +0.132 C 
ATOM     14  C   UNL     1      -5.991   5.515  -1.891  0.00  0.00    +0.132 C 
ATOM     15  N   UNL     1      -2.659   2.317  -3.584  0.00  0.00    -0.327 N 
ATOM     16  H   UNL     1      -3.376   2.500  -4.397  0.00  0.00    +0.145 HD
ATOM     17  H   UNL     1      -1.815   1.629  -3.739  0.00  0.00    +0.145 HD
ENDBRANCH   5   6
ENDBRANCH   1   5
BRANCH   1  18
ATOM     18  C   UNL     1      -0.361   1.339   2.401  0.00  0.00    -0.041 C 
BRANCH  18  19
ATOM     19  C   UNL     1      -0.628  -0.097   2.773  0.00  0.00    -0.043 A 
ATOM     20  C   UNL     1       0.376  -1.039   2.658  0.00  0.00    +0.003 A 
ATOM     21  C   UNL     1       0.133  -2.357   3.000  0.00  0.00    +0.000 A 
ATOM     22  C   UNL     1      -1.115  -2.736   3.460  0.00  0.00    +0.002 A 
ATOM     23  C   UNL     1      -2.123  -1.799   3.578  0.00  0.00    +0.023 A 
ATOM     24  C   UNL     1      -1.881  -0.474   3.239  0.00  0.00    +0.031 A 
BRANCH  24  25
ATOM     25  N   UNL     1      -2.896   0.477   3.363  0.00  0.00    -0.330 N 
ATOM     26  C   UNL     1      -3.304   0.632   4.765  0.00  0.00    +0.105 C 
ATOM     27  C   UNL     1      -4.310   1.780   4.881  0.00  0.00    +0.019 C 
ATOM     28  C   UNL     1      -5.529   1.474   4.006  0.00  0.00    +0.003 C 
ATOM     29  C   UNL     1      -5.070   1.270   2.560  0.00  0.00    +0.019 C 
ATOM     30  C   UNL     1      -4.043   0.137   2.511  0.00  0.00    +0.105 C 
ENDBRANCH  24  25
ENDBRANCH  18  19
ENDBRANCH   1  18
TORSDOF 5
