REMARK  Name = ZINC06753190
REMARK  11 active torsions:
REMARK  status: ('A' for Active; 'I' for Inactive)
REMARK    1  A    between atoms: C_1  and  C_2
REMARK    2  A    between atoms: C_5  and  O_32
REMARK    3  A    between atoms: C_6  and  C_8
REMARK    4  A    between atoms: N_16  and  C_29
REMARK    5  A    between atoms: C_17  and  C_19
REMARK    6  A    between atoms: C_22  and  O_27
REMARK    7  A    between atoms: C_23  and  O_25
REMARK    8  A    between atoms: O_25  and  C_26
REMARK    9  A    between atoms: O_27  and  C_28
REMARK   10  A    between atoms: C_29  and  C_30
REMARK   11  A    between atoms: C_30  and  O_31
REMARK                            x       y       z     vdW  Elec       q    Type
REMARK                         _______ _______ _______ _____ _____    ______ ____
ROOT
ATOM      1  C   UNL     1      -0.227  -2.902   2.267  0.00  0.00    +0.102 A 
ATOM      2  C   UNL     1       0.090  -4.254   2.432  0.00  0.00    +0.035 A 
ATOM      3  C   UNL     1      -0.295  -4.576   3.719  0.00  0.00    +0.126 A 
ATOM      4  N   UNL     1      -0.814  -3.433   4.258  0.00  0.00    -0.272 N 
ATOM      5  H   UNL     1      -1.169  -3.352   5.157  0.00  0.00    +0.189 HD
ATOM      6  N   UNL     1      -0.757  -2.479   3.398  0.00  0.00    -0.173 NA
ATOM      7  C   UNL     1       0.012  -5.991   3.958  0.00  0.00    +0.266 C 
ATOM      8  O   UNL     1      -0.206  -6.583   4.998  0.00  0.00    -0.268 OA
ATOM      9  N   UNL     1       0.570  -6.540   2.864  0.00  0.00    -0.283 N 
ATOM     10  C   UNL     1       0.664  -5.505   1.826  0.00  0.00    +0.141 C 
ENDROOT
BRANCH   1  16
ATOM     11  C   UNL     1       2.790  -1.358  -1.399  0.00  0.00    +0.044 C 
ATOM     12  C   UNL     1       1.445  -1.344  -0.719  0.00  0.00    -0.050 A 
ATOM     13  C   UNL     1       0.419  -0.573  -1.236  0.00  0.00    +0.007 A 
ATOM     14  C   UNL     1      -0.818  -0.554  -0.621  0.00  0.00    +0.046 A 
ATOM     15  C   UNL     1      -1.036  -1.310   0.520  0.00  0.00    +0.126 A 
ATOM     16  C   UNL     1      -0.002  -2.090   1.045  0.00  0.00    +0.044 A 
ATOM     17  C   UNL     1       1.239  -2.106   0.413  0.00  0.00    +0.017 A 
BRANCH  15  18
ATOM     18  O   UNL     1      -2.252  -1.292   1.127  0.00  0.00    -0.506 OA
ATOM     19  H   UNL     1      -2.889  -1.915   0.751  0.00  0.00    +0.292 HD
ENDBRANCH  15  18
ENDBRANCH   1  16
BRANCH  10  20
ATOM     20  C   UNL     1      -0.138  -5.911   0.616  0.00  0.00    -0.019 A 
ATOM     21  C   UNL     1      -1.494  -6.151   0.736  0.00  0.00    +0.009 A 
ATOM     22  C   UNL     1      -2.234  -6.522  -0.371  0.00  0.00    +0.050 A 
ATOM     23  C   UNL     1      -1.616  -6.655  -1.604  0.00  0.00    +0.162 A 
ATOM     24  C   UNL     1      -0.251  -6.413  -1.725  0.00  0.00    +0.162 A 
ATOM     25  C   UNL     1       0.484  -6.036  -0.612  0.00  0.00    +0.055 A 
BRANCH  24  26
ATOM     26  O   UNL     1       0.360  -6.543  -2.933  0.00  0.00    -0.491 OA
ATOM     27  C   UNL     1       1.763  -6.279  -2.982  0.00  0.00    +0.277 C 
ENDBRANCH  24  26
BRANCH  23  28
ATOM     28  O   UNL     1      -2.342  -7.022  -2.694  0.00  0.00    -0.491 OA
ATOM     29  C   UNL     1      -3.738  -7.254  -2.496  0.00  0.00    +0.277 C 
ENDBRANCH  23  28
ENDBRANCH  10  20
BRANCH   9  30
ATOM     30  C   UNL     1       1.008  -7.932   2.731  0.00  0.00    +0.137 C 
BRANCH  30  31
ATOM     31  C   UNL     1      -0.191  -8.812   2.370  0.00  0.00    +0.175 C 
BRANCH  31  32
ATOM     32  O   UNL     1      -0.621  -8.510   1.041  0.00  0.00    -0.393 OA
ATOM     33  H   UNL     1      -1.379  -9.031   0.745  0.00  0.00    +0.209 HD
ENDBRANCH  31  32
ENDBRANCH  30  31
ENDBRANCH   9  30
TORSDOF 8
