REMARK  Name = ZINC62857808
REMARK  8 active torsions:
REMARK  status: ('A' for Active; 'I' for Inactive)
REMARK    1  A    between atoms: C_1  and  C_2
REMARK    2  A    between atoms: C_2  and  C_3
REMARK    3  A    between atoms: C_3  and  C_9
REMARK    4  A    between atoms: N_11  and  C_12
REMARK    5  A    between atoms: N_11  and  C_13
REMARK    6  A    between atoms: C_13  and  C_15
REMARK    7  A    between atoms: C_13  and  C_16
REMARK    8  A    between atoms: C_21  and  O_22
REMARK                            x       y       z     vdW  Elec       q    Type
REMARK                         _______ _______ _______ _____ _____    ______ ____
ROOT
ATOM      1  C   UNL     1       2.599  -0.259  -1.624  0.00  0.00    +0.220 C 
ATOM      2  O   UNL     1       3.713  -0.687  -1.837  0.00  0.00    -0.275 OA
ATOM      3  N   UNL     1       2.438   0.978  -1.112  0.00  0.00    -0.297 N 
ATOM      4  C   UNL     1       1.094   1.538  -0.958  0.00  0.00    +0.132 C 
ENDROOT
BRANCH   1   5
ATOM      5  C   UNL     1       1.393  -1.109  -1.932  0.00  0.00    +0.032 C 
ATOM      6  C   UNL     1       1.848  -2.477  -2.447  0.00  0.00    +0.012 C 
ATOM      7  C   UNL     1       2.634  -3.191  -1.343  0.00  0.00    -0.018 C 
ATOM      8  C   UNL     1       1.759  -3.304  -0.093  0.00  0.00    -0.083 C 
ATOM      9  N   UNL     1       1.378  -1.962   0.365  0.00  0.00    +0.380 N 
ATOM     10  C   UNL     1       0.564  -1.299  -0.660  0.00  0.00    -0.066 C 
ATOM     11  H   UNL     1       0.846  -2.038   1.219  0.00  0.00    -0.086 HD
ATOM     12  H   UNL     1       2.210  -1.418   0.536  0.00  0.00    -0.086 HD
BRANCH   5  14
ATOM     13  C   UNL     1       1.319  -0.363  -4.315  0.00  0.00    +0.005 C 
ATOM     14  C   UNL     1       0.540  -0.419  -2.999  0.00  0.00    +0.011 C 
ENDBRANCH   5  14
ENDBRANCH   1   5
BRANCH   3  15
ATOM     15  C   UNL     1       3.609   1.762  -0.711  0.00  0.00    +0.106 C 
ATOM     16  C   UNL     1       3.170   3.178  -0.335  0.00  0.00    +0.033 C 
BRANCH  15  17
ATOM     17  C   UNL     1       4.268   1.108   0.477  0.00  0.00    +0.014 A 
ATOM     18  C   UNL     1       3.512   0.368   1.366  0.00  0.00    +0.009 A 
ATOM     19  C   UNL     1       4.116  -0.231   2.456  0.00  0.00    +0.001 A 
ATOM     20  C   UNL     1       5.477  -0.093   2.659  0.00  0.00    +0.004 A 
ATOM     21  C   UNL     1       6.237   0.645   1.772  0.00  0.00    +0.046 A 
ATOM     22  C   UNL     1       5.634   1.243   0.674  0.00  0.00    +0.122 A 
BRANCH  22  23
ATOM     23  O   UNL     1       6.381   1.965  -0.202  0.00  0.00    -0.506 OA
ATOM     24  H   UNL     1       6.455   2.902   0.023  0.00  0.00    +0.292 HD
ENDBRANCH  22  23
ENDBRANCH  15  17
ENDBRANCH   3  15
TORSDOF 5
