REMARK  Name = ZINC36500212
REMARK  16 active torsions:
REMARK  status: ('A' for Active; 'I' for Inactive)
REMARK    1  A    between atoms: C_1  and  C_2
REMARK    2  A    between atoms: C_2  and  C_3
REMARK    3  A    between atoms: C_2  and  C_4
REMARK    4  A    between atoms: C_2  and  C_5
REMARK    5  A    between atoms: C_5  and  C_6
REMARK    6  A    between atoms: C_6  and  C_7
REMARK    7  A    between atoms: C_6  and  C_8
REMARK    8  A    between atoms: C_6  and  N_9
REMARK    9  A    between atoms: C_10  and  C_12
REMARK   10  A    between atoms: C_12  and  C_14
REMARK   11  A    between atoms: C_12  and  N_21
REMARK   12  A    between atoms: C_17  and  O_20
REMARK   13  A    between atoms: N_21  and  C_22
REMARK   14  A    between atoms: C_22  and  C_23
REMARK   15  A    between atoms: C_28  and  C_30
REMARK   16  A    between atoms: C_33  and  O_36
REMARK                            x       y       z     vdW  Elec       q    Type
REMARK                         _______ _______ _______ _____ _____    ______ ____
ROOT
ATOM      1  C   UNL     1       5.086   0.041  -5.676  0.00  0.00    +0.193 C 
ENDROOT
BRANCH   1   2
ATOM      2  C   UNL     1       4.419  -1.295  -5.474  0.00  0.00    -0.018 A 
ATOM      3  C   UNL     1       5.054  -2.280  -4.741  0.00  0.00    +0.009 A 
ATOM      4  C   UNL     1       4.445  -3.506  -4.554  0.00  0.00    +0.046 A 
ATOM      5  C   UNL     1       3.193  -3.747  -5.102  0.00  0.00    +0.117 A 
ATOM      6  C   UNL     1       2.557  -2.757  -5.836  0.00  0.00    +0.046 A 
ATOM      7  C   UNL     1       3.169  -1.531  -6.016  0.00  0.00    +0.009 A 
BRANCH   5   8
ATOM      8  O   UNL     1       2.591  -4.952  -4.920  0.00  0.00    -0.507 OA
ATOM      9  H   UNL     1       2.036  -4.999  -4.130  0.00  0.00    +0.292 HD
ENDBRANCH   5   8
ENDBRANCH   1   2
BRANCH   1  11
ATOM     10  N   UNL     1       3.403   1.175  -4.264  0.00  0.00    -0.308 N 
ATOM     11  C   UNL     1       4.703   0.970  -4.554  0.00  0.00    +0.239 C 
ATOM     12  O   UNL     1       5.564   1.532  -3.911  0.00  0.00    -0.273 OA
ATOM     13  H   UNL     1       2.716   0.671  -4.729  0.00  0.00    +0.149 HD
BRANCH  10  14
ATOM     14  C   UNL     1       3.026   2.161  -3.247  0.00  0.00    +0.030 C 
ATOM     15  C   UNL     1       3.885   3.416  -3.411  0.00  0.00    +0.031 C 
ATOM     16  C   UNL     1       3.249   1.568  -1.855  0.00  0.00    +0.031 C 
BRANCH  14  17
ATOM     17  C   UNL     1       1.550   2.527  -3.415  0.00  0.00    +0.031 C 
BRANCH  17  19
ATOM     18  C   UNL     1       0.952   1.277  -5.494  0.00  0.00    +0.010 C 
ATOM     19  C   UNL     1       1.224   2.663  -4.903  0.00  0.00    -0.036 C 
ATOM     20  C   UNL     1       2.409   3.303  -5.629  0.00  0.00    +0.010 C 
ATOM     21  C   UNL     1      -0.016   3.542  -5.076  0.00  0.00    +0.010 C 
ENDBRANCH  17  19
ENDBRANCH  14  17
ENDBRANCH  10  14
ENDBRANCH   1  11
BRANCH   1  22
ATOM     22  N   UNL     1       6.540  -0.137  -5.688  0.00  0.00    -0.275 N 
ATOM     23  C   UNL     1       7.148  -0.652  -6.776  0.00  0.00    +0.248 C 
ATOM     24  O   UNL     1       8.321  -0.969  -6.724  0.00  0.00    -0.270 OA
BRANCH  23  25
ATOM     25  C   UNL     1       6.390  -0.830  -8.029  0.00  0.00    +0.037 A 
ATOM     26  C   UNL     1       4.993  -0.849  -8.006  0.00  0.00    +0.016 A 
ATOM     27  C   UNL     1       4.289  -1.015  -9.178  0.00  0.00    +0.046 A 
ATOM     28  C   UNL     1       4.966  -1.165 -10.383  0.00  0.00    +0.117 A 
ATOM     29  C   UNL     1       6.356  -1.147 -10.410  0.00  0.00    +0.046 A 
ATOM     30  C   UNL     1       7.067  -0.975  -9.243  0.00  0.00    +0.016 A 
BRANCH  28  31
ATOM     31  O   UNL     1       4.269  -1.329 -11.535  0.00  0.00    -0.507 OA
ATOM     32  H   UNL     1       4.053  -0.501 -11.986  0.00  0.00    +0.292 HD
ENDBRANCH  28  31
ENDBRANCH  23  25
BRANCH  22  33
ATOM     33  C   UNL     1       7.334   0.244  -4.517  0.00  0.00    +0.183 C 
BRANCH  33  34
ATOM     34  C   UNL     1       7.999   1.573  -4.772  0.00  0.00    +0.122 A 
ATOM     35  C   UNL     1       7.445   2.781  -4.567  0.00  0.00    +0.046 A 
ATOM     36  C   UNL     1       8.414   3.743  -4.936  0.00  0.00    +0.041 A 
ATOM     37  C   UNL     1       9.502   3.065  -5.344  0.00  0.00    +0.195 A 
ATOM     38  O   UNL     1       9.246   1.750  -5.237  0.00  0.00    -0.466 OA
ENDBRANCH  33  34
ENDBRANCH  22  33
ENDBRANCH   1  22
TORSDOF 11
