REMARK  Name = ZINC63270259
REMARK  8 active torsions:
REMARK  status: ('A' for Active; 'I' for Inactive)
REMARK    1  A    between atoms: C_1  and  O_2
REMARK    2  A    between atoms: O_2  and  C_3
REMARK    3  A    between atoms: C_9  and  C_12
REMARK    4  A    between atoms: C_12  and  C_13
REMARK    5  A    between atoms: C_13  and  N_14
REMARK    6  A    between atoms: C_15  and  C_17
REMARK    7  A    between atoms: C_17  and  O_18
REMARK    8  A    between atoms: O_18  and  C_19
REMARK                            x       y       z     vdW  Elec       q    Type
REMARK                         _______ _______ _______ _____ _____    ______ ____
ROOT
ATOM      1  C   UNL     1      -2.367  -8.584  -0.999  0.00  0.00    +0.324 C 
ENDROOT
BRANCH   1   3
ATOM      2  N   UNL     1      -0.752  -6.781  -1.509  0.00  0.00    -0.312 N 
ATOM      3  C   UNL     1      -1.922  -7.385  -1.796  0.00  0.00    +0.251 C 
ATOM      4  O   UNL     1      -2.617  -6.964  -2.697  0.00  0.00    -0.272 OA
ATOM      5  H   UNL     1      -0.196  -7.118  -0.789  0.00  0.00    +0.149 HD
BRANCH   2   6
ATOM      6  C   UNL     1      -0.319  -5.616  -2.284  0.00  0.00    +0.108 C 
BRANCH   6   7
ATOM      7  C   UNL     1       1.031  -5.126  -1.758  0.00  0.00    +0.052 C 
BRANCH   7  14
ATOM      8  C   UNL     1       0.606  -0.607  -1.056  0.00  0.00    +0.121 A 
ATOM      9  C   UNL     1       1.172   0.195  -2.062  0.00  0.00    +0.047 A 
ATOM     10  C   UNL     1       1.790  -0.325  -3.144  0.00  0.00    +0.029 A 
ATOM     11  C   UNL     1       1.886  -1.780  -3.299  0.00  0.00    +0.043 A 
ATOM     12  N   UNL     1       2.419  -2.528  -4.232  0.00  0.00    -0.380 N 
ATOM     13  C   UNL     1       2.222  -3.937  -3.871  0.00  0.00    +0.144 C 
ATOM     14  C   UNL     1       1.476  -3.927  -2.555  0.00  0.00    -0.040 C 
ATOM     15  C   UNL     1       1.290  -2.626  -2.239  0.00  0.00    +0.002 A 
ATOM     16  C   UNL     1       0.646  -1.960  -1.102  0.00  0.00    +0.055 A 
ATOM     17  H   UNL     1       2.869  -2.205  -5.029  0.00  0.00    +0.160 HD
BRANCH   8  19
ATOM     18  C   UNL     1      -0.017   1.425   0.010  0.00  0.00    +0.277 C 
ATOM     19  O   UNL     1       0.002  -0.004   0.002  0.00  0.00    -0.495 OA
ENDBRANCH   8  19
ENDBRANCH   7  14
ENDBRANCH   6   7
ENDBRANCH   2   6
ENDBRANCH   1   3
BRANCH   1  20
ATOM     20  O   UNL     1      -3.629  -9.041  -1.490  0.00  0.00    -0.483 OA
BRANCH  20  21
ATOM     21  C   UNL     1      -4.175 -10.124  -0.875  0.00  0.00    +0.122 A 
ATOM     22  C   UNL     1      -3.508 -10.727   0.185  0.00  0.00    +0.047 A 
ATOM     23  C   UNL     1      -4.047 -11.830   0.818  0.00  0.00    +0.027 A 
ATOM     24  C   UNL     1      -5.264 -12.340   0.396  0.00  0.00    +0.041 A 
ATOM     25  C   UNL     1      -5.945 -11.727  -0.670  0.00  0.00    +0.061 A 
ATOM     26  C   UNL     1      -5.396 -10.617  -1.304  0.00  0.00    +0.060 A 
ATOM     27  C   UNL     1      -7.250 -12.288  -1.070  0.00  0.00    +0.250 C 
ATOM     28  O   UNL     1      -7.744 -11.986  -2.140  0.00  0.00    -0.270 OA
ATOM     29  N   UNL     1      -7.882 -13.123  -0.257  0.00  0.00    -0.279 N 
ATOM     30  C   UNL     1      -9.246 -13.623  -0.464  0.00  0.00    +0.110 C 
ATOM     31  C   UNL     1     -10.271 -12.485  -0.350  0.00  0.00    +0.019 C 
ATOM     32  C   UNL     1     -10.030 -11.797   1.046  0.00  0.00    +0.002 C 
ATOM     33  C   UNL     1      -9.462 -12.805   2.008  0.00  0.00    +0.003 C 
ATOM     34  C   UNL     1      -7.948 -12.757   2.048  0.00  0.00    +0.042 C 
ATOM     35  C   UNL     1      -7.283 -13.635   1.019  0.00  0.00    +0.161 C 
ATOM     36  N   UNL     1      -5.837 -13.456   0.995  0.00  0.00    -0.325 N 
ATOM     37  H   UNL     1      -5.265 -14.125   1.402  0.00  0.00    +0.148 HD
ENDBRANCH  20  21
ENDBRANCH   1  20
TORSDOF 7
