REMARK  Name = ZINC57545785
REMARK  5 active torsions:
REMARK  status: ('A' for Active; 'I' for Inactive)
REMARK    1  A    between atoms: C_1  and  C_2
REMARK    2  A    between atoms: C_5  and  C_8
REMARK    3  A    between atoms: C_9  and  C_16
REMARK    4  A    between atoms: C_16  and  C_17
REMARK    5  A    between atoms: C_17  and  O_18
REMARK                            x       y       z     vdW  Elec       q    Type
REMARK                         _______ _______ _______ _____ _____    ______ ____
ROOT
ATOM      1  C   UNL     1       0.060  -4.251  -0.021  0.00  0.00    +0.065 A 
ATOM      2  C   UNL     1       1.127  -4.911   0.468  0.00  0.00    +0.020 A 
ATOM      3  S   UNL     1       0.651  -6.615   0.227  0.00  0.00    -0.054 S 
ATOM      4  C   UNL     1      -0.939  -6.319  -0.509  0.00  0.00    +0.178 A 
ATOM      5  N   UNL     1      -1.022  -4.952  -0.526  0.00  0.00    -0.293 N 
ATOM      6  C   UNL     1      -2.263  -4.678  -1.093  0.00  0.00    +0.113 A 
ATOM      7  C   UNL     1      -2.851  -5.851  -1.377  0.00  0.00    +0.131 A 
ATOM      8  N   UNL     1      -2.019  -6.840  -1.017  0.00  0.00    -0.230 NA
ENDROOT
BRANCH   1  13
ATOM      9  C   UNL     1      -0.018   1.503   0.010  0.00  0.00    +0.044 C 
ATOM     10  C   UNL     1       0.002  -0.004   0.002  0.00  0.00    -0.050 A 
ATOM     11  C   UNL     1       0.006  -0.686  -1.202  0.00  0.00    +0.004 A 
ATOM     12  C   UNL     1       0.024  -2.066  -1.216  0.00  0.00    +0.010 A 
ATOM     13  C   UNL     1       0.040  -2.773  -0.013  0.00  0.00    -0.000 A 
ATOM     14  C   UNL     1       0.037  -2.079   1.198  0.00  0.00    +0.010 A 
ATOM     15  C   UNL     1       0.023  -0.699   1.198  0.00  0.00    +0.004 A 
ENDBRANCH   1  13
BRANCH   2  16
ATOM     16  C   UNL     1       2.396  -4.355   1.063  0.00  0.00    +0.072 C 
BRANCH  16  17
ATOM     17  C   UNL     1       2.261  -4.298   2.586  0.00  0.00    +0.161 C 
BRANCH  17  18
ATOM     18  O   UNL     1       3.464  -3.771   3.151  0.00  0.00    -0.395 OA
ATOM     19  H   UNL     1       3.450  -3.706   4.115  0.00  0.00    +0.209 HD
ENDBRANCH  17  18
ENDBRANCH  16  17
ENDBRANCH   2  16
TORSDOF 4
