REMARK  Name = ZINC43736468
REMARK  6 active torsions:
REMARK  status: ('A' for Active; 'I' for Inactive)
REMARK    1  A    between atoms: C_1  and  C_2
REMARK    2  A    between atoms: N_4  and  C_5
REMARK    3  A    between atoms: C_7  and  O_31
REMARK    4  A    between atoms: C_12  and  C_30
REMARK    5  A    between atoms: C_22  and  C_29
REMARK    6  A    between atoms: C_25  and  O_28
REMARK                            x       y       z     vdW  Elec       q    Type
REMARK                         _______ _______ _______ _____ _____    ______ ____
ROOT
ATOM      1  C   UNL     1       0.020  -2.136  -1.177  0.00  0.00    +0.108 C 
ATOM      2  C   UNL     1       1.472  -2.646  -1.124  0.00  0.00    +0.135 C 
ATOM      3  C   UNL     1       1.713  -3.431  -2.434  0.00  0.00    +0.037 C 
ATOM      4  C   UNL     1       0.658  -2.854  -3.396  0.00  0.00    +0.003 C 
ATOM      5  C   UNL     1      -0.582  -2.670  -2.504  0.00  0.00    -0.008 C 
ATOM      6  C   UNL     1      -1.217  -4.026  -2.183  0.00  0.00    +0.009 C 
ATOM      7  C   UNL     1      -1.532  -4.786  -3.468  0.00  0.00    +0.005 C 
ATOM      8  C   UNL     1      -0.220  -5.071  -4.209  0.00  0.00    +0.003 C 
ATOM      9  C   UNL     1       0.410  -3.750  -4.587  0.00  0.00    +0.000 C 
ATOM     10  C   UNL     1       1.739  -4.054  -5.289  0.00  0.00    +0.031 C 
ATOM     11  C   UNL     1       1.490  -4.980  -6.444  0.00  0.00    -0.027 C 
ATOM     12  C   UNL     1       0.485  -5.804  -6.487  0.00  0.00    -0.065 C 
ATOM     13  C   UNL     1      -0.516  -5.907  -5.443  0.00  0.00    -0.008 C 
ATOM     14  C   UNL     1      -0.656  -7.382  -5.058  0.00  0.00    +0.014 C 
ATOM     15  C   UNL     1      -0.945  -8.208  -6.314  0.00  0.00    +0.032 C 
ATOM     16  C   UNL     1       0.234  -8.104  -7.283  0.00  0.00    +0.119 C 
ATOM     17  C   UNL     1       0.341  -6.703  -7.704  0.00  0.00    +0.062 C 
ATOM     18  C   UNL     1      -1.860  -5.452  -6.016  0.00  0.00    +0.016 C 
ATOM     19  C   UNL     1      -1.586  -1.690  -3.114  0.00  0.00    +0.013 C 
ENDROOT
BRANCH   1  23
ATOM     20  C   UNL     1      -0.018   1.503   0.010  0.00  0.00    +0.109 C 
ATOM     21  C   UNL     1       0.002  -0.004   0.002  0.00  0.00    +0.210 C 
ATOM     22  O   UNL     1       0.020  -0.616   1.049  0.00  0.00    -0.276 OA
ATOM     23  N   UNL     1       0.000  -0.672  -1.169  0.00  0.00    -0.310 N 
ATOM     24  H   UNL     1      -0.015  -0.182  -2.006  0.00  0.00    +0.149 HD
ENDBRANCH   1  23
BRANCH  16  25
ATOM     25  O   UNL     1       1.431  -8.523  -6.624  0.00  0.00    -0.391 OA
ATOM     26  H   UNL     1       2.220  -8.484  -7.181  0.00  0.00    +0.210 HD
ENDBRANCH  16  25
BRANCH   2  27
ATOM     27  O   UNL     1       1.648  -3.507   0.003  0.00  0.00    -0.390 OA
ATOM     28  H   UNL     1       2.544  -3.861   0.092  0.00  0.00    +0.210 HD
ENDBRANCH   2  27
TORSDOF 3
