REMARK  Name = ZINC19256749
REMARK  6 active torsions:
REMARK  status: ('A' for Active; 'I' for Inactive)
REMARK    1  A    between atoms: C_1  and  C_2
REMARK    2  A    between atoms: C_4  and  N_19
REMARK    3  A    between atoms: C_7  and  N_8
REMARK    4  A    between atoms: C_9  and  C_11
REMARK    5  A    between atoms: C_11  and  C_13
REMARK    6  A    between atoms: C_11  and  N_14
REMARK                            x       y       z     vdW  Elec       q    Type
REMARK                         _______ _______ _______ _____ _____    ______ ____
ROOT
ATOM      1  N   UNL     1      -4.872   3.685   0.045  0.00  0.00    -0.284 N 
ATOM      2  C   UNL     1      -4.892   5.028   0.153  0.00  0.00    +0.242 C 
ATOM      3  O   UNL     1      -3.852   5.652   0.151  0.00  0.00    -0.273 OA
ATOM      4  H   UNL     1      -5.815   3.126  -0.045  0.00  0.00    +0.155 HD
ENDROOT
BRANCH   1  11
ATOM      5  C   UNL     1      -4.759   1.138  -1.216  0.00  0.00    +0.046 C 
ATOM      6  C   UNL     1      -3.551   1.754  -0.558  0.00  0.00    -0.028 A 
ATOM      7  C   UNL     1      -2.347   1.079  -0.556  0.00  0.00    +0.028 A 
ATOM      8  C   UNL     1      -1.233   1.646   0.050  0.00  0.00    +0.025 A 
ATOM      9  C   UNL     1      -1.333   2.890   0.659  0.00  0.00    +0.024 A 
ATOM     10  C   UNL     1      -2.536   3.567   0.652  0.00  0.00    +0.025 A 
ATOM     11  C   UNL     1      -3.649   3.000   0.046  0.00  0.00    +0.036 A 
BRANCH   8  12
ATOM     12  N   UNL     1      -0.013   0.962   0.051  0.00  0.00    -0.358 N 
ATOM     13  H   UNL     1       0.869   1.412   0.531  0.00  0.00    +0.142 HD
ATOM     14  H   UNL     1       0.065  -0.025  -0.428  0.00  0.00    +0.142 HD
ENDBRANCH   8  12
ENDBRANCH   1  11
BRANCH   2  15
ATOM     15  C   UNL     1      -6.206   5.755   0.277  0.00  0.00    +0.191 C 
ATOM     16  C   UNL     1      -6.940   5.271   1.530  0.00  0.00    +0.042 C 
BRANCH  15  17
ATOM     17  N   UNL     1      -5.960   7.195   0.380  0.00  0.00    -0.240 N 
ATOM     18  C   UNL     1      -5.679   7.886   1.498  0.00  0.00    +0.219 A 
ATOM     19  N   UNL     1      -5.527   9.144   1.171  0.00  0.00    -0.223 NA
ATOM     20  C   UNL     1      -5.703   9.293  -0.142  0.00  0.00    +0.245 A 
ATOM     21  N   UNL     1      -5.965   8.127  -0.670  0.00  0.00    -0.158 NA
ENDBRANCH  15  17
ENDBRANCH   2  15
TORSDOF 4
