REMARK  Name = ZINC20600908
REMARK  7 active torsions:
REMARK  status: ('A' for Active; 'I' for Inactive)
REMARK    1  A    between atoms: C_1  and  C_2
REMARK    2  A    between atoms: C_2  and  N_3
REMARK    3  A    between atoms: C_10  and  C_22
REMARK    4  A    between atoms: C_22  and  N_23
REMARK    5  A    between atoms: N_23  and  C_24
REMARK    6  A    between atoms: C_29  and  C_31
REMARK    7  A    between atoms: C_29  and  C_32
REMARK                            x       y       z     vdW  Elec       q    Type
REMARK                         _______ _______ _______ _____ _____    ______ ____
ROOT
ATOM      1  N   UNL     1       0.342   7.369   0.046  0.00  0.00    +0.382 N 
ATOM      2  C   UNL     1       0.888   6.863  -1.221  0.00  0.00    -0.060 C 
ATOM      3  C   UNL     1       1.128   5.356  -1.105  0.00  0.00    +0.088 C 
ATOM      4  N   UNL     1       2.054   5.094   0.006  0.00  0.00    -0.319 N 
ATOM      5  C   UNL     1       1.508   5.600   1.273  0.00  0.00    +0.088 C 
ATOM      6  C   UNL     1       1.268   7.107   1.157  0.00  0.00    -0.060 C 
ATOM      7  C   UNL     1       2.352   3.742   0.098  0.00  0.00    +0.123 A 
ATOM      8  C   UNL     1       3.665   3.313  -0.138  0.00  0.00    -0.024 A 
ATOM      9  C   UNL     1       3.973   1.988  -0.052  0.00  0.00    +0.015 A 
ATOM     10  C   UNL     1       2.944   1.083   0.275  0.00  0.00    +0.004 A 
ATOM     11  C   UNL     1       3.193  -0.295   0.379  0.00  0.00    +0.059 A 
ATOM     12  C   UNL     1       2.176  -1.146   0.700  0.00  0.00    +0.167 A 
ATOM     13  C   UNL     1       0.879  -0.657   0.928  0.00  0.00    +0.168 A 
ATOM     14  C   UNL     1       0.610   0.679   0.832  0.00  0.00    +0.078 A 
ATOM     15  C   UNL     1       1.637   1.579   0.503  0.00  0.00    +0.077 A 
ATOM     16  N   UNL     1       1.394   2.892   0.404  0.00  0.00    -0.232 NA
ATOM     17  O   UNL     1       0.067  -1.713   1.228  0.00  0.00    -0.453 OA
ATOM     18  C   UNL     1       0.951  -2.790   1.587  0.00  0.00    +0.466 C 
ATOM     19  O   UNL     1       2.159  -2.503   0.860  0.00  0.00    -0.453 OA
ATOM     20  H   UNL     1      -0.596   6.830   0.251  0.00  0.00    -0.082 HD
ENDROOT
BRANCH   1  22
ATOM     21  C   UNL     1      -0.763   9.233   1.187  0.00  0.00    -0.017 C 
ATOM     22  C   UNL     1       0.026   8.800  -0.051  0.00  0.00    -0.082 C 
ENDBRANCH   1  22
BRANCH   8  23
ATOM     23  C   UNL     1       4.736   4.315  -0.486  0.00  0.00    -0.043 C 
BRANCH  23  24
ATOM     24  N   UNL     1       5.176   5.005   0.734  0.00  0.00    +0.384 N 
ATOM     25  H   UNL     1       4.341   5.592   1.145  0.00  0.00    -0.085 HD
ATOM     26  H   UNL     1       5.503   4.263   1.477  0.00  0.00    -0.085 HD
BRANCH  24  27
ATOM     27  C   UNL     1       6.296   5.913   0.451  0.00  0.00    -0.067 C 
ATOM     28  C   UNL     1       7.613   5.132   0.497  0.00  0.00    +0.012 C 
ATOM     29  C   UNL     1       8.779   6.099   0.278  0.00  0.00    +0.159 C 
ATOM     30  O   UNL     1       8.739   7.123   1.275  0.00  0.00    -0.374 OA
ATOM     31  C   UNL     1       7.551   7.917   1.249  0.00  0.00    +0.063 C 
ATOM     32  C   UNL     1       6.336   7.022   1.506  0.00  0.00    +0.019 C 
ATOM     33  C   UNL     1       7.632   8.992   2.334  0.00  0.00    +0.041 C 
ATOM     34  C   UNL     1       7.413   8.584  -0.121  0.00  0.00    +0.041 C 
ENDBRANCH  24  27
ENDBRANCH  23  24
ENDBRANCH   8  23
TORSDOF 4
