REMARK  Name = ZINC09441453
REMARK  9 active torsions:
REMARK  status: ('A' for Active; 'I' for Inactive)
REMARK    1  A    between atoms: C_1  and  C_2
REMARK    2  A    between atoms: C_3  and  C_27
REMARK    3  A    between atoms: C_4  and  C_10
REMARK    4  A    between atoms: C_13  and  O_18
REMARK    5  A    between atoms: C_14  and  O_16
REMARK    6  A    between atoms: O_16  and  C_17
REMARK    7  A    between atoms: O_18  and  C_19
REMARK    8  A    between atoms: C_19  and  C_20
REMARK    9  A    between atoms: N_29  and  C_30
REMARK                            x       y       z     vdW  Elec       q    Type
REMARK                         _______ _______ _______ _____ _____    ______ ____
ROOT
ATOM      1  C   UNL     1      -3.628   2.295   0.158  0.00  0.00    +0.061 C 
ATOM      2  C   UNL     1      -3.546   0.851  -0.265  0.00  0.00    +0.019 C 
ATOM      3  C   UNL     1      -2.348   0.324  -0.595  0.00  0.00    +0.056 C 
ATOM      4  C   UNL     1      -2.311  -1.130  -1.019  0.00  0.00    +0.142 C 
ATOM      5  N   UNL     1      -3.592  -1.857  -1.027  0.00  0.00    -0.288 N 
ATOM      6  C   UNL     1      -4.708  -1.192  -0.670  0.00  0.00    +0.304 C 
ATOM      7  O   UNL     1      -5.771  -1.781  -0.678  0.00  0.00    -0.252 OA
ATOM      8  N   UNL     1      -4.684   0.097  -0.308  0.00  0.00    -0.273 N 
ATOM      9  H   UNL     1      -3.631  -2.791  -1.286  0.00  0.00    +0.151 HD
ATOM     10  H   UNL     1      -5.523   0.519  -0.062  0.00  0.00    +0.156 HD
ENDROOT
BRANCH   4  11
ATOM     11  C   UNL     1      -1.727  -1.194  -2.407  0.00  0.00    -0.019 A 
ATOM     12  C   UNL     1      -2.487  -0.801  -3.493  0.00  0.00    +0.009 A 
ATOM     13  C   UNL     1      -1.955  -0.854  -4.768  0.00  0.00    +0.050 A 
ATOM     14  C   UNL     1      -0.661  -1.310  -4.960  0.00  0.00    +0.162 A 
ATOM     15  C   UNL     1       0.102  -1.711  -3.868  0.00  0.00    +0.162 A 
ATOM     16  C   UNL     1      -0.436  -1.651  -2.592  0.00  0.00    +0.055 A 
BRANCH  15  17
ATOM     17  O   UNL     1       1.372  -2.161  -4.051  0.00  0.00    -0.491 OA
ATOM     18  C   UNL     1       2.057  -2.658  -2.900  0.00  0.00    +0.277 C 
ENDBRANCH  15  17
BRANCH  14  19
ATOM     19  O   UNL     1      -0.137  -1.367  -6.214  0.00  0.00    -0.484 OA
BRANCH  19  20
ATOM     20  C   UNL     1      -0.978  -0.940  -7.288  0.00  0.00    +0.264 C 
BRANCH  20  21
ATOM     21  C   UNL     1      -0.234  -1.072  -8.592  0.00  0.00    -0.010 A 
ATOM     22  C   UNL     1       0.515  -0.013  -9.070  0.00  0.00    +0.010 A 
ATOM     23  C   UNL     1       1.202  -0.135 -10.264  0.00  0.00    +0.039 A 
ATOM     24  C   UNL     1       1.131  -1.315 -10.985  0.00  0.00    +0.123 A 
ATOM     25  C   UNL     1       0.376  -2.373 -10.507  0.00  0.00    +0.039 A 
ATOM     26  C   UNL     1      -0.305  -2.251  -9.311  0.00  0.00    +0.010 A 
ATOM     27  F   UNL     1       1.798  -1.434 -12.154  0.00  0.00    -0.205 F 
ENDBRANCH  20  21
ENDBRANCH  19  20
ENDBRANCH  14  19
ENDBRANCH   4  11
BRANCH   3  28
ATOM     28  C   UNL     1      -1.167   1.105  -0.551  0.00  0.00    +0.248 C 
ATOM     29  O   UNL     1      -0.415   1.018   0.402  0.00  0.00    -0.270 OA
ATOM     30  N   UNL     1      -0.876   1.943  -1.565  0.00  0.00    -0.282 N 
ATOM     31  H   UNL     1      -1.532   2.111  -2.260  0.00  0.00    +0.155 HD
BRANCH  30  32
ATOM     32  C   UNL     1       0.370   2.576  -1.613  0.00  0.00    +0.034 A 
ATOM     33  C   UNL     1       1.031   2.902  -0.436  0.00  0.00    +0.023 A 
ATOM     34  C   UNL     1       2.263   3.523  -0.487  0.00  0.00    +0.002 A 
ATOM     35  C   UNL     1       2.835   3.830  -1.708  0.00  0.00    +0.000 A 
ATOM     36  C   UNL     1       2.177   3.512  -2.882  0.00  0.00    +0.002 A 
ATOM     37  C   UNL     1       0.947   2.886  -2.838  0.00  0.00    +0.023 A 
ENDBRANCH  30  32
ENDBRANCH   3  28
TORSDOF 7
