REMARK  Name = ZINC65371197
REMARK  6 active torsions:
REMARK  status: ('A' for Active; 'I' for Inactive)
REMARK    1  A    between atoms: C_1  and  C_2
REMARK    2  A    between atoms: C_5  and  C_21
REMARK    3  A    between atoms: C_6  and  N_8
REMARK    4  A    between atoms: C_9  and  C_14
REMARK    5  A    between atoms: C_11  and  C_13
REMARK    6  A    between atoms: C_14  and  C_15
REMARK                            x       y       z     vdW  Elec       q    Type
REMARK                         _______ _______ _______ _____ _____    ______ ____
ROOT
ATOM      1  N   UNL     1       0.475  -2.954   2.365  0.00  0.00    -0.216 N 
ATOM      2  C   UNL     1       0.621  -2.531   3.635  0.00  0.00    +0.140 A 
ATOM      3  N   UNL     1       0.887  -3.573   4.381  0.00  0.00    -0.215 NA
ATOM      4  C   UNL     1       0.918  -4.672   3.628  0.00  0.00    +0.149 A 
ATOM      5  N   UNL     1       0.667  -4.345   2.387  0.00  0.00    -0.150 NA
ATOM      6  C   UNL     1       1.194  -6.067   4.126  0.00  0.00    +0.090 C 
ENDROOT
BRANCH   1  12
ATOM      7  C   UNL     1       1.415   1.023  -0.374  0.00  0.00    +0.044 C 
ATOM      8  C   UNL     1       0.623  -0.231  -0.106  0.00  0.00    -0.048 A 
ATOM      9  C   UNL     1      -0.394  -0.603  -0.967  0.00  0.00    +0.004 A 
ATOM     10  C   UNL     1      -1.123  -1.753  -0.725  0.00  0.00    +0.006 A 
ATOM     11  C   UNL     1      -0.837  -2.534   0.378  0.00  0.00    -0.025 A 
ATOM     12  C   UNL     1       0.183  -2.163   1.244  0.00  0.00    +0.071 A 
ATOM     13  C   UNL     1       0.916  -1.011   0.995  0.00  0.00    +0.031 A 
ATOM     14  C   UNL     1      -1.632  -3.787   0.642  0.00  0.00    +0.046 C 
ENDBRANCH   1  12
BRANCH   2  15
ATOM     15  C   UNL     1       0.501  -1.107   4.114  0.00  0.00    +0.141 C 
BRANCH  15  16
ATOM     16  C   UNL     1      -0.913  -0.846   4.565  0.00  0.00    +0.111 A 
ATOM     17  N   UNL     1      -1.462  -0.988   5.754  0.00  0.00    -0.144 NA
ATOM     18  N   UNL     1      -2.676  -0.723   5.970  0.00  0.00    -0.126 NA
ATOM     19  C   UNL     1      -3.478  -0.283   5.009  0.00  0.00    +0.179 A 
ATOM     20  S   UNL     1      -2.324  -0.248   3.639  0.00  0.00    -0.035 S 
ATOM     21  N   UNL     1      -4.822   0.056   5.053  0.00  0.00    -0.336 N 
ATOM     22  H   UNL     1      -5.313  -0.015   5.886  0.00  0.00    +0.144 HD
ATOM     23  H   UNL     1      -5.270   0.366   4.250  0.00  0.00    +0.144 HD
ENDBRANCH  15  16
ENDBRANCH   2  15
TORSDOF 3
