REMARK  Name = ZINC46794937
REMARK  10 active torsions:
REMARK  status: ('A' for Active; 'I' for Inactive)
REMARK    1  A    between atoms: C_1  and  C_2
REMARK    2  A    between atoms: C_5  and  C_32
REMARK    3  A    between atoms: C_6  and  O_8
REMARK    4  A    between atoms: O_8  and  C_9
REMARK    5  A    between atoms: C_12  and  C_15
REMARK    6  A    between atoms: C_15  and  N_16
REMARK    7  A    between atoms: C_17  and  C_19
REMARK    8  A    between atoms: C_19  and  N_20
REMARK    9  A    between atoms: N_23  and  C_24
REMARK   10  A    between atoms: C_24  and  C_25
REMARK                            x       y       z     vdW  Elec       q    Type
REMARK                         _______ _______ _______ _____ _____    ______ ____
ROOT
ATOM      1  N   UNL     1       1.867   0.518   7.323  0.00  0.00    -0.310 N 
ATOM      2  C   UNL     1       2.206   1.261   8.395  0.00  0.00    +0.231 C 
ATOM      3  O   UNL     1       1.345   1.686   9.135  0.00  0.00    -0.274 OA
ATOM      4  H   UNL     1       2.556   0.178   6.731  0.00  0.00    +0.149 HD
ENDROOT
BRANCH   1   5
ATOM      5  C   UNL     1       0.458   0.223   7.052  0.00  0.00    +0.141 C 
BRANCH   5   9
ATOM      6  C   UNL     1       0.151  -2.067   3.511  0.00  0.00    +0.220 A 
ATOM      7  C   UNL     1       0.280  -2.737   4.721  0.00  0.00    +0.068 A 
ATOM      8  C   UNL     1       0.381  -2.003   5.890  0.00  0.00    +0.012 A 
ATOM      9  C   UNL     1       0.351  -0.618   5.806  0.00  0.00    -0.012 A 
ATOM     10  C   UNL     1       0.221  -0.018   4.569  0.00  0.00    +0.119 A 
ATOM     11  N   UNL     1       0.131  -0.745   3.472  0.00  0.00    -0.221 NA
BRANCH   6  12
ATOM     12  O   UNL     1       0.051  -2.776   2.358  0.00  0.00    -0.438 OA
BRANCH  12  18
ATOM     13  C   UNL     1      -2.612  -0.731  -1.184  0.00  0.00    +0.044 C 
ATOM     14  C   UNL     1      -1.280  -1.072  -0.568  0.00  0.00    -0.047 A 
ATOM     15  C   UNL     1      -0.110  -0.684  -1.194  0.00  0.00    +0.004 A 
ATOM     16  C   UNL     1       1.114  -0.995  -0.631  0.00  0.00    +0.007 A 
ATOM     17  C   UNL     1       1.171  -1.696   0.559  0.00  0.00    -0.008 A 
ATOM     18  C   UNL     1      -0.002  -2.086   1.188  0.00  0.00    +0.133 A 
ATOM     19  C   UNL     1      -1.229  -1.768   0.624  0.00  0.00    +0.050 A 
ATOM     20  C   UNL     1       2.505  -2.035   1.171  0.00  0.00    +0.047 C 
ENDBRANCH  12  18
ENDBRANCH   6  12
ENDBRANCH   5   9
ENDBRANCH   1   5
BRANCH   2  21
ATOM     21  C   UNL     1       3.656   1.565   8.673  0.00  0.00    +0.201 C 
BRANCH  21  22
ATOM     22  N   UNL     1       3.760   2.382   9.884  0.00  0.00    -0.291 N 
ATOM     23  C   UNL     1       4.969   2.777  10.329  0.00  0.00    +0.300 C 
ATOM     24  O   UNL     1       5.974   2.455   9.725  0.00  0.00    -0.253 OA
ATOM     25  N   UNL     1       5.065   3.529  11.443  0.00  0.00    -0.295 N 
ATOM     26  H   UNL     1       2.958   2.639  10.366  0.00  0.00    +0.151 HD
ATOM     27  H   UNL     1       4.263   3.786  11.925  0.00  0.00    +0.151 HD
BRANCH  25  28
ATOM     28  C   UNL     1       6.380   3.958  11.927  0.00  0.00    +0.141 C 
BRANCH  28  29
ATOM     29  C   UNL     1       6.211   4.780  13.178  0.00  0.00    -0.030 A 
ATOM     30  C   UNL     1       6.047   6.150  13.088  0.00  0.00    +0.008 A 
ATOM     31  C   UNL     1       5.892   6.905  14.235  0.00  0.00    +0.038 A 
ATOM     32  C   UNL     1       5.900   6.289  15.475  0.00  0.00    +0.123 A 
ATOM     33  C   UNL     1       6.064   4.917  15.564  0.00  0.00    +0.038 A 
ATOM     34  C   UNL     1       6.214   4.164  14.415  0.00  0.00    +0.008 A 
ATOM     35  F   UNL     1       5.749   7.026  16.597  0.00  0.00    -0.205 F 
ENDBRANCH  28  29
ENDBRANCH  25  28
ENDBRANCH  21  22
ENDBRANCH   2  21
TORSDOF 8
