REMARK  Name = ZINC57919284
REMARK  10 active torsions:
REMARK  status: ('A' for Active; 'I' for Inactive)
REMARK    1  A    between atoms: C_1  and  C_2
REMARK    2  A    between atoms: C_2  and  C_3
REMARK    3  A    between atoms: C_3  and  O_4
REMARK    4  A    between atoms: O_4  and  C_5
REMARK    5  A    between atoms: C_7  and  C_22
REMARK    6  A    between atoms: C_12  and  C_20
REMARK    7  A    between atoms: N_16  and  C_17
REMARK    8  A    between atoms: C_17  and  C_18
REMARK    9  A    between atoms: C_20  and  C_21
REMARK   10  A    between atoms: C_22  and  O_23
REMARK                            x       y       z     vdW  Elec       q    Type
REMARK                         _______ _______ _______ _____ _____    ______ ____
ROOT
ATOM      1  C   UNL     1       1.342  -2.530  -2.323  0.00  0.00    +0.164 A 
ATOM      2  C   UNL     1       1.909  -1.763  -3.330  0.00  0.00    +0.055 A 
ATOM      3  C   UNL     1       2.526  -2.374  -4.406  0.00  0.00    -0.017 A 
ATOM      4  C   UNL     1       2.575  -3.754  -4.488  0.00  0.00    +0.033 A 
ATOM      5  C   UNL     1       2.001  -4.527  -3.491  0.00  0.00    +0.083 A 
ATOM      6  C   UNL     1       1.397  -3.915  -2.396  0.00  0.00    +0.184 A 
ATOM      7  O   UNL     1       0.878  -4.679  -1.397  0.00  0.00    -0.474 OA
ATOM      8  C   UNL     1       0.345  -5.954  -1.765  0.00  0.00    +0.259 C 
ATOM      9  C   UNL     1       1.303  -6.652  -2.697  0.00  0.00    +0.261 C 
ATOM     10  O   UNL     1       1.403  -7.861  -2.673  0.00  0.00    -0.271 OA
ATOM     11  N   UNL     1       2.037  -5.927  -3.563  0.00  0.00    -0.253 N 
ENDROOT
BRANCH   8  12
ATOM     12  C   UNL     1      -1.000  -5.760  -2.468  0.00  0.00    +0.051 C 
ATOM     13  C   UNL     1      -2.010  -5.168  -1.484  0.00  0.00    +0.008 C 
ENDBRANCH   8  12
BRANCH   1  14
ATOM     14  O   UNL     1       0.738  -1.926  -1.265  0.00  0.00    -0.488 OA
BRANCH  14  15
ATOM     15  C   UNL     1       0.718  -0.497  -1.257  0.00  0.00    +0.229 C 
BRANCH  15  17
ATOM     16  C   UNL     1      -0.019   1.526   0.010  0.00  0.00    +0.007 C 
ATOM     17  C   UNL     1       0.002  -0.004   0.002  0.00  0.00    +0.038 C 
ENDBRANCH  15  17
ENDBRANCH  14  15
ENDBRANCH   1  14
BRANCH  11  18
ATOM     18  C   UNL     1       2.877  -6.596  -4.560  0.00  0.00    +0.202 C 
BRANCH  18  19
ATOM     19  C   UNL     1       4.213  -6.839  -3.991  0.00  0.00    -0.086 C 
ATOM     20  C   UNL     1       5.279  -7.034  -3.538  0.00  0.00    +0.005 C 
ENDBRANCH  18  19
ENDBRANCH  11  18
BRANCH   3  21
ATOM     21  C   UNL     1       3.146  -1.535  -5.493  0.00  0.00    +0.191 C 
BRANCH  21  22
ATOM     22  O   UNL     1       4.511  -1.267  -5.168  0.00  0.00    -0.390 OA
ATOM     23  H   UNL     1       4.974  -0.730  -5.825  0.00  0.00    +0.210 HD
ENDBRANCH  21  22
ENDBRANCH   3  21
TORSDOF 8
