REMARK  Name = ZINC39667945
REMARK  16 active torsions:
REMARK  status: ('A' for Active; 'I' for Inactive)
REMARK    1  A    between atoms: C_1  and  C_2
REMARK    2  A    between atoms: C_2  and  O_3
REMARK    3  A    between atoms: O_3  and  C_4
REMARK    4  A    between atoms: C_4  and  C_6
REMARK    5  A    between atoms: C_8  and  C_37
REMARK    6  A    between atoms: C_10  and  C_33
REMARK    7  A    between atoms: C_13  and  N_15
REMARK    8  A    between atoms: C_16  and  C_18
REMARK    9  A    between atoms: C_18  and  S_19
REMARK   10  A    between atoms: S_19  and  C_20
REMARK   11  A    between atoms: C_24  and  C_28
REMARK   12  A    between atoms: C_25  and  C_27
REMARK   13  A    between atoms: C_28  and  C_29
REMARK   14  A    between atoms: C_29  and  C_30
REMARK   15  A    between atoms: C_30  and  O_32
REMARK   16  A    between atoms: N_35  and  C_36
REMARK                            x       y       z     vdW  Elec       q    Type
REMARK                         _______ _______ _______ _____ _____    ______ ____
ROOT
ATOM      1  N   UNL     1       1.699  -0.837  -1.205  0.00  0.00    -0.302 N 
ATOM      2  C   UNL     1       2.684  -0.645  -0.306  0.00  0.00    +0.224 C 
ATOM      3  O   UNL     1       3.801  -1.061  -0.531  0.00  0.00    -0.275 OA
ATOM      4  H   UNL     1       0.806  -0.504  -1.025  0.00  0.00    +0.150 HD
ENDROOT
BRANCH   1   9
ATOM      5  C   UNL     1       0.870  -2.579  -2.753  0.00  0.00    +0.132 C 
ATOM      6  C   UNL     1       1.355  -4.026  -2.687  0.00  0.00    +0.024 C 
ATOM      7  C   UNL     1       2.849  -4.114  -3.105  0.00  0.00    +0.138 C 
ATOM      8  S   UNL     1       3.487  -2.584  -2.289  0.00  0.00    -0.125 S 
ATOM      9  C   UNL     1       1.978  -1.549  -2.455  0.00  0.00    +0.146 C 
ATOM     10  C   UNL     1       1.200  -4.547  -1.257  0.00  0.00    +0.010 C 
BRANCH   7  11
ATOM     11  C   UNL     1       3.505  -5.350  -2.546  0.00  0.00    +0.226 C 
ATOM     12  O   UNL     1       3.217  -5.739  -1.434  0.00  0.00    -0.275 OA
ATOM     13  N   UNL     1       4.411  -6.024  -3.281  0.00  0.00    -0.317 N 
ATOM     14  C   UNL     1       5.048  -7.226  -2.738  0.00  0.00    +0.128 C 
ATOM     15  H   UNL     1       4.642  -5.712  -4.171  0.00  0.00    +0.148 HD
ENDBRANCH   7  11
BRANCH   5  16
ATOM     16  C   UNL     1      -0.241  -2.396  -1.752  0.00  0.00    +0.313 C 
ATOM     17  O   UNL     1       0.009  -2.368  -0.570  0.00  0.00    -0.250 OA
BRANCH  16  18
ATOM     18  O   UNL     1      -1.509  -2.263  -2.173  0.00  0.00    -0.465 OA
BRANCH  18  20
ATOM     19  C   UNL     1      -3.883  -1.960  -1.835  0.00  0.00    +0.048 C 
ATOM     20  C   UNL     1      -2.512  -2.093  -1.169  0.00  0.00    +0.229 C 
ENDBRANCH  18  20
ENDBRANCH  16  18
ENDBRANCH   5  16
ENDBRANCH   1   9
BRANCH   2  21
ATOM     21  C   UNL     1       2.398   0.087   0.980  0.00  0.00    +0.173 C 
BRANCH  21  22
ATOM     22  S   UNL     1       3.914   0.183   1.972  0.00  0.00    -0.078 S 
BRANCH  22  23
ATOM     23  C   UNL     1       3.421   1.054   3.421  0.00  0.00    +0.170 A 
ATOM     24  N   UNL     1       4.339   1.309   4.394  0.00  0.00    -0.302 N 
ATOM     25  C   UNL     1       3.968   1.977   5.508  0.00  0.00    +0.256 A 
ATOM     26  O   UNL     1       4.778   2.213   6.389  0.00  0.00    -0.267 OA
ATOM     27  C   UNL     1       2.632   2.394   5.631  0.00  0.00    +0.038 A 
ATOM     28  C   UNL     1       1.756   2.111   4.624  0.00  0.00    +0.049 A 
ATOM     29  N   UNL     1       2.170   1.454   3.543  0.00  0.00    -0.228 NA
ATOM     30  C   UNL     1       0.317   2.548   4.733  0.00  0.00    +0.066 C 
ATOM     31  H   UNL     1       5.256   1.011   4.288  0.00  0.00    +0.171 HD
BRANCH  27  32
ATOM     32  C   UNL     1       2.173   3.142   6.857  0.00  0.00    +0.053 C 
BRANCH  32  33
ATOM     33  C   UNL     1       1.804   2.143   7.956  0.00  0.00    +0.125 C 
BRANCH  33  34
ATOM     34  C   UNL     1       1.346   2.891   9.181  0.00  0.00    +0.305 C 
ATOM     35  O   UNL     1       1.318   4.099   9.176  0.00  0.00    -0.251 OA
BRANCH  34  36
ATOM     36  O   UNL     1       0.970   2.215  10.278  0.00  0.00    -0.481 OA
ATOM     37  H   UNL     1       0.692   2.780  11.012  0.00  0.00    +0.295 HD
ENDBRANCH  34  36
ENDBRANCH  33  34
ENDBRANCH  32  33
ENDBRANCH  27  32
ENDBRANCH  22  23
ENDBRANCH  21  22
ENDBRANCH   2  21
TORSDOF 12
