REMARK  Name = ZINC39695949
REMARK  8 active torsions:
REMARK  status: ('A' for Active; 'I' for Inactive)
REMARK    1  A    between atoms: C_1  and  C_2
REMARK    2  A    between atoms: C_2  and  C_3
REMARK    3  A    between atoms: C_6  and  C_9
REMARK    4  A    between atoms: C_9  and  C_11
REMARK    5  A    between atoms: C_9  and  N_12
REMARK    6  A    between atoms: C_13  and  C_15
REMARK    7  A    between atoms: C_26  and  C_28
REMARK    8  A    between atoms: C_33  and  C_34
REMARK                            x       y       z     vdW  Elec       q    Type
REMARK                         _______ _______ _______ _____ _____    ______ ____
ROOT
ATOM      1  C   UNL     1       5.438  -0.789  -6.543  0.00  0.00    +0.100 C 
ATOM      2  C   UNL     1       6.542  -1.246  -5.562  0.00  0.00    +0.121 C 
ATOM      3  N   UNL     1       7.455  -2.073  -6.386  0.00  0.00    -0.296 N 
ATOM      4  C   UNL     1       7.528  -1.360  -7.684  0.00  0.00    +0.115 C 
ATOM      5  C   UNL     1       6.091  -0.862  -7.934  0.00  0.00    -0.004 C 
ATOM      6  C   UNL     1       6.115   0.520  -8.579  0.00  0.00    -0.010 C 
ATOM      7  C   UNL     1       6.715   0.413  -9.983  0.00  0.00    -0.082 C 
ATOM      8  N   UNL     1       5.910  -0.512 -10.791  0.00  0.00    +0.379 N 
ATOM      9  C   UNL     1       5.968  -1.861 -10.215  0.00  0.00    -0.082 C 
ATOM     10  C   UNL     1       5.337  -1.849  -8.820  0.00  0.00    -0.010 C 
ATOM     11  C   UNL     1       8.079  -3.215  -6.034  0.00  0.00    +0.247 C 
ATOM     12  O   UNL     1       8.882  -3.726  -6.791  0.00  0.00    -0.270 OA
ATOM     13  H   UNL     1       4.952  -0.196 -10.808  0.00  0.00    -0.086 HD
ATOM     14  H   UNL     1       6.271  -0.535 -11.733  0.00  0.00    -0.086 HD
ENDROOT
BRANCH  11  15
ATOM     15  C   UNL     1       7.788  -3.844  -4.729  0.00  0.00    +0.049 A 
ATOM     16  C   UNL     1       7.555  -3.051  -3.604  0.00  0.00    +0.013 A 
ATOM     17  C   UNL     1       7.284  -3.644  -2.389  0.00  0.00    +0.001 A 
ATOM     18  C   UNL     1       7.243  -5.024  -2.283  0.00  0.00    +0.001 A 
ATOM     19  C   UNL     1       7.473  -5.816  -3.394  0.00  0.00    +0.013 A 
ATOM     20  C   UNL     1       7.740  -5.234  -4.616  0.00  0.00    +0.067 A 
BRANCH  20  21
ATOM     21  C   UNL     1       7.984  -6.099  -5.826  0.00  0.00    +0.418 C 
ATOM     22  F   UNL     1       7.883  -7.446  -5.465  0.00  0.00    -0.166 F 
ATOM     23  F   UNL     1       7.032  -5.806  -6.809  0.00  0.00    -0.166 F 
ATOM     24  F   UNL     1       9.265  -5.846  -6.329  0.00  0.00    -0.166 F 
ENDBRANCH  20  21
ENDBRANCH  11  15
BRANCH   1  26
ATOM     25  N   UNL     1       3.022  -1.266  -6.777  0.00  0.00    -0.308 N 
ATOM     26  C   UNL     1       4.254  -1.718  -6.469  0.00  0.00    +0.219 C 
ATOM     27  O   UNL     1       4.409  -2.873  -6.133  0.00  0.00    -0.275 OA
ATOM     28  H   UNL     1       2.898  -0.342  -7.046  0.00  0.00    +0.149 HD
BRANCH  25  29
ATOM     29  C   UNL     1       1.871  -2.169  -6.706  0.00  0.00    +0.100 C 
ATOM     30  C   UNL     1       1.339  -2.205  -5.272  0.00  0.00    +0.033 C 
BRANCH  29  34
ATOM     31  C   UNL     1      -1.200  -0.772  -9.326  0.00  0.00    -0.048 A 
ATOM     32  C   UNL     1      -0.938  -2.126  -9.228  0.00  0.00    +0.004 A 
ATOM     33  C   UNL     1       0.056  -2.578  -8.380  0.00  0.00    +0.006 A 
ATOM     34  C   UNL     1       0.788  -1.676  -7.631  0.00  0.00    -0.027 A 
ATOM     35  C   UNL     1       0.527  -0.323  -7.730  0.00  0.00    +0.006 A 
ATOM     36  C   UNL     1      -0.464   0.130  -8.581  0.00  0.00    +0.004 A 
BRANCH  31  38
ATOM     37  C   UNL     1      -1.690  -0.011 -11.635  0.00  0.00    +0.009 C 
ATOM     38  C   UNL     1      -2.284  -0.280 -10.250  0.00  0.00    +0.032 C 
ENDBRANCH  31  38
ENDBRANCH  29  34
ENDBRANCH  25  29
ENDBRANCH   1  26
TORSDOF 6
