REMARK  Name = ZINC19880477
REMARK  12 active torsions:
REMARK  status: ('A' for Active; 'I' for Inactive)
REMARK    1  A    between atoms: C_6  and  O_11
REMARK    2  A    between atoms: O_11  and  C_12
REMARK    3  A    between atoms: C_12  and  C_13
REMARK    4  A    between atoms: C_13  and  C_15
REMARK    5  A    between atoms: C_13  and  O_39
REMARK    6  A    between atoms: C_15  and  N_16
REMARK    7  A    between atoms: N_20  and  C_23
REMARK    8  A    between atoms: C_23  and  C_24
REMARK    9  A    between atoms: C_24  and  C_26
REMARK   10  A    between atoms: C_24  and  O_38
REMARK   11  A    between atoms: C_26  and  O_27
REMARK   12  A    between atoms: O_27  and  C_28
REMARK                            x       y       z     vdW  Elec       q    Type
REMARK                         _______ _______ _______ _____ _____    ______ ____
ROOT
ATOM      1  N   UNL     1       3.227  11.637   0.279  0.00  0.00    +0.382 N 
ATOM      2  C   UNL     1       2.566  11.951   1.522  0.00  0.00    -0.077 C 
ATOM      3  C   UNL     1       1.527  13.061   1.262  0.00  0.00    -0.003 C 
ATOM      4  C   UNL     1       2.150  14.379   1.169  0.00  0.00    +0.082 C 
ATOM      5  N   UNL     1       3.124  14.460   0.057  0.00  0.00    -0.302 NA
ATOM      6  C   UNL     1       4.378  13.868   0.455  0.00  0.00    +0.066 C 
ATOM      7  C   UNL     1       4.485  12.387   0.052  0.00  0.00    -0.063 C 
ATOM      8  H   UNL     1       2.517  11.972  -0.492  0.00  0.00    -0.082 HD
ENDROOT
BRANCH   1   9
ATOM      9  C   UNL     1       3.445  10.191   0.148  0.00  0.00    -0.044 C 
BRANCH   9  10
ATOM     10  C   UNL     1       2.095   9.480   0.032  0.00  0.00    +0.135 C 
BRANCH  10  11
ATOM     11  O   UNL     1       1.451   9.876  -1.180  0.00  0.00    -0.390 OA
ATOM     12  H   UNL     1       1.209  10.935  -1.354  0.00  0.00    +0.210 HD
ENDBRANCH  10  11
BRANCH  10  13
ATOM     13  C   UNL     1       2.315   7.966   0.022  0.00  0.00    +0.258 C 
BRANCH  13  14
ATOM     14  O   UNL     1       1.050   7.301   0.031  0.00  0.00    -0.489 OA
BRANCH  14  20
ATOM     15  C   UNL     1      -0.013   1.076   0.008  0.00  0.00    +0.001 A 
ATOM     16  C   UNL     1      -1.235   1.746   0.018  0.00  0.00    +0.001 A 
ATOM     17  C   UNL     1      -1.288   3.105   0.031  0.00  0.00    +0.008 A 
ATOM     18  C   UNL     1      -0.095   3.849   0.024  0.00  0.00    -0.014 A 
ATOM     19  C   UNL     1      -0.112   5.253   0.032  0.00  0.00    +0.054 A 
ATOM     20  C   UNL     1       1.067   5.942   0.023  0.00  0.00    +0.121 A 
ATOM     21  C   UNL     1       2.292   5.268   0.007  0.00  0.00    +0.046 A 
ATOM     22  C   UNL     1       2.342   3.909   0.000  0.00  0.00    +0.012 A 
ATOM     23  C   UNL     1       1.148   3.167   0.008  0.00  0.00    -0.018 A 
ATOM     24  C   UNL     1       1.163   1.762   0.000  0.00  0.00    +0.008 A 
ENDBRANCH  14  20
ENDBRANCH  13  14
ENDBRANCH  10  13
ENDBRANCH   9  10
ENDBRANCH   1   9
BRANCH   5  25
ATOM     25  C   UNL     1       3.313  15.851  -0.377  0.00  0.00    +0.119 C 
BRANCH  25  26
ATOM     26  C   UNL     1       3.976  16.650   0.746  0.00  0.00    +0.166 C 
BRANCH  26  27
ATOM     27  O   UNL     1       5.292  16.145   0.978  0.00  0.00    -0.387 OA
ATOM     28  H   UNL     1       5.926  16.597   1.755  0.00  0.00    +0.210 HD
ENDBRANCH  26  27
BRANCH  26  29
ATOM     29  C   UNL     1       4.060  18.124   0.343  0.00  0.00    +0.261 C 
BRANCH  29  30
ATOM     30  O   UNL     1       4.571  18.889   1.437  0.00  0.00    -0.489 OA
BRANCH  30  31
ATOM     31  C   UNL     1       4.709  20.227   1.243  0.00  0.00    +0.121 A 
ATOM     32  C   UNL     1       4.359  20.785   0.009  0.00  0.00    +0.046 A 
ATOM     33  C   UNL     1       4.480  22.121  -0.213  0.00  0.00    +0.012 A 
ATOM     34  C   UNL     1       4.976  22.955   0.805  0.00  0.00    -0.018 A 
ATOM     35  C   UNL     1       5.121  24.338   0.607  0.00  0.00    +0.008 A 
ATOM     36  C   UNL     1       5.604  25.116   1.613  0.00  0.00    +0.001 A 
ATOM     37  C   UNL     1       5.959  24.561   2.842  0.00  0.00    +0.001 A 
ATOM     38  C   UNL     1       5.833  23.226   3.070  0.00  0.00    +0.008 A 
ATOM     39  C   UNL     1       5.337  22.390   2.054  0.00  0.00    -0.014 A 
ATOM     40  C   UNL     1       5.194  21.008   2.253  0.00  0.00    +0.054 A 
ENDBRANCH  30  31
ENDBRANCH  29  30
ENDBRANCH  26  29
ENDBRANCH  25  26
ENDBRANCH   5  25
TORSDOF 12
