REMARK  Name = ZINC10062995
REMARK  8 active torsions:
REMARK  status: ('A' for Active; 'I' for Inactive)
REMARK    1  A    between atoms: C_1  and  C_2
REMARK    2  A    between atoms: C_2  and  C_3
REMARK    3  A    between atoms: C_3  and  C_5
REMARK    4  A    between atoms: C_3  and  N_6
REMARK    5  A    between atoms: C_7  and  C_9
REMARK    6  A    between atoms: N_11  and  C_25
REMARK    7  A    between atoms: N_16  and  C_19
REMARK    8  A    between atoms: C_25  and  C_26
REMARK                            x       y       z     vdW  Elec       q    Type
REMARK                         _______ _______ _______ _____ _____    ______ ____
ROOT
ATOM      1  C   UNL     1       3.637   0.642  -0.030  0.00  0.00    +0.081 A 
ATOM      2  C   UNL     1       4.172   1.897  -0.028  0.00  0.00    +0.101 A 
ATOM      3  N   UNL     1       3.394   3.007  -0.015  0.00  0.00    -0.348 N 
ATOM      4  C   UNL     1       2.048   2.969  -0.002  0.00  0.00    +0.101 A 
ATOM      5  C   UNL     1       1.380   1.772  -0.002  0.00  0.00    +0.085 A 
ATOM      6  C   UNL     1      -0.016   1.347   0.009  0.00  0.00    +0.283 A 
ATOM      7  O   UNL     1      -1.002   2.067   0.018  0.00  0.00    -0.265 OA
ATOM      8  N   UNL     1       0.002  -0.004   0.002  0.00  0.00    -0.196 N 
ATOM      9  N   UNL     1       1.319  -0.472  -0.013  0.00  0.00    -0.162 NA
ATOM     10  C   UNL     1       2.167   0.517  -0.016  0.00  0.00    +0.112 A 
ENDROOT
BRANCH   8  11
ATOM     11  C   UNL     1      -1.136  -0.819   0.009  0.00  0.00    +0.069 A 
ATOM     12  C   UNL     1      -2.266  -0.430   0.717  0.00  0.00    +0.028 A 
ATOM     13  C   UNL     1      -3.389  -1.234   0.718  0.00  0.00    +0.002 A 
ATOM     14  C   UNL     1      -3.385  -2.430   0.024  0.00  0.00    +0.000 A 
ATOM     15  C   UNL     1      -2.260  -2.823  -0.678  0.00  0.00    +0.002 A 
ATOM     16  C   UNL     1      -1.135  -2.021  -0.687  0.00  0.00    +0.028 A 
ENDBRANCH   8  11
BRANCH   1  18
ATOM     17  N   UNL     1       5.840  -0.411  -0.057  0.00  0.00    -0.309 N 
ATOM     18  C   UNL     1       4.500  -0.550  -0.045  0.00  0.00    +0.248 C 
ATOM     19  O   UNL     1       4.003  -1.660  -0.046  0.00  0.00    -0.270 OA
ATOM     20  H   UNL     1       6.237   0.474  -0.056  0.00  0.00    +0.149 HD
BRANCH  17  21
ATOM     21  C   UNL     1       6.699  -1.598  -0.072  0.00  0.00    +0.070 C 
ATOM     22  C   UNL     1       6.882  -2.077  -1.514  0.00  0.00    +0.028 C 
BRANCH  21  24
ATOM     23  C   UNL     1       7.895  -0.889   2.004  0.00  0.00    +0.005 C 
ATOM     24  C   UNL     1       8.063  -1.248   0.526  0.00  0.00    +0.018 C 
ENDBRANCH  21  24
ENDBRANCH  17  21
ENDBRANCH   1  18
BRANCH   3  25
ATOM     25  C   UNL     1       4.051   4.316  -0.013  0.00  0.00    +0.148 C 
BRANCH  25  26
ATOM     26  C   UNL     1       4.263   4.773  -1.433  0.00  0.00    -0.013 C 
ATOM     27  C   UNL     1       3.803   5.936  -1.823  0.00  0.00    +0.005 C 
ENDBRANCH  25  26
ENDBRANCH   3  25
TORSDOF 6
