REMARK  Name = ZINC38715025
REMARK  4 active torsions:
REMARK  status: ('A' for Active; 'I' for Inactive)
REMARK    1  A    between atoms: C_1  and  C_2
REMARK    2  A    between atoms: C_9  and  S_12
REMARK    3  A    between atoms: S_12  and  N_15
REMARK    4  A    between atoms: N_15  and  C_16
REMARK                            x       y       z     vdW  Elec       q    Type
REMARK                         _______ _______ _______ _____ _____    ______ ____
ROOT
ATOM      1  S   UNL     1       0.044  -1.771   3.930  0.00  0.00    +0.094 S 
ATOM      2  O   UNL     1      -0.996  -0.808   3.827  0.00  0.00    -0.148 OA
ATOM      3  O   UNL     1       0.089  -2.734   4.974  0.00  0.00    -0.148 OA
ENDROOT
BRANCH   1  12
ATOM      4  C   UNL     1      -0.018   1.503   0.010  0.00  0.00    +0.065 C 
ATOM      5  C   UNL     1       0.002  -0.004   0.002  0.00  0.00    +0.039 A 
ATOM      6  C   UNL     1       0.005  -0.675  -1.219  0.00  0.00    +0.023 A 
ATOM      7  C   UNL     1       0.024  -2.041  -1.246  0.00  0.00    +0.012 A 
ATOM      8  C   UNL     1       0.039  -2.729  -0.018  0.00  0.00    +0.002 A 
ATOM      9  C   UNL     1       0.059  -4.132   0.034  0.00  0.00    +0.010 A 
ATOM     10  C   UNL     1       0.074  -4.761   1.241  0.00  0.00    +0.003 A 
ATOM     11  C   UNL     1       0.069  -4.030   2.428  0.00  0.00    +0.031 A 
ATOM     12  C   UNL     1       0.050  -2.670   2.415  0.00  0.00    +0.136 A 
ATOM     13  C   UNL     1       0.035  -1.984   1.188  0.00  0.00    +0.098 A 
ATOM     14  N   UNL     1       0.022  -0.648   1.144  0.00  0.00    -0.250 NA
ENDBRANCH   1  12
BRANCH   1  15
ATOM     15  N   UNL     1       1.466  -0.926   4.004  0.00  0.00    -0.098 NA
BRANCH  15  16
ATOM     16  C   UNL     1       1.740  -0.113   5.109  0.00  0.00    +0.075 A 
ATOM     17  C   UNL     1       0.822  -0.019   6.147  0.00  0.00    +0.028 A 
ATOM     18  C   UNL     1       1.092   0.783   7.238  0.00  0.00    +0.025 A 
ATOM     19  C   UNL     1       2.282   1.496   7.297  0.00  0.00    +0.037 A 
ATOM     20  C   UNL     1       3.200   1.402   6.259  0.00  0.00    -0.024 A 
ATOM     21  C   UNL     1       2.933   0.596   5.171  0.00  0.00    +0.032 A 
ATOM     22  C   UNL     1       4.491   2.176   6.328  0.00  0.00    +0.046 C 
ATOM     23  C   UNL     1       4.251   3.507   7.042  0.00  0.00    +0.101 C 
ATOM     24  C   UNL     1       3.496   3.273   8.322  0.00  0.00    +0.218 C 
ATOM     25  O   UNL     1       3.734   3.961   9.292  0.00  0.00    -0.275 OA
ATOM     26  N   UNL     1       2.559   2.311   8.402  0.00  0.00    -0.285 N 
ATOM     27  H   UNL     1       2.072   2.181   9.231  0.00  0.00    +0.155 HD
ENDBRANCH  15  16
ENDBRANCH   1  15
TORSDOF 3
