REMARK  Name = ZINC20716368
REMARK  6 active torsions:
REMARK  status: ('A' for Active; 'I' for Inactive)
REMARK    1  A    between atoms: C_1  and  C_2
REMARK    2  A    between atoms: C_2  and  C_4
REMARK    3  A    between atoms: C_2  and  N_8
REMARK    4  A    between atoms: C_4  and  O_6
REMARK    5  A    between atoms: O_6  and  C_7
REMARK    6  A    between atoms: C_20  and  C_22
REMARK                            x       y       z     vdW  Elec       q    Type
REMARK                         _______ _______ _______ _____ _____    ______ ____
ROOT
ATOM      1  N   UNL     1       2.498  -0.323  -0.265  0.00  0.00    -0.286 N 
ATOM      2  C   UNL     1       1.913  -0.613  -1.444  0.00  0.00    +0.304 C 
ATOM      3  O   UNL     1       0.701  -0.599  -1.541  0.00  0.00    -0.253 OA
ATOM      4  N   UNL     1       2.671  -0.920  -2.516  0.00  0.00    -0.273 N 
ATOM      5  C   UNL     1       2.059  -1.125  -3.837  0.00  0.00    +0.116 C 
ATOM      6  C   UNL     1       2.561  -0.037  -4.796  0.00  0.00    +0.074 C 
ATOM      7  C   UNL     1       4.050   0.110  -4.627  0.00  0.00    +0.040 A 
ATOM      8  C   UNL     1       4.753  -0.335  -3.563  0.00  0.00    +0.062 A 
ATOM      9  N   UNL     1       6.037  -0.026  -3.756  0.00  0.00    -0.348 N 
ATOM     10  C   UNL     1       6.162   0.592  -4.901  0.00  0.00    +0.171 A 
ATOM     11  N   UNL     1       4.941   0.695  -5.475  0.00  0.00    -0.349 N 
ATOM     12  H   UNL     1       4.738   1.107  -6.329  0.00  0.00    +0.166 HD
ATOM     13  C   UNL     1       4.134  -1.052  -2.392  0.00  0.00    +0.159 C 
ATOM     14  H   UNL     1       3.459  -0.406  -0.168  0.00  0.00    +0.151 HD
ATOM     15  H   UNL     1       6.763  -0.228  -3.144  0.00  0.00    +0.167 HD
ENDROOT
BRANCH  13  16
ATOM     16  C   UNL     1       4.522  -2.508  -2.424  0.00  0.00    +0.014 A 
ATOM     17  C   UNL     1       5.068  -3.052  -3.571  0.00  0.00    +0.010 A 
ATOM     18  C   UNL     1       5.425  -4.387  -3.601  0.00  0.00    +0.016 A 
ATOM     19  C   UNL     1       5.235  -5.180  -2.483  0.00  0.00    +0.021 A 
ATOM     20  C   UNL     1       4.688  -4.637  -1.335  0.00  0.00    +0.054 A 
ATOM     21  C   UNL     1       4.336  -3.298  -1.303  0.00  0.00    +0.130 A 
ATOM     22  F   UNL     1       3.807  -2.765  -0.180  0.00  0.00    -0.205 F 
ATOM     23 BR   UNL     1       5.722  -7.007  -2.526  0.00  0.00    -0.050 Br
ENDBRANCH  13  16
BRANCH   1  25
ATOM     24  C   UNL     1       1.134  -1.105   1.608  0.00  0.00    +0.040 C 
ATOM     25  C   UNL     1       1.682   0.117   0.869  0.00  0.00    +0.180 C 
BRANCH  25  26
ATOM     26  C   UNL     1       2.529   0.936   1.809  0.00  0.00    +0.327 C 
ATOM     27  O   UNL     1       3.695   1.131   1.558  0.00  0.00    -0.249 OA
BRANCH  26  28
ATOM     28  O   UNL     1       1.988   1.448   2.926  0.00  0.00    -0.467 OA
ATOM     29  C   UNL     1       2.849   2.213   3.771  0.00  0.00    +0.280 C 
ENDBRANCH  26  28
ENDBRANCH  25  26
ENDBRANCH   1  25
TORSDOF 4
