REMARK  Name = ZINC21084437
REMARK  5 active torsions:
REMARK  status: ('A' for Active; 'I' for Inactive)
REMARK    1  A    between atoms: C_1  and  C_2
REMARK    2  A    between atoms: C_9  and  C_11
REMARK    3  A    between atoms: C_11  and  S_12
REMARK    4  A    between atoms: S_12  and  C_13
REMARK    5  A    between atoms: N_18  and  N_19
REMARK                            x       y       z     vdW  Elec       q    Type
REMARK                         _______ _______ _______ _____ _____    ______ ____
ROOT
ATOM      1  C   UNL     1      -1.415  -7.479   3.903  0.00  0.00    +0.210 A 
ATOM      2  N   UNL     1      -2.412  -8.331   4.167  0.00  0.00    -0.186 NA
ATOM      3  C   UNL     1      -1.916  -9.501   4.510  0.00  0.00    +0.232 A 
ATOM      4  N   UNL     1      -0.570  -9.411   4.468  0.00  0.00    -0.245 N 
ATOM      5  N   UNL     1      -0.271  -8.098   4.069  0.00  0.00    -0.144 NA
ATOM      6  N   UNL     1      -2.646 -10.625   4.853  0.00  0.00    -0.205 N 
ATOM      7  H   UNL     1      -2.188 -11.446   5.093  0.00  0.00    +0.177 HD
ATOM      8  H   UNL     1       0.066 -10.115   4.671  0.00  0.00    +0.192 HD
ENDROOT
BRANCH   6   9
ATOM      9  N   UNL     1      -4.046 -10.577   4.855  0.00  0.00    -0.189 NA
ATOM     10  C   UNL     1      -4.720 -11.583   5.271  0.00  0.00    +0.037 C 
ATOM     11  C   UNL     1      -4.030 -12.770   5.905  0.00  0.00    +0.052 C 
ATOM     12  C   UNL     1      -4.710 -13.069   7.246  0.00  0.00    +0.006 C 
ATOM     13  C   UNL     1      -6.212 -13.257   7.023  0.00  0.00    +0.001 C 
ATOM     14  C   UNL     1      -6.827 -11.955   6.509  0.00  0.00    +0.006 C 
ATOM     15  C   UNL     1      -6.227 -11.612   5.146  0.00  0.00    +0.052 C 
ENDBRANCH   6   9
BRANCH   1  16
ATOM     16  S   UNL     1      -1.608  -5.800   3.404  0.00  0.00    -0.077 S 
BRANCH  16  17
ATOM     17  C   UNL     1       0.093  -5.205   3.200  0.00  0.00    +0.151 C 
BRANCH  17  26
ATOM     18  C   UNL     1       0.011   2.192   2.381  0.00  0.00    +0.044 C 
ATOM     19  C   UNL     1       0.019   0.715   2.080  0.00  0.00    -0.048 A 
ATOM     20  C   UNL     1      -0.001   0.280   0.763  0.00  0.00    +0.005 A 
ATOM     21  C   UNL     1       0.006  -1.054   0.469  0.00  0.00    +0.030 A 
ATOM     22  C   UNL     1       0.033  -1.995   1.503  0.00  0.00    +0.089 A 
ATOM     23  C   UNL     1       0.053  -1.554   2.837  0.00  0.00    +0.066 A 
ATOM     24  C   UNL     1       0.051  -0.195   3.116  0.00  0.00    +0.031 A 
ATOM     25  N   UNL     1       0.078  -2.695   3.614  0.00  0.00    -0.341 N 
ATOM     26  C   UNL     1       0.072  -3.761   2.769  0.00  0.00    +0.118 A 
ATOM     27  N   UNL     1       0.046  -3.352   1.534  0.00  0.00    -0.232 NA
ATOM     28  H   UNL     1       0.096  -2.730   4.583  0.00  0.00    +0.167 HD
ENDBRANCH  17  26
ENDBRANCH  16  17
ENDBRANCH   1  16
TORSDOF 4
