REMARK  Name = ZINC33936165
REMARK  9 active torsions:
REMARK  status: ('A' for Active; 'I' for Inactive)
REMARK    1  A    between atoms: C_1  and  C_2
REMARK    2  A    between atoms: C_2  and  C_3
REMARK    3  A    between atoms: C_2  and  C_4
REMARK    4  A    between atoms: N_9  and  C_23
REMARK    5  A    between atoms: C_13  and  C_21
REMARK    6  A    between atoms: C_14  and  N_20
REMARK    7  A    between atoms: C_15  and  C_16
REMARK    8  A    between atoms: C_15  and  C_18
REMARK    9  A    between atoms: C_23  and  C_24
REMARK                            x       y       z     vdW  Elec       q    Type
REMARK                         _______ _______ _______ _____ _____    ______ ____
ROOT
ATOM      1  C   UNL     1      -1.468  -0.420   0.085  0.00  0.00    +0.037 C 
ATOM      2  C   UNL     1      -1.565  -1.946   0.142  0.00  0.00    +0.010 C 
ATOM      3  C   UNL     1      -1.019  -2.498   1.440  0.00  0.00    -0.069 C 
ATOM      4  N   UNL     1       0.356  -2.982   1.297  0.00  0.00    +0.385 N 
ATOM      5  C   UNL     1       0.378  -4.073   0.307  0.00  0.00    -0.050 C 
ATOM      6  C   UNL     1      -0.019  -3.493  -1.027  0.00  0.00    -0.040 C 
ATOM      7  C   UNL     1      -0.874  -2.503  -1.071  0.00  0.00    -0.032 C 
ATOM      8  C   UNL     1      -1.165  -1.857  -2.374  0.00  0.00    +0.074 C 
ATOM      9  C   UNL     1      -1.779  -0.646  -2.392  0.00  0.00    +0.054 C 
ATOM     10  C   UNL     1      -2.213   0.081  -1.152  0.00  0.00    +0.184 C 
ATOM     11  H   UNL     1       0.949  -2.229   0.982  0.00  0.00    -0.081 HD
ENDROOT
BRANCH   1  13
ATOM     12  C   UNL     1       0.457  -0.025  -1.459  0.00  0.00    +0.007 C 
ATOM     13  C   UNL     1       0.002  -0.004   0.002  0.00  0.00    -0.011 C 
ATOM     14  C   UNL     1       0.165   1.409   0.566  0.00  0.00    +0.007 C 
ENDBRANCH   1  13
BRANCH   9  15
ATOM     15  N   UNL     1      -2.016  -0.058  -3.603  0.00  0.00    -0.358 N 
ATOM     16  H   UNL     1      -1.746  -0.505  -4.420  0.00  0.00    +0.142 HD
ATOM     17  H   UNL     1      -2.453   0.807  -3.645  0.00  0.00    +0.142 HD
ENDBRANCH   9  15
BRANCH  10  18
ATOM     18  C   UNL     1      -1.950   1.520  -1.320  0.00  0.00    +0.091 C 
ATOM     19  N   UNL     1      -1.747   2.630  -1.449  0.00  0.00    -0.195 NA
ENDBRANCH  10  18
BRANCH  10  20
ATOM     20  C   UNL     1      -3.658  -0.121  -0.958  0.00  0.00    +0.091 C 
ATOM     21  N   UNL     1      -4.773  -0.277  -0.807  0.00  0.00    -0.195 NA
ENDBRANCH  10  20
BRANCH   8  22
ATOM     22  C   UNL     1      -0.801  -2.502  -3.599  0.00  0.00    +0.101 C 
ATOM     23  N   UNL     1      -0.512  -3.014  -4.572  0.00  0.00    -0.191 NA
ENDBRANCH   8  22
BRANCH   4  24
ATOM     24  C   UNL     1       0.838  -3.482   2.591  0.00  0.00    -0.043 C 
BRANCH  24  25
ATOM     25  C   UNL     1       2.291  -3.865   2.472  0.00  0.00    -0.064 A 
ATOM     26  C   UNL     1       2.638  -5.151   2.101  0.00  0.00    +0.002 A 
ATOM     27  C   UNL     1       3.970  -5.503   1.992  0.00  0.00    +0.000 A 
ATOM     28  C   UNL     1       4.955  -4.569   2.253  0.00  0.00    +0.000 A 
ATOM     29  C   UNL     1       4.608  -3.283   2.622  0.00  0.00    +0.000 A 
ATOM     30  C   UNL     1       3.276  -2.930   2.727  0.00  0.00    +0.002 A 
ENDBRANCH  24  25
ENDBRANCH   4  24
TORSDOF 7
