REMARK  Name = ZINC17306872
REMARK  11 active torsions:
REMARK  status: ('A' for Active; 'I' for Inactive)
REMARK    1  A    between atoms: C_1  and  C_2
REMARK    2  A    between atoms: C_2  and  O_3
REMARK    3  A    between atoms: O_3  and  C_4
REMARK    4  A    between atoms: C_4  and  C_5
REMARK    5  A    between atoms: C_4  and  O_29
REMARK    6  A    between atoms: C_5  and  N_6
REMARK    7  A    between atoms: C_7  and  C_9
REMARK    8  A    between atoms: N_11  and  C_28
REMARK    9  A    between atoms: N_18  and  C_21
REMARK   10  A    between atoms: O_29  and  C_30
REMARK   11  A    between atoms: C_30  and  C_31
REMARK                            x       y       z     vdW  Elec       q    Type
REMARK                         _______ _______ _______ _____ _____    ______ ____
ROOT
ATOM      1  C   UNL     1      -2.455   4.168   1.442  0.00  0.00    +0.078 A 
ATOM      2  C   UNL     1      -3.135   2.967   1.385  0.00  0.00    +0.101 A 
ATOM      3  N   UNL     1      -2.305   1.978   1.759  0.00  0.00    -0.344 N 
ATOM      4  C   UNL     1      -1.065   2.509   2.056  0.00  0.00    +0.132 A 
ATOM      5  C   UNL     1      -1.134   3.880   1.863  0.00  0.00    +0.086 A 
ATOM      6  N   UNL     1      -0.009   4.653   2.089  0.00  0.00    -0.305 N 
ATOM      7  H   UNL     1      -0.046   5.613   1.953  0.00  0.00    +0.170 HD
ATOM      8  C   UNL     1       1.136   4.074   2.496  0.00  0.00    +0.334 A 
ATOM      9  O   UNL     1       2.116   4.768   2.690  0.00  0.00    -0.246 OA
ATOM     10  N   UNL     1       1.220   2.747   2.693  0.00  0.00    -0.227 N 
ATOM     11  C   UNL     1       0.157   1.944   2.490  0.00  0.00    +0.285 A 
ATOM     12  O   UNL     1       0.249   0.743   2.674  0.00  0.00    -0.265 OA
ATOM     13  C   UNL     1      -2.660   0.559   1.839  0.00  0.00    +0.149 C 
ENDROOT
BRANCH  10  14
ATOM     14  C   UNL     1       2.434   2.190   3.118  0.00  0.00    +0.055 A 
ATOM     15  C   UNL     1       3.539   2.207   2.278  0.00  0.00    +0.028 A 
ATOM     16  C   UNL     1       4.735   1.661   2.701  0.00  0.00    +0.022 A 
ATOM     17  C   UNL     1       4.830   1.088   3.957  0.00  0.00    +0.041 A 
ATOM     18  C   UNL     1       3.728   1.065   4.794  0.00  0.00    +0.022 A 
ATOM     19  C   UNL     1       2.532   1.614   4.378  0.00  0.00    +0.028 A 
ATOM     20 CL   UNL     1       6.333   0.396   4.483  0.00  0.00    -0.084 Cl
ENDBRANCH  10  14
BRANCH   1  22
ATOM     21  N   UNL     1      -4.282   5.622   0.724  0.00  0.00    -0.306 N 
ATOM     22  C   UNL     1      -2.998   5.496   1.113  0.00  0.00    +0.248 C 
ATOM     23  O   UNL     1      -2.287   6.480   1.192  0.00  0.00    -0.270 OA
ATOM     24  H   UNL     1      -4.848   4.837   0.661  0.00  0.00    +0.149 HD
BRANCH  21  25
ATOM     25  C   UNL     1      -4.822   6.943   0.396  0.00  0.00    +0.165 C 
BRANCH  25  26
ATOM     26  C   UNL     1      -6.290   6.807  -0.013  0.00  0.00    +0.267 C 
BRANCH  26  27
ATOM     27  O   UNL     1      -6.389   5.955  -1.156  0.00  0.00    -0.350 OA
BRANCH  27  29
ATOM     28  C   UNL     1      -7.482   5.325  -3.217  0.00  0.00    +0.034 C 
ATOM     29  C   UNL     1      -7.550   6.189  -1.956  0.00  0.00    +0.159 C 
ENDBRANCH  27  29
ENDBRANCH  26  27
BRANCH  26  30
ATOM     30  O   UNL     1      -7.035   6.243   1.068  0.00  0.00    -0.350 OA
BRANCH  30  31
ATOM     31  C   UNL     1      -8.449   6.410   0.949  0.00  0.00    +0.159 C 
ATOM     32  C   UNL     1      -9.130   5.922   2.229  0.00  0.00    +0.034 C 
ENDBRANCH  30  31
ENDBRANCH  26  30
ENDBRANCH  25  26
ENDBRANCH  21  25
ENDBRANCH   1  22
TORSDOF 8
