REMARK  Name = ZINC34755372
REMARK  3 active torsions:
REMARK  status: ('A' for Active; 'I' for Inactive)
REMARK    1  A    between atoms: C_1  and  C_2
REMARK    2  A    between atoms: C_6  and  O_8
REMARK    3  A    between atoms: O_8  and  C_9
REMARK                            x       y       z     vdW  Elec       q    Type
REMARK                         _______ _______ _______ _____ _____    ______ ____
ROOT
ATOM      1  C   UNL     1      -0.035  -4.127   2.304  0.00  0.00    +0.230 A 
ATOM      2  C   UNL     1      -0.135  -4.877   3.478  0.00  0.00    +0.050 A 
ATOM      3  C   UNL     1      -0.223  -6.247   3.379  0.00  0.00    +0.056 A 
ATOM      4  N   UNL     1      -0.206  -6.811   2.177  0.00  0.00    -0.219 NA
ATOM      5  C   UNL     1      -0.109  -6.076   1.081  0.00  0.00    +0.221 A 
ATOM      6  N   UNL     1      -0.031  -4.755   1.135  0.00  0.00    -0.179 NA
ATOM      7  N   UNL     1      -0.095  -6.703  -0.153  0.00  0.00    -0.300 N 
ATOM      8  C   UNL     1      -0.185  -8.153  -0.379  0.00  0.00    +0.108 C 
ATOM      9  C   UNL     1      -0.102  -8.385  -1.902  0.00  0.00    +0.020 C 
ATOM     10  C   UNL     1       0.597  -7.098  -2.413  0.00  0.00    +0.020 C 
ATOM     11  C   UNL     1       0.007  -6.026  -1.459  0.00  0.00    +0.108 C 
ATOM     12  C   UNL     1      -0.345  -7.122   4.599  0.00  0.00    +0.071 C 
ATOM     13  C   UNL     1       0.067  -6.336   5.845  0.00  0.00    +0.087 C 
ATOM     14  N   UNL     1      -0.657  -5.056   5.854  0.00  0.00    -0.311 NA
ATOM     15  C   UNL     1      -0.141  -4.170   4.805  0.00  0.00    +0.123 C 
ATOM     16  H   UNL     1      -1.650  -5.201   5.749  0.00  0.00    +0.122 HD
ENDROOT
BRANCH   1  17
ATOM     17  O   UNL     1       0.051  -2.776   2.358  0.00  0.00    -0.438 OA
BRANCH  17  23
ATOM     18  C   UNL     1      -2.459  -1.004  -1.434  0.00  0.00    +0.044 C 
ATOM     19  C   UNL     1      -1.164  -1.205  -0.690  0.00  0.00    -0.047 A 
ATOM     20  C   UNL     1       0.013  -0.689  -1.200  0.00  0.00    +0.003 A 
ATOM     21  C   UNL     1       1.203  -0.872  -0.520  0.00  0.00    +0.004 A 
ATOM     22  C   UNL     1       1.218  -1.570   0.672  0.00  0.00    +0.046 A 
ATOM     23  C   UNL     1       0.039  -2.088   1.186  0.00  0.00    +0.131 A 
ATOM     24  C   UNL     1      -1.155  -1.899   0.504  0.00  0.00    +0.049 A 
ENDBRANCH  17  23
ENDBRANCH   1  17
TORSDOF 2
