REMARK  Name = ZINC61595125
REMARK  9 active torsions:
REMARK  status: ('A' for Active; 'I' for Inactive)
REMARK    1  A    between atoms: C_1  and  C_2
REMARK    2  A    between atoms: C_2  and  C_4
REMARK    3  A    between atoms: C_2  and  N_24
REMARK    4  A    between atoms: C_4  and  C_6
REMARK    5  A    between atoms: C_4  and  S_13
REMARK    6  A    between atoms: S_13  and  C_14
REMARK    7  A    between atoms: N_20  and  C_21
REMARK    8  A    between atoms: C_21  and  C_22
REMARK    9  A    between atoms: C_21  and  C_23
REMARK                            x       y       z     vdW  Elec       q    Type
REMARK                         _______ _______ _______ _____ _____    ______ ____
ROOT
ATOM      1  C   UNL     1       0.742  -0.511   1.242  0.00  0.00    +0.071 C 
ENDROOT
BRANCH   1   2
ATOM      2  C   UNL     1       2.188  -0.092   1.170  0.00  0.00    -0.017 A 
ATOM      3  C   UNL     1       3.149  -0.994   0.753  0.00  0.00    +0.006 A 
ATOM      4  C   UNL     1       4.475  -0.610   0.687  0.00  0.00    +0.000 A 
ATOM      5  C   UNL     1       4.841   0.676   1.038  0.00  0.00    +0.001 A 
ATOM      6  C   UNL     1       3.881   1.579   1.454  0.00  0.00    +0.020 A 
ATOM      7  C   UNL     1       2.553   1.197   1.515  0.00  0.00    +0.045 A 
ATOM      8 CL   UNL     1       1.346   2.332   2.031  0.00  0.00    -0.083 Cl
ENDBRANCH   1   2
BRANCH   1  10
ATOM      9  C   UNL     1       0.029   1.307  -0.317  0.00  0.00    -0.013 C 
ATOM     10  C   UNL     1       0.056  -0.206  -0.092  0.00  0.00    -0.060 C 
BRANCH  10  11
ATOM     11  N   UNL     1       0.799  -0.851  -1.183  0.00  0.00    +0.381 N 
ATOM     12  H   UNL     1       1.743  -0.496  -1.202  0.00  0.00    -0.090 HD
ATOM     13  H   UNL     1       0.817  -1.848  -1.034  0.00  0.00    -0.090 HD
ATOM     14  H   UNL     1       0.346  -0.650  -2.062  0.00  0.00    -0.090 HD
ENDBRANCH  10  11
ENDBRANCH   1  10
BRANCH   1  15
ATOM     15  S   UNL     1       0.644  -2.291   1.579  0.00  0.00    -0.079 S 
BRANCH  15  16
ATOM     16  C   UNL     1      -1.081  -2.592   1.779  0.00  0.00    +0.193 A 
ATOM     17  N   UNL     1      -2.023  -1.699   1.687  0.00  0.00    -0.145 NA
ATOM     18  N   UNL     1      -3.250  -2.339   1.910  0.00  0.00    -0.226 N 
ATOM     19  H   UNL     1      -4.125  -1.920   1.902  0.00  0.00    +0.194 HD
ATOM     20  C   UNL     1      -2.990  -3.643   2.137  0.00  0.00    +0.345 A 
ATOM     21  O   UNL     1      -3.813  -4.511   2.371  0.00  0.00    -0.245 OA
ATOM     22  N   UNL     1      -1.656  -3.812   2.053  0.00  0.00    -0.268 N 
BRANCH  22  23
ATOM     23  C   UNL     1      -0.939  -5.078   2.228  0.00  0.00    +0.088 C 
ATOM     24  C   UNL     1      -1.214  -5.631   3.628  0.00  0.00    +0.031 C 
ATOM     25  C   UNL     1      -1.419  -6.084   1.179  0.00  0.00    +0.031 C 
ENDBRANCH  22  23
ENDBRANCH  15  16
ENDBRANCH   1  15
TORSDOF 6
