REMARK  Name = ZINC67565896
REMARK  5 active torsions:
REMARK  status: ('A' for Active; 'I' for Inactive)
REMARK    1  A    between atoms: C_1  and  C_2
REMARK    2  A    between atoms: C_7  and  C_10
REMARK    3  A    between atoms: N_18  and  C_19
REMARK    4  A    between atoms: C_24  and  C_25
REMARK    5  A    between atoms: C_25  and  C_26
REMARK                            x       y       z     vdW  Elec       q    Type
REMARK                         _______ _______ _______ _____ _____    ______ ____
ROOT
ATOM      1  C   UNL     1      -0.778   1.681   0.393  0.00  0.00    +0.039 C 
ATOM      2  C   UNL     1      -0.545   0.179   0.214  0.00  0.00    +0.133 C 
ATOM      3  C   UNL     1      -1.879  -0.565   0.344  0.00  0.00    +0.140 C 
ATOM      4  N   UNL     1      -1.605  -2.010   0.357  0.00  0.00    -0.280 N 
ATOM      5  C   UNL     1      -0.585  -2.513   1.291  0.00  0.00    +0.145 C 
ATOM      6  C   UNL     1       0.686  -1.674   1.115  0.00  0.00    +0.166 C 
ATOM      7  O   UNL     1       0.355  -0.287   1.222  0.00  0.00    -0.366 OA
ATOM      8  C   UNL     1      -2.270  -2.849  -0.462  0.00  0.00    +0.307 C 
ATOM      9  O   UNL     1      -3.173  -2.430  -1.159  0.00  0.00    -0.252 OA
ATOM     10  N   UNL     1      -1.933  -4.154  -0.507  0.00  0.00    -0.269 N 
ATOM     11  H   UNL     1      -1.259  -4.502   0.097  0.00  0.00    +0.156 HD
ENDROOT
BRANCH   6  12
ATOM     12  C   UNL     1       1.683  -2.039   2.185  0.00  0.00    -0.017 A 
ATOM     13  C   UNL     1       1.551  -1.518   3.458  0.00  0.00    +0.006 A 
ATOM     14  C   UNL     1       2.465  -1.853   4.440  0.00  0.00    +0.000 A 
ATOM     15  C   UNL     1       3.510  -2.709   4.148  0.00  0.00    +0.000 A 
ATOM     16  C   UNL     1       3.641  -3.231   2.875  0.00  0.00    +0.000 A 
ATOM     17  C   UNL     1       2.725  -2.899   1.894  0.00  0.00    +0.006 A 
ENDBRANCH   6  12
BRANCH  10  18
ATOM     18  C   UNL     1      -2.556  -5.006  -1.426  0.00  0.00    +0.038 A 
ATOM     19  C   UNL     1      -3.223  -4.477  -2.524  0.00  0.00    +0.023 A 
ATOM     20  C   UNL     1      -3.836  -5.320  -3.429  0.00  0.00    +0.002 A 
ATOM     21  C   UNL     1      -3.787  -6.690  -3.244  0.00  0.00    +0.000 A 
ATOM     22  C   UNL     1      -3.125  -7.219  -2.152  0.00  0.00    +0.006 A 
ATOM     23  C   UNL     1      -2.504  -6.381  -1.246  0.00  0.00    -0.017 A 
BRANCH  23  24
ATOM     24  C   UNL     1      -1.777  -6.960  -0.059  0.00  0.00    +0.132 C 
BRANCH  24  25
ATOM     25  C   UNL     1      -2.699  -6.984   1.132  0.00  0.00    +0.215 C 
ATOM     26  O   UNL     1      -3.835  -6.572   1.028  0.00  0.00    -0.276 OA
ATOM     27  N   UNL     1      -2.262  -7.463   2.313  0.00  0.00    -0.329 N 
ATOM     28  H   UNL     1      -1.353  -7.792   2.397  0.00  0.00    +0.145 HD
ATOM     29  H   UNL     1      -2.855  -7.479   3.080  0.00  0.00    +0.145 HD
ENDBRANCH  24  25
ENDBRANCH  23  24
ENDBRANCH  10  18
TORSDOF 4
