REMARK  Name = ZINC66679593
REMARK  6 active torsions:
REMARK  status: ('A' for Active; 'I' for Inactive)
REMARK    1  A    between atoms: C_3  and  C_23
REMARK    2  A    between atoms: C_5  and  N_7
REMARK    3  A    between atoms: N_10  and  C_11
REMARK    4  A    between atoms: C_11  and  C_12
REMARK    5  A    between atoms: C_12  and  O_13
REMARK    6  A    between atoms: O_13  and  C_14
REMARK                            x       y       z     vdW  Elec       q    Type
REMARK                         _______ _______ _______ _____ _____    ______ ____
ROOT
ATOM      1  N   UNL     1       1.228  -2.086  -0.021  0.00  0.00    -0.269 N 
ATOM      2  C   UNL     1       0.073  -2.772   0.089  0.00  0.00    +0.304 C 
ATOM      3  O   UNL     1      -0.988  -2.179   0.102  0.00  0.00    -0.253 OA
ATOM      4  N   UNL     1       0.095  -4.117   0.183  0.00  0.00    -0.296 N 
ATOM      5  H   UNL     1       2.068  -2.561  -0.110  0.00  0.00    +0.156 HD
ATOM      6  H   UNL     1       0.942  -4.590   0.172  0.00  0.00    +0.150 HD
ENDROOT
BRANCH   1  11
ATOM      7  C   UNL     1       2.130   1.408  -0.746  0.00  0.00    +0.002 A 
ATOM      8  C   UNL     1       1.198   2.088   0.012  0.00  0.00    +0.010 A 
ATOM      9  C   UNL     1       0.264   1.382   0.768  0.00  0.00    +0.004 A 
ATOM     10  C   UNL     1       0.274  -0.010   0.757  0.00  0.00    +0.033 A 
ATOM     11  C   UNL     1       1.213  -0.686  -0.007  0.00  0.00    +0.035 A 
ATOM     12  C   UNL     1       2.141   0.026  -0.757  0.00  0.00    +0.023 A 
BRANCH   9  13
ATOM     13  C   UNL     1      -0.738   2.112   1.583  0.00  0.00    +0.091 A 
ATOM     14  C   UNL     1      -0.748   3.527   1.587  0.00  0.00    +0.035 A 
ATOM     15  C   UNL     1      -1.683   4.164   2.347  0.00  0.00    +0.073 A 
ATOM     16  C   UNL     1      -2.587   3.369   3.086  0.00  0.00    +0.265 A 
ATOM     17  O   UNL     1      -3.442   3.894   3.781  0.00  0.00    -0.266 OA
ATOM     18  N   UNL     1      -2.499   2.027   3.019  0.00  0.00    -0.243 N 
ATOM     19  H   UNL     1      -3.123   1.487   3.529  0.00  0.00    +0.192 HD
ATOM     20  N   UNL     1      -1.615   1.443   2.293  0.00  0.00    -0.171 NA
ENDBRANCH   9  13
ENDBRANCH   1  11
BRANCH   4  21
ATOM     21  C   UNL     1      -1.160  -4.863   0.302  0.00  0.00    +0.146 C 
BRANCH  21  22
ATOM     22  C   UNL     1      -0.856  -6.360   0.392  0.00  0.00    +0.247 C 
BRANCH  22  23
ATOM     23  O   UNL     1      -0.140  -6.629   1.599  0.00  0.00    -0.490 OA
BRANCH  23  24
ATOM     24  C   UNL     1       0.209  -7.921   1.834  0.00  0.00    +0.121 A 
ATOM     25  C   UNL     1      -0.125  -8.910   0.919  0.00  0.00    +0.046 A 
ATOM     26  C   UNL     1       0.232 -10.220   1.163  0.00  0.00    +0.007 A 
ATOM     27  C   UNL     1       0.923 -10.554   2.317  0.00  0.00    -0.044 A 
ATOM     28  C   UNL     1       1.256  -9.571   3.230  0.00  0.00    -0.041 A 
ATOM     29  C   UNL     1       0.905  -8.255   2.986  0.00  0.00    +0.049 A 
ATOM     30  C   UNL     1       2.001 -10.186   4.395  0.00  0.00    +0.036 C 
ATOM     31  C   UNL     1       1.704 -11.699   4.311  0.00  0.00    +0.009 C 
ATOM     32  C   UNL     1       1.420 -11.897   2.807  0.00  0.00    +0.036 C 
ENDBRANCH  23  24
ENDBRANCH  22  23
ENDBRANCH  21  22
ENDBRANCH   4  21
TORSDOF 6
