REMARK  Name = ZINC09337830
REMARK  9 active torsions:
REMARK  status: ('A' for Active; 'I' for Inactive)
REMARK    1  A    between atoms: C_1  and  C_2
REMARK    2  A    between atoms: C_3  and  C_20
REMARK    3  A    between atoms: C_4  and  C_19
REMARK    4  A    between atoms: C_7  and  C_8
REMARK    5  A    between atoms: C_8  and  C_10
REMARK    6  A    between atoms: C_10  and  O_11
REMARK    7  A    between atoms: O_11  and  C_12
REMARK    8  A    between atoms: C_12  and  C_14
REMARK    9  A    between atoms: C_20  and  C_22
REMARK                            x       y       z     vdW  Elec       q    Type
REMARK                         _______ _______ _______ _____ _____    ______ ____
ROOT
ATOM      1  C   UNL     1      -1.427  10.913  -0.089  0.00  0.00    +0.047 C 
ATOM      2  C   UNL     1      -2.823  10.354   0.004  0.00  0.00    -0.012 A 
ATOM      3  C   UNL     1      -4.004  11.078   0.288  0.00  0.00    +0.041 A 
ATOM      4  C   UNL     1      -5.052  10.170   0.280  0.00  0.00    +0.024 A 
ATOM      5  N   UNL     1      -4.562   8.953   0.003  0.00  0.00    -0.355 N 
ATOM      6  H   UNL     1      -5.086   8.139  -0.063  0.00  0.00    +0.166 HD
ATOM      7  C   UNL     1      -3.196   9.040  -0.174  0.00  0.00    +0.090 A 
ATOM      8  C   UNL     1      -6.500  10.496   0.539  0.00  0.00    +0.064 C 
ENDROOT
BRANCH   3   9
ATOM      9  C   UNL     1      -4.101  12.518   0.549  0.00  0.00    +0.162 C 
ATOM     10  O   UNL     1      -4.066  12.932   1.688  0.00  0.00    -0.292 OA
ATOM     11  C   UNL     1      -4.244  13.484  -0.600  0.00  0.00    +0.091 C 
ENDBRANCH   3   9
BRANCH   7  12
ATOM     12  C   UNL     1      -2.327   7.964  -0.479  0.00  0.00    +0.217 C 
ATOM     13  O   UNL     1      -1.137   8.164  -0.612  0.00  0.00    -0.287 OA
BRANCH  12  14
ATOM     14  C   UNL     1      -2.881   6.572  -0.640  0.00  0.00    +0.313 C 
BRANCH  14  15
ATOM     15  O   UNL     1      -1.798   5.654  -0.948  0.00  0.00    -0.453 OA
BRANCH  15  16
ATOM     16  C   UNL     1      -2.127   4.358  -1.124  0.00  0.00    +0.340 C 
ATOM     17  O   UNL     1      -3.285   4.005  -1.022  0.00  0.00    -0.245 OA
BRANCH  16  18
ATOM     18  C   UNL     1      -1.083   3.372  -1.439  0.00  0.00    +0.066 A 
ATOM     19  C   UNL     1      -1.398   1.979  -1.639  0.00  0.00    +0.022 A 
ATOM     20  C   UNL     1      -0.372   1.152  -1.918  0.00  0.00    +0.046 A 
ATOM     21  S   UNL     1       1.036   2.243  -1.929  0.00  0.00    -0.104 S 
ATOM     22  C   UNL     1       0.242   3.738  -1.562  0.00  0.00    +0.060 A 
ENDBRANCH  16  18
ENDBRANCH  15  16
ENDBRANCH  14  15
ENDBRANCH  12  14
ENDBRANCH   7  12
TORSDOF 6
