REMARK  Name = ZINC20677034
REMARK  7 active torsions:
REMARK  status: ('A' for Active; 'I' for Inactive)
REMARK    1  A    between atoms: C_1  and  C_2
REMARK    2  A    between atoms: C_2  and  O_3
REMARK    3  A    between atoms: O_3  and  C_4
REMARK    4  A    between atoms: C_4  and  C_6
REMARK    5  A    between atoms: C_7  and  N_34
REMARK    6  A    between atoms: N_18  and  C_21
REMARK    7  A    between atoms: C_26  and  C_29
REMARK                            x       y       z     vdW  Elec       q    Type
REMARK                         _______ _______ _______ _____ _____    ______ ____
ROOT
ATOM      1  C   UNL     1      -1.204  -0.722   0.005  0.00  0.00    +0.117 C 
ATOM      2  C   UNL     1      -1.188  -2.077  -0.106  0.00  0.00    +0.195 C 
ATOM      3  O   UNL     1      -2.323  -2.790  -0.101  0.00  0.00    -0.446 OA
ATOM      4  C   UNL     1      -3.452  -2.267   0.414  0.00  0.00    +0.116 C 
ATOM      5  C   UNL     1      -3.606  -0.937   0.557  0.00  0.00    +0.057 C 
ATOM      6  C   UNL     1      -2.510   0.007   0.135  0.00  0.00    +0.141 C 
ATOM      7  C   UNL     1      -2.868   0.700  -1.142  0.00  0.00    -0.001 A 
ATOM      8  C   UNL     1      -3.113   0.213  -2.408  0.00  0.00    +0.022 A 
ATOM      9  C   UNL     1      -3.426   1.145  -3.393  0.00  0.00    +0.018 A 
ATOM     10  C   UNL     1      -3.489   2.495  -3.111  0.00  0.00    +0.017 A 
ATOM     11  C   UNL     1      -3.244   2.991  -1.841  0.00  0.00    +0.025 A 
ATOM     12  C   UNL     1      -2.928   2.067  -0.844  0.00  0.00    +0.041 A 
ATOM     13  N   UNL     1      -2.641   2.280   0.493  0.00  0.00    -0.273 N 
ATOM     14  C   UNL     1      -2.382   1.128   1.145  0.00  0.00    +0.240 C 
ATOM     15  O   UNL     1      -2.100   1.011   2.319  0.00  0.00    -0.274 OA
ATOM     16  C   UNL     1      -2.620   3.601   1.125  0.00  0.00    +0.138 C 
ATOM     17 BR   UNL     1      -3.774   0.549  -5.154  0.00  0.00    -0.050 Br
ATOM     18  C   UNL     1      -4.783  -0.391   1.103  0.00  0.00    +0.165 C 
ATOM     19  O   UNL     1      -4.891   0.814   1.202  0.00  0.00    -0.292 OA
ATOM     20  C   UNL     1      -5.910  -1.274   1.567  0.00  0.00    +0.091 C 
ATOM     21  C   UNL     1      -5.333  -2.627   1.999  0.00  0.00    +0.070 C 
ATOM     22  C   UNL     1      -4.551  -3.218   0.824  0.00  0.00    +0.086 C 
ENDROOT
BRANCH  21  23
ATOM     23  C   UNL     1      -6.452  -3.560   2.383  0.00  0.00    +0.109 A 
ATOM     24  C   UNL     1      -6.609  -4.149   3.582  0.00  0.00    +0.045 A 
ATOM     25  C   UNL     1      -7.784  -4.932   3.503  0.00  0.00    +0.041 A 
ATOM     26  C   UNL     1      -8.270  -4.782   2.258  0.00  0.00    +0.195 A 
ATOM     27  O   UNL     1      -7.459  -3.950   1.584  0.00  0.00    -0.468 OA
ENDBRANCH  21  23
BRANCH   2  28
ATOM     28  N   UNL     1       0.012  -2.727  -0.220  0.00  0.00    -0.329 N 
ATOM     29  H   UNL     1       0.037  -3.823  -0.310  0.00  0.00    +0.145 HD
ATOM     30  H   UNL     1       0.950  -2.153  -0.221  0.00  0.00    +0.145 HD
ENDBRANCH   2  28
BRANCH   1  31
ATOM     31  C   UNL     1       0.002  -0.003  -0.007  0.00  0.00    +0.342 C 
ATOM     32  O   UNL     1       0.361   0.566  -1.022  0.00  0.00    -0.245 OA
BRANCH  31  33
ATOM     33  O   UNL     1       0.763   0.057   1.106  0.00  0.00    -0.462 OA
BRANCH  33  35
ATOM     34  C   UNL     1       2.700   0.760   2.370  0.00  0.00    +0.048 C 
ATOM     35  C   UNL     1       1.978   0.806   1.022  0.00  0.00    +0.229 C 
ENDBRANCH  33  35
ENDBRANCH  31  33
ENDBRANCH   1  31
TORSDOF 5
