REMARK  Name = ZINC04259105
REMARK  6 active torsions:
REMARK  status: ('A' for Active; 'I' for Inactive)
REMARK    1  A    between atoms: C_1  and  C_2
REMARK    2  A    between atoms: C_2  and  C_4
REMARK    3  A    between atoms: C_7  and  N_10
REMARK    4  A    between atoms: C_24  and  N_29
REMARK    5  A    between atoms: N_32  and  C_33
REMARK    6  A    between atoms: C_37  and  C_39
REMARK                            x       y       z     vdW  Elec       q    Type
REMARK                         _______ _______ _______ _____ _____    ______ ____
ROOT
ATOM      1  N   UNL     1      -2.367   0.218  -4.257  0.00  0.00    -0.269 N 
ATOM      2  C   UNL     1      -1.517   1.255  -4.121  0.00  0.00    +0.306 C 
ATOM      3  O   UNL     1      -0.975   1.729  -5.101  0.00  0.00    -0.252 OA
ATOM      4  N   UNL     1      -1.268   1.767  -2.900  0.00  0.00    -0.284 N 
ATOM      5  C   UNL     1      -1.995   1.282  -1.720  0.00  0.00    +0.114 C 
ATOM      6  C   UNL     1      -1.018   0.928  -0.608  0.00  0.00    +0.027 C 
ATOM      7  C   UNL     1      -0.028   2.066  -0.360  0.00  0.00    +0.018 C 
ATOM      8  C   UNL     1       0.739   2.329  -1.659  0.00  0.00    +0.054 C 
ATOM      9  C   UNL     1      -0.261   2.825  -2.718  0.00  0.00    +0.119 C 
ATOM     10  C   UNL     1       1.342   1.040  -2.165  0.00  0.00    +0.027 A 
ATOM     11  C   UNL     1       2.436   1.137  -2.966  0.00  0.00    +0.024 A 
ATOM     12  C   UNL     1       2.993  -0.003  -3.556  0.00  0.00    +0.030 A 
ATOM     13  C   UNL     1       2.409  -1.218  -3.324  0.00  0.00    +0.100 A 
ATOM     14  C   UNL     1       1.284  -1.285  -2.481  0.00  0.00    +0.273 A 
ATOM     15  O   UNL     1       0.729  -2.357  -2.298  0.00  0.00    -0.266 OA
ATOM     16  N   UNL     1       0.809  -0.171  -1.870  0.00  0.00    -0.310 N 
ATOM     17  C   UNL     1      -0.266  -0.358  -0.895  0.00  0.00    +0.130 C 
ATOM     18  H   UNL     1      -2.879  -0.092  -3.494  0.00  0.00    +0.156 HD
ENDROOT
BRANCH   1  22
ATOM     19  C   UNL     1      -2.793  -1.650  -7.944  0.00  0.00    +0.017 A 
ATOM     20  C   UNL     1      -3.892  -1.539  -7.082  0.00  0.00    +0.013 A 
ATOM     21  C   UNL     1      -3.747  -0.924  -5.871  0.00  0.00    +0.024 A 
ATOM     22  C   UNL     1      -2.510  -0.408  -5.493  0.00  0.00    +0.035 A 
ATOM     23  C   UNL     1      -1.417  -0.511  -6.349  0.00  0.00    +0.024 A 
ATOM     24  C   UNL     1      -1.551  -1.129  -7.560  0.00  0.00    +0.013 A 
BRANCH  19  26
ATOM     25  C   UNL     1      -1.761  -2.429 -10.173  0.00  0.00    +0.091 C 
ATOM     26  C   UNL     1      -2.944  -2.311  -9.247  0.00  0.00    +0.160 C 
ATOM     27  O   UNL     1      -4.021  -2.761  -9.577  0.00  0.00    -0.292 OA
ENDBRANCH  19  26
ENDBRANCH   1  22
BRANCH  13  28
ATOM     28  N   UNL     1       2.924  -2.379  -3.917  0.00  0.00    -0.265 N 
ATOM     29  C   UNL     1       3.349  -3.399  -3.144  0.00  0.00    +0.308 C 
ATOM     30  O   UNL     1       3.206  -3.348  -1.938  0.00  0.00    -0.252 OA
ATOM     31  N   UNL     1       3.932  -4.475  -3.709  0.00  0.00    -0.269 N 
ATOM     32  H   UNL     1       2.975  -2.449  -4.883  0.00  0.00    +0.157 HD
ATOM     33  H   UNL     1       4.097  -4.491  -4.665  0.00  0.00    +0.156 HD
BRANCH  31  34
ATOM     34  C   UNL     1       4.300  -5.568  -2.917  0.00  0.00    +0.036 A 
ATOM     35  C   UNL     1       4.161  -6.861  -3.408  0.00  0.00    +0.023 A 
ATOM     36  C   UNL     1       4.523  -7.944  -2.630  0.00  0.00    +0.003 A 
ATOM     37  C   UNL     1       5.026  -7.749  -1.359  0.00  0.00    +0.019 A 
ATOM     38  C   UNL     1       5.170  -6.455  -0.856  0.00  0.00    +0.054 A 
ATOM     39  C   UNL     1       4.808  -5.361  -1.644  0.00  0.00    +0.042 A 
BRANCH  38  40
ATOM     40  C   UNL     1       5.691  -6.250   0.462  0.00  0.00    +0.099 C 
ATOM     41  N   UNL     1       6.105  -6.087   1.507  0.00  0.00    -0.191 NA
ENDBRANCH  38  40
ENDBRANCH  31  34
ENDBRANCH  13  28
TORSDOF 5
