REMARK  Name = ZINC61608346
REMARK  8 active torsions:
REMARK  status: ('A' for Active; 'I' for Inactive)
REMARK    1  A    between atoms: C_1  and  C_2
REMARK    2  A    between atoms: C_2  and  C_3
REMARK    3  A    between atoms: C_2  and  N_4
REMARK    4  A    between atoms: C_10  and  S_11
REMARK    5  A    between atoms: S_11  and  C_12
REMARK    6  A    between atoms: C_12  and  C_13
REMARK    7  A    between atoms: C_15  and  N_20
REMARK    8  A    between atoms: C_18  and  N_19
REMARK                            x       y       z     vdW  Elec       q    Type
REMARK                         _______ _______ _______ _____ _____    ______ ____
ROOT
ATOM      1  C   UNL     1      -2.420  -2.873  -3.248  0.00  0.00    +0.114 C 
ENDROOT
BRANCH   1   2
ATOM      2  C   UNL     1      -1.859  -3.437  -4.528  0.00  0.00    -0.014 A 
ATOM      3  C   UNL     1      -1.962  -2.719  -5.704  0.00  0.00    +0.039 A 
ATOM      4  C   UNL     1      -1.448  -3.235  -6.879  0.00  0.00    +0.127 A 
ATOM      5  C   UNL     1      -0.830  -4.473  -6.882  0.00  0.00    +0.034 A 
ATOM      6  C   UNL     1      -0.725  -5.196  -5.710  0.00  0.00    +0.025 A 
ATOM      7  C   UNL     1      -1.235  -4.678  -4.527  0.00  0.00    +0.029 A 
BRANCH   7   8
ATOM      8  N   UNL     1      -1.124  -5.404  -3.339  0.00  0.00    -0.358 N 
ATOM      9  H   UNL     1      -1.484  -5.043  -2.514  0.00  0.00    +0.142 HD
ATOM     10  H   UNL     1      -0.688  -6.270  -3.339  0.00  0.00    +0.142 HD
ENDBRANCH   7   8
BRANCH   4  11
ATOM     11  N   UNL     1      -1.560  -2.463  -8.136  0.00  0.00    +0.056 N 
ATOM     12  O   UNL     1      -2.100  -1.381  -8.135  0.00  0.00    -0.126 OA
ATOM     13  O   UNL     1      -1.111  -2.914  -9.164  0.00  0.00    -0.126 OA
ENDBRANCH   4  11
ENDBRANCH   1   2
BRANCH   1  14
ATOM     14  S   UNL     1      -1.145  -1.891  -2.411  0.00  0.00    -0.081 S 
BRANCH  14  21
ATOM     15  N   UNL     1      -1.372  -0.511   0.012  0.00  0.00    -0.268 N 
ATOM     16  C   UNL     1      -2.294  -0.272   0.966  0.00  0.00    +0.345 A 
ATOM     17  O   UNL     1      -2.135   0.402   1.969  0.00  0.00    -0.245 OA
ATOM     18  N   UNL     1      -3.426  -0.913   0.609  0.00  0.00    -0.226 N 
ATOM     19  H   UNL     1      -4.261  -0.923   1.102  0.00  0.00    +0.194 HD
ATOM     20  N   UNL     1      -3.173  -1.563  -0.607  0.00  0.00    -0.145 NA
ATOM     21  C   UNL     1      -1.944  -1.308  -0.953  0.00  0.00    +0.193 A 
BRANCH  15  23
ATOM     22  C   UNL     1      -0.019   1.526   0.010  0.00  0.00    +0.031 C 
ATOM     23  C   UNL     1       0.002  -0.004   0.002  0.00  0.00    +0.088 C 
ATOM     24  C   UNL     1       0.742  -0.511   1.242  0.00  0.00    +0.031 C 
ENDBRANCH  15  23
ENDBRANCH  14  21
ENDBRANCH   1  14
TORSDOF 6
