REMARK  Name = ZINC62496864
REMARK  7 active torsions:
REMARK  status: ('A' for Active; 'I' for Inactive)
REMARK    1  A    between atoms: C_1  and  C_2
REMARK    2  A    between atoms: C_2  and  N_3
REMARK    3  A    between atoms: C_6  and  O_24
REMARK    4  A    between atoms: C_11  and  C_15
REMARK    5  A    between atoms: C_15  and  C_16
REMARK    6  A    between atoms: C_20  and  C_23
REMARK    7  A    between atoms: C_21  and  C_22
REMARK                            x       y       z     vdW  Elec       q    Type
REMARK                         _______ _______ _______ _____ _____    ______ ____
ROOT
ATOM      1  N   UNL     1      -1.372  -0.511   0.012  0.00  0.00    -0.265 N 
ATOM      2  C   UNL     1      -2.028  -0.758   1.226  0.00  0.00    +0.082 A 
ATOM      3  C   UNL     1      -1.325  -0.746   2.420  0.00  0.00    +0.072 A 
ATOM      4  C   UNL     1      -1.986  -1.005   3.612  0.00  0.00    +0.119 A 
ATOM      5  C   UNL     1      -3.346  -1.275   3.608  0.00  0.00    +0.049 A 
ATOM      6  C   UNL     1      -4.050  -1.282   2.418  0.00  0.00    +0.051 A 
ATOM      7  C   UNL     1      -3.397  -1.018   1.226  0.00  0.00    +0.143 A 
ATOM      8  O   UNL     1      -4.087  -0.991   0.054  0.00  0.00    -0.477 OA
ATOM      9  C   UNL     1      -3.383  -1.395  -1.123  0.00  0.00    +0.263 C 
ATOM     10  C   UNL     1      -2.024  -0.741  -1.147  0.00  0.00    +0.261 C 
ATOM     11  O   UNL     1      -1.517  -0.428  -2.203  0.00  0.00    -0.271 OA
ENDROOT
BRANCH   1  13
ATOM     12  C   UNL     1      -0.019   1.526   0.010  0.00  0.00    +0.025 C 
ATOM     13  C   UNL     1       0.002  -0.004   0.002  0.00  0.00    +0.110 C 
ENDBRANCH   1  13
BRANCH   4  14
ATOM     14  O   UNL     1      -1.299  -0.995   4.785  0.00  0.00    -0.507 OA
ATOM     15  H   UNL     1      -1.271  -0.130   5.217  0.00  0.00    +0.292 HD
ENDBRANCH   4  14
BRANCH   9  16
ATOM     16  C   UNL     1      -3.222  -2.916  -1.124  0.00  0.00    +0.089 C 
BRANCH  16  17
ATOM     17  C   UNL     1      -4.578  -3.565  -1.228  0.00  0.00    -0.040 A 
ATOM     18  C   UNL     1      -5.245  -3.961  -0.084  0.00  0.00    +0.004 A 
ATOM     19  C   UNL     1      -6.489  -4.556  -0.179  0.00  0.00    +0.001 A 
ATOM     20  C   UNL     1      -7.067  -4.754  -1.420  0.00  0.00    +0.003 A 
ATOM     21  C   UNL     1      -6.401  -4.357  -2.564  0.00  0.00    -0.047 A 
ATOM     22  C   UNL     1      -5.158  -3.758  -2.468  0.00  0.00    -0.044 A 
ATOM     23  C   UNL     1      -4.434  -3.320  -3.715  0.00  0.00    +0.044 C 
ATOM     24  C   UNL     1      -7.030  -4.574  -3.916  0.00  0.00    +0.044 C 
ENDBRANCH  16  17
ENDBRANCH   9  16
TORSDOF 4
