REMARK  Name = ZINC17026690
REMARK  8 active torsions:
REMARK  status: ('A' for Active; 'I' for Inactive)
REMARK    1  A    between atoms: C_1  and  C_2
REMARK    2  A    between atoms: C_5  and  C_33
REMARK    3  A    between atoms: C_6  and  N_8
REMARK    4  A    between atoms: C_9  and  C_22
REMARK    5  A    between atoms: C_12  and  S_13
REMARK    6  A    between atoms: S_13  and  C_14
REMARK    7  A    between atoms: C_14  and  C_15
REMARK    8  A    between atoms: C_22  and  C_23
REMARK                            x       y       z     vdW  Elec       q    Type
REMARK                         _______ _______ _______ _____ _____    ______ ____
ROOT
ATOM      1  N   UNL     1       1.287   1.724  -0.001  0.00  0.00    -0.274 N 
ATOM      2  C   UNL     1      -0.016   1.299   0.009  0.00  0.00    +0.144 A 
ATOM      3  N   UNL     1       0.002  -0.004   0.002  0.00  0.00    -0.133 NA
ATOM      4  N   UNL     1       1.214  -0.430  -0.012  0.00  0.00    -0.122 NA
ATOM      5  C   UNL     1       2.046   0.586  -0.014  0.00  0.00    +0.196 A 
ENDROOT
BRANCH   1  11
ATOM      6  C   UNL     1       2.695   5.713   2.508  0.00  0.00    +0.044 C 
ATOM      7  C   UNL     1       2.436   5.005   1.203  0.00  0.00    -0.048 A 
ATOM      8  C   UNL     1       2.650   5.664   0.006  0.00  0.00    +0.004 A 
ATOM      9  C   UNL     1       2.414   5.018  -1.193  0.00  0.00    +0.005 A 
ATOM     10  C   UNL     1       1.962   3.712  -1.199  0.00  0.00    -0.026 A 
ATOM     11  C   UNL     1       1.746   3.049   0.001  0.00  0.00    +0.053 A 
ATOM     12  C   UNL     1       1.979   3.702   1.204  0.00  0.00    +0.030 A 
ATOM     13  C   UNL     1       1.705   3.008  -2.506  0.00  0.00    +0.046 C 
ENDBRANCH   1  11
BRANCH   5  14
ATOM     14  S   UNL     1       3.806   0.500  -0.031  0.00  0.00    -0.081 S 
BRANCH  14  15
ATOM     15  C   UNL     1       4.033  -1.295  -0.043  0.00  0.00    +0.112 C 
BRANCH  15  16
ATOM     16  C   UNL     1       5.505  -1.615  -0.059  0.00  0.00    -0.034 A 
ATOM     17  C   UNL     1       6.192  -1.769   1.132  0.00  0.00    +0.004 A 
ATOM     18  C   UNL     1       7.542  -2.062   1.119  0.00  0.00    +0.003 A 
ATOM     19  C   UNL     1       8.208  -2.203  -0.084  0.00  0.00    +0.038 A 
ATOM     20  C   UNL     1       7.522  -2.049  -1.276  0.00  0.00    +0.124 A 
ATOM     21  C   UNL     1       6.168  -1.761  -1.262  0.00  0.00    +0.042 A 
ATOM     22  F   UNL     1       8.172  -2.187  -2.453  0.00  0.00    -0.205 F 
ENDBRANCH  15  16
ENDBRANCH  14  15
ENDBRANCH   5  14
BRANCH   2  23
ATOM     23  C   UNL     1      -1.241   2.176   0.020  0.00  0.00    +0.130 C 
BRANCH  23  24
ATOM     24  C   UNL     1      -1.642   2.461   1.444  0.00  0.00    +0.033 A 
ATOM     25  C   UNL     1      -1.225   3.591   2.054  0.00  0.00    +0.091 A 
ATOM     26  C   UNL     1      -1.615   3.836   3.392  0.00  0.00    +0.254 A 
ATOM     27  O   UNL     1      -1.250   4.849   3.962  0.00  0.00    -0.268 OA
ATOM     28  N   UNL     1      -2.393   2.939   4.030  0.00  0.00    -0.275 N 
ATOM     29  H   UNL     1      -2.673   3.105   4.975  0.00  0.00    +0.173 HD
ATOM     30  C   UNL     1      -2.796   1.820   3.398  0.00  0.00    +0.327 A 
ATOM     31  O   UNL     1      -3.498   1.020   3.986  0.00  0.00    -0.247 OA
ATOM     32  N   UNL     1      -2.437   1.578   2.125  0.00  0.00    -0.311 N 
ATOM     33  H   UNL     1      -2.753   0.745   1.671  0.00  0.00    +0.170 HD
ENDBRANCH  23  24
ENDBRANCH   2  23
TORSDOF 6
