REMARK  Name = ZINC50441533
REMARK  9 active torsions:
REMARK  status: ('A' for Active; 'I' for Inactive)
REMARK    1  A    between atoms: C_1  and  C_2
REMARK    2  A    between atoms: C_2  and  C_3
REMARK    3  A    between atoms: C_2  and  C_18
REMARK    4  A    between atoms: C_2  and  N_21
REMARK    5  A    between atoms: C_3  and  C_4
REMARK    6  A    between atoms: C_4  and  C_5
REMARK    7  A    between atoms: C_5  and  O_6
REMARK    8  A    between atoms: O_6  and  C_7
REMARK    9  A    between atoms: C_10  and  N_14
REMARK                            x       y       z     vdW  Elec       q    Type
REMARK                         _______ _______ _______ _____ _____    ______ ____
ROOT
ATOM      1  C   UNL     1       2.178   0.019   1.231  0.00  0.00    +0.040 C 
ENDROOT
BRANCH   1   2
ATOM      2  C   UNL     1       0.742  -0.511   1.242  0.00  0.00    -0.001 C 
BRANCH   2   4
ATOM      3  C   UNL     1      -0.019   1.526   0.010  0.00  0.00    -0.001 C 
ATOM      4  C   UNL     1       0.002  -0.004   0.002  0.00  0.00    +0.004 C 
BRANCH   4   5
ATOM      5  C   UNL     1      -1.412  -0.526   0.013  0.00  0.00    +0.199 C 
ATOM      6  O   UNL     1      -1.939  -0.827   1.062  0.00  0.00    -0.278 OA
ATOM      7  N   UNL     1      -2.090  -0.657  -1.144  0.00  0.00    -0.330 N 
ATOM      8  H   UNL     1      -1.669  -0.416  -1.984  0.00  0.00    +0.145 HD
ATOM      9  H   UNL     1      -3.000  -0.993  -1.137  0.00  0.00    +0.145 HD
ENDBRANCH   4   5
BRANCH   4  10
ATOM     10  N   UNL     1       0.690  -0.478  -1.207  0.00  0.00    +0.387 N 
ATOM     11  H   UNL     1       1.636  -0.129  -1.214  0.00  0.00    -0.089 HD
ATOM     12  H   UNL     1       0.703  -1.487  -1.212  0.00  0.00    -0.089 HD
ATOM     13  H   UNL     1       0.202  -0.144  -2.024  0.00  0.00    -0.089 HD
ENDBRANCH   4  10
ENDBRANCH   2   4
ENDBRANCH   1   2
BRANCH   1  14
ATOM     14  C   UNL     1       2.917  -0.488   2.470  0.00  0.00    +0.229 C 
BRANCH  14  15
ATOM     15  O   UNL     1       4.258   0.006   2.460  0.00  0.00    -0.490 OA
BRANCH  15  16
ATOM     16  C   UNL     1       5.057  -0.354   3.499  0.00  0.00    +0.148 A 
ATOM     17  C   UNL     1       5.106   0.432   4.643  0.00  0.00    +0.063 A 
ATOM     18  C   UNL     1       5.919   0.063   5.698  0.00  0.00    +0.051 A 
ATOM     19  C   UNL     1       6.682  -1.087   5.616  0.00  0.00    +0.129 A 
ATOM     20  C   UNL     1       6.635  -1.872   4.478  0.00  0.00    +0.051 A 
ATOM     21  C   UNL     1       5.819  -1.510   3.422  0.00  0.00    +0.063 A 
ATOM     22 BR   UNL     1       5.749  -2.588   1.869  0.00  0.00    -0.046 Br
ATOM     23 BR   UNL     1       4.064   2.005   4.756  0.00  0.00    -0.046 Br
BRANCH  19  24
ATOM     24  N   UNL     1       7.552  -1.479   6.748  0.00  0.00    +0.056 N 
ATOM     25  O   UNL     1       7.595  -0.794   7.743  0.00  0.00    -0.126 OA
ATOM     26  O   UNL     1       8.220  -2.485   6.677  0.00  0.00    -0.126 OA
ENDBRANCH  19  24
ENDBRANCH  15  16
ENDBRANCH  14  15
ENDBRANCH   1  14
TORSDOF 8
