REMARK  Name = ZINC67247964
REMARK  10 active torsions:
REMARK  status: ('A' for Active; 'I' for Inactive)
REMARK    1  A    between atoms: C_1  and  C_2
REMARK    2  A    between atoms: C_2  and  C_4
REMARK    3  A    between atoms: C_2  and  N_15
REMARK    4  A    between atoms: C_7  and  S_10
REMARK    5  A    between atoms: S_10  and  N_13
REMARK    6  A    between atoms: N_13  and  C_14
REMARK    7  A    between atoms: N_15  and  C_16
REMARK    8  A    between atoms: C_16  and  C_17
REMARK    9  A    between atoms: C_21  and  O_23
REMARK   10  A    between atoms: O_23  and  C_24
REMARK                            x       y       z     vdW  Elec       q    Type
REMARK                         _______ _______ _______ _____ _____    ______ ____
ROOT
ATOM      1  N   UNL     1       0.713  -0.491   1.192  0.00  0.00    +0.386 N 
ATOM      2  H   UNL     1       0.290  -0.099   2.020  0.00  0.00    -0.085 HD
ATOM      3  H   UNL     1       0.655  -1.497   1.230  0.00  0.00    -0.085 HD
ENDROOT
BRANCH   1   5
ATOM      4  C   UNL     1      -0.019   1.526   0.010  0.00  0.00    -0.009 C 
ATOM      5  C   UNL     1       0.002  -0.004   0.002  0.00  0.00    -0.044 C 
BRANCH   5   6
ATOM      6  C   UNL     1      -1.412  -0.526   0.013  0.00  0.00    -0.062 A 
ATOM      7  C   UNL     1      -2.123  -0.571   1.197  0.00  0.00    +0.004 A 
ATOM      8  C   UNL     1      -3.420  -1.049   1.207  0.00  0.00    +0.029 A 
ATOM      9  C   UNL     1      -4.006  -1.482   0.032  0.00  0.00    +0.105 A 
ATOM     10  C   UNL     1      -3.295  -1.436  -1.153  0.00  0.00    +0.029 A 
ATOM     11  C   UNL     1      -2.000  -0.954  -1.163  0.00  0.00    +0.004 A 
BRANCH   9  12
ATOM     12  S   UNL     1      -5.658  -2.093   0.045  0.00  0.00    +0.058 S 
ATOM     13  O   UNL     1      -5.785  -2.944  -1.086  0.00  0.00    -0.153 OA
ATOM     14  O   UNL     1      -5.915  -2.542   1.369  0.00  0.00    -0.153 OA
BRANCH  12  15
ATOM     15  N   UNL     1      -6.660  -0.801  -0.219  0.00  0.00    -0.193 NA
ATOM     16  C   UNL     1      -6.617  -0.091  -1.500  0.00  0.00    +0.127 C 
ATOM     17  H   UNL     1      -7.275  -0.515   0.474  0.00  0.00    +0.148 HD
ENDBRANCH  12  15
ENDBRANCH   9  12
ENDBRANCH   5   6
ENDBRANCH   1   5
BRANCH   1  18
ATOM     18  C   UNL     1       2.122  -0.083   1.122  0.00  0.00    -0.046 C 
BRANCH  18  19
ATOM     19  C   UNL     1       2.851  -0.582   2.343  0.00  0.00    -0.057 A 
ATOM     20  C   UNL     1       2.913   0.205   3.478  0.00  0.00    +0.051 A 
ATOM     21  C   UNL     1       3.583  -0.250   4.604  0.00  0.00    +0.170 A 
ATOM     22  C   UNL     1       4.192  -1.501   4.589  0.00  0.00    +0.208 A 
ATOM     23  C   UNL     1       4.126  -2.288   3.446  0.00  0.00    +0.166 A 
ATOM     24  C   UNL     1       3.450  -1.827   2.327  0.00  0.00    +0.051 A 
ATOM     25  O   UNL     1       4.779  -1.715   5.804  0.00  0.00    -0.449 OA
ATOM     26  C   UNL     1       4.872  -0.417   6.420  0.00  0.00    +0.467 C 
ATOM     27  O   UNL     1       3.787   0.321   5.827  0.00  0.00    -0.452 OA
BRANCH  23  28
ATOM     28  O   UNL     1       4.720  -3.511   3.428  0.00  0.00    -0.491 OA
ATOM     29  C   UNL     1       4.612  -4.266   2.219  0.00  0.00    +0.277 C 
ENDBRANCH  23  28
ENDBRANCH  18  19
ENDBRANCH   1  18
TORSDOF 7
