REMARK  Name = ZINC04190913
REMARK  12 active torsions:
REMARK  status: ('A' for Active; 'I' for Inactive)
REMARK    1  A    between atoms: C_1  and  C_2
REMARK    2  A    between atoms: C_2  and  O_3
REMARK    3  A    between atoms: O_3  and  C_4
REMARK    4  A    between atoms: C_4  and  C_5
REMARK    5  A    between atoms: C_5  and  C_6
REMARK    6  A    between atoms: C_6  and  N_7
REMARK    7  A    between atoms: C_8  and  C_10
REMARK    8  A    between atoms: C_12  and  N_22
REMARK    9  A    between atoms: C_15  and  N_16
REMARK   10  A    between atoms: C_23  and  C_25
REMARK   11  A    between atoms: C_28  and  C_34
REMARK   12  A    between atoms: C_29  and  N_31
REMARK                            x       y       z     vdW  Elec       q    Type
REMARK                         _______ _______ _______ _____ _____    ______ ____
ROOT
ATOM      1  C   UNL     1       0.634  -2.421  -1.356  0.00  0.00    +0.059 A 
ATOM      2  C   UNL     1       0.029  -3.061  -0.272  0.00  0.00    +0.038 A 
ATOM      3  C   UNL     1       0.089  -4.439  -0.165  0.00  0.00    +0.035 A 
ATOM      4  C   UNL     1       0.750  -5.189  -1.134  0.00  0.00    +0.025 A 
ATOM      5  C   UNL     1       1.349  -4.566  -2.208  0.00  0.00    +0.026 A 
ATOM      6  C   UNL     1       1.293  -3.183  -2.333  0.00  0.00    +0.042 A 
ENDROOT
BRANCH   6   7
ATOM      7  N   UNL     1       1.893  -2.556  -3.419  0.00  0.00    -0.329 N 
ATOM      8  C   UNL     1       1.242  -2.945  -4.677  0.00  0.00    +0.105 C 
ATOM      9  C   UNL     1       1.829  -2.129  -5.830  0.00  0.00    +0.019 C 
ATOM     10  C   UNL     1       3.337  -2.385  -5.914  0.00  0.00    +0.003 C 
ATOM     11  C   UNL     1       3.984  -2.017  -4.576  0.00  0.00    +0.019 C 
ATOM     12  C   UNL     1       3.334  -2.836  -3.459  0.00  0.00    +0.105 C 
ENDBRANCH   6   7
BRANCH   1  14
ATOM     13  N   UNL     1      -0.065  -0.225  -0.541  0.00  0.00    -0.311 N 
ATOM     14  C   UNL     1       0.574  -0.953  -1.478  0.00  0.00    +0.246 C 
ATOM     15  O   UNL     1       1.102  -0.399  -2.423  0.00  0.00    -0.270 OA
ATOM     16  H   UNL     1      -0.486  -0.667   0.213  0.00  0.00    +0.149 HD
BRANCH  13  17
ATOM     17  C   UNL     1      -0.124   1.234  -0.661  0.00  0.00    +0.107 C 
BRANCH  17  18
ATOM     18  C   UNL     1      -0.901   1.812   0.523  0.00  0.00    +0.047 C 
BRANCH  18  19
ATOM     19  C   UNL     1      -0.963   3.336   0.397  0.00  0.00    +0.161 C 
BRANCH  19  20
ATOM     20  O   UNL     1      -1.689   3.876   1.503  0.00  0.00    -0.380 OA
BRANCH  20  22
ATOM     21  C   UNL     1      -2.597   5.765   2.706  0.00  0.00    +0.034 C 
ATOM     22  C   UNL     1      -1.806   5.300   1.482  0.00  0.00    +0.156 C 
ENDBRANCH  20  22
ENDBRANCH  19  20
ENDBRANCH  18  19
ENDBRANCH  17  18
ENDBRANCH  13  17
ENDBRANCH   1  14
BRANCH   3  23
ATOM     23  N   UNL     1      -0.517  -5.082   0.923  0.00  0.00    -0.281 N 
ATOM     24  C   UNL     1      -1.103  -6.284   0.753  0.00  0.00    +0.248 C 
ATOM     25  O   UNL     1      -1.022  -6.855  -0.317  0.00  0.00    -0.270 OA
ATOM     26  H   UNL     1      -0.515  -4.663   1.797  0.00  0.00    +0.155 HD
BRANCH  24  27
ATOM     27  C   UNL     1      -1.845  -6.908   1.869  0.00  0.00    +0.039 A 
ATOM     28  C   UNL     1      -1.935  -6.258   3.102  0.00  0.00    +0.013 A 
ATOM     29  C   UNL     1      -2.634  -6.844   4.137  0.00  0.00    +0.006 A 
ATOM     30  C   UNL     1      -3.235  -8.078   3.960  0.00  0.00    -0.020 A 
ATOM     31  C   UNL     1      -3.144  -8.729   2.743  0.00  0.00    +0.130 A 
ATOM     32  C   UNL     1      -2.453  -8.153   1.697  0.00  0.00    +0.046 A 
ATOM     33  C   UNL     1      -3.991  -8.714   5.098  0.00  0.00    +0.046 C 
BRANCH  31  34
ATOM     34  N   UNL     1      -3.791 -10.049   2.562  0.00  0.00    +0.057 N 
ATOM     35  O   UNL     1      -3.676 -10.644   1.506  0.00  0.00    -0.126 OA
ATOM     36  O   UNL     1      -4.437 -10.540   3.471  0.00  0.00    -0.126 OA
ENDBRANCH  31  34
ENDBRANCH  24  27
ENDBRANCH   3  23
TORSDOF 10
