REMARK  Name = ZINC46028215
REMARK  7 active torsions:
REMARK  status: ('A' for Active; 'I' for Inactive)
REMARK    1  A    between atoms: C_1  and  C_2
REMARK    2  A    between atoms: C_2  and  C_4
REMARK    3  A    between atoms: C_2  and  O_17
REMARK    4  A    between atoms: N_6  and  N_7
REMARK    5  A    between atoms: N_10  and  C_11
REMARK    6  A    between atoms: C_11  and  C_12
REMARK    7  A    between atoms: O_17  and  C_18
REMARK                            x       y       z     vdW  Elec       q    Type
REMARK                         _______ _______ _______ _____ _____    ______ ____
ROOT
ATOM      1  C   UNL     1       0.862  -0.292   1.210  0.00  0.00    +0.270 C 
ATOM      2  O   UNL     1       1.978  -0.743   1.067  0.00  0.00    -0.270 OA
ATOM      3  N   UNL     1       0.390  -0.041   2.447  0.00  0.00    -0.230 N 
ATOM      4  H   UNL     1      -0.503   0.320   2.562  0.00  0.00    +0.173 HD
ENDROOT
BRANCH   3   5
ATOM      5  N   UNL     1       1.189  -0.301   3.568  0.00  0.00    -0.218 N 
ATOM      6  C   UNL     1       0.718  -0.051   4.805  0.00  0.00    +0.316 C 
ATOM      7  O   UNL     1       1.412  -0.277   5.778  0.00  0.00    -0.251 OA
ATOM      8  N   UNL     1      -0.523   0.451   4.965  0.00  0.00    -0.294 N 
ATOM      9  H   UNL     1       2.083  -0.662   3.453  0.00  0.00    +0.174 HD
ATOM     10  H   UNL     1      -1.077   0.631   4.189  0.00  0.00    +0.151 HD
BRANCH   8  11
ATOM     11  C   UNL     1      -1.036   0.723   6.310  0.00  0.00    +0.141 C 
BRANCH  11  12
ATOM     12  C   UNL     1      -2.435   1.274   6.212  0.00  0.00    -0.023 A 
ATOM     13  C   UNL     1      -2.647   2.636   6.104  0.00  0.00    +0.013 A 
ATOM     14  C   UNL     1      -3.918   3.099   6.018  0.00  0.00    +0.045 A 
ATOM     15  S   UNL     1      -4.867   1.588   6.088  0.00  0.00    -0.105 S 
ATOM     16  C   UNL     1      -3.505   0.442   6.222  0.00  0.00    +0.050 A 
ENDBRANCH  11  12
ENDBRANCH   8  11
ENDBRANCH   3   5
BRANCH   1  18
ATOM     17  C   UNL     1      -0.255   1.493  -0.101  0.00  0.00    +0.062 C 
ATOM     18  C   UNL     1       0.002  -0.012   0.005  0.00  0.00    +0.257 C 
BRANCH  18  19
ATOM     19  O   UNL     1       0.671  -0.465  -1.174  0.00  0.00    -0.480 OA
BRANCH  19  20
ATOM     20  C   UNL     1      -0.106  -0.775  -2.244  0.00  0.00    +0.122 A 
ATOM     21  C   UNL     1      -1.482  -0.529  -2.192  0.00  0.00    +0.046 A 
ATOM     22  C   UNL     1      -2.286  -0.828  -3.248  0.00  0.00    +0.012 A 
ATOM     23  C   UNL     1      -1.730  -1.392  -4.409  0.00  0.00    -0.018 A 
ATOM     24  C   UNL     1      -2.532  -1.713  -5.518  0.00  0.00    +0.008 A 
ATOM     25  C   UNL     1      -1.961  -2.258  -6.627  0.00  0.00    +0.001 A 
ATOM     26  C   UNL     1      -0.590  -2.503  -6.682  0.00  0.00    +0.001 A 
ATOM     27  C   UNL     1       0.217  -2.205  -5.627  0.00  0.00    +0.008 A 
ATOM     28  C   UNL     1      -0.336  -1.642  -4.465  0.00  0.00    -0.014 A 
ATOM     29  C   UNL     1       0.467  -1.317  -3.359  0.00  0.00    +0.054 A 
ENDBRANCH  19  20
ENDBRANCH  18  19
ENDBRANCH   1  18
TORSDOF 6
