REMARK  Name = ZINC03528700
REMARK  10 active torsions:
REMARK  status: ('A' for Active; 'I' for Inactive)
REMARK    1  A    between atoms: C_1  and  C_2
REMARK    2  A    between atoms: C_2  and  C_3
REMARK    3  A    between atoms: C_3  and  C_4
REMARK    4  A    between atoms: C_4  and  N_5
REMARK    5  A    between atoms: C_6  and  N_28
REMARK    6  A    between atoms: C_7  and  N_14
REMARK    7  A    between atoms: N_14  and  C_15
REMARK    8  A    between atoms: C_15  and  C_16
REMARK    9  A    between atoms: C_17  and  C_19
REMARK   10  A    between atoms: C_20  and  C_21
REMARK                            x       y       z     vdW  Elec       q    Type
REMARK                         _______ _______ _______ _____ _____    ______ ____
ROOT
ATOM      1  N   UNL     1       3.161  -2.074  -3.726  0.00  0.00    -0.280 N 
ATOM      2  C   UNL     1       2.378  -2.315  -4.831  0.00  0.00    +0.127 A 
ATOM      3  C   UNL     1       1.375  -3.260  -4.752  0.00  0.00    +0.140 A 
ATOM      4  C   UNL     1       1.184  -3.949  -3.540  0.00  0.00    +0.277 A 
ATOM      5  O   UNL     1       0.306  -4.790  -3.443  0.00  0.00    -0.266 OA
ATOM      6  N   UNL     1       1.980  -3.675  -2.487  0.00  0.00    -0.273 N 
ATOM      7  H   UNL     1       1.849  -4.150  -1.651  0.00  0.00    +0.173 HD
ATOM      8  C   UNL     1       2.956  -2.755  -2.584  0.00  0.00    +0.331 A 
ATOM      9  O   UNL     1       3.662  -2.531  -1.620  0.00  0.00    -0.246 OA
ENDROOT
BRANCH   3  10
ATOM     10  N   UNL     1       0.554  -3.529  -5.867  0.00  0.00    -0.261 N 
ATOM     11  C   UNL     1      -0.760  -3.235  -5.823  0.00  0.00    +0.244 C 
ATOM     12  O   UNL     1      -1.256  -2.815  -4.794  0.00  0.00    -0.270 OA
BRANCH  10  13
ATOM     13  C   UNL     1       1.131  -4.130  -7.073  0.00  0.00    +0.111 C 
ATOM     14  C   UNL     1       0.932  -5.646  -7.033  0.00  0.00    +0.025 C 
ENDBRANCH  10  13
BRANCH  11  15
ATOM     15  C   UNL     1      -1.592  -3.420  -7.014  0.00  0.00    +0.068 C 
ATOM     16  C   UNL     1      -2.906  -3.126  -6.971  0.00  0.00    +0.013 C 
BRANCH  16  17
ATOM     17  C   UNL     1      -3.743  -3.312  -8.168  0.00  0.00    -0.022 A 
ATOM     18  C   UNL     1      -3.177  -3.800  -9.351  0.00  0.00    +0.008 A 
ATOM     19  C   UNL     1      -3.966  -3.972 -10.469  0.00  0.00    +0.003 A 
ATOM     20  C   UNL     1      -5.314  -3.663 -10.424  0.00  0.00    +0.038 A 
ATOM     21  C   UNL     1      -5.883  -3.179  -9.256  0.00  0.00    +0.124 A 
ATOM     22  C   UNL     1      -5.106  -3.008  -8.126  0.00  0.00    +0.046 A 
ATOM     23  F   UNL     1      -7.200  -2.880  -9.221  0.00  0.00    -0.205 F 
ENDBRANCH  16  17
ENDBRANCH  11  15
ENDBRANCH   3  10
BRANCH   2  24
ATOM     24  N   UNL     1       2.591  -1.623  -5.999  0.00  0.00    -0.343 N 
ATOM     25  H   UNL     1       3.250  -0.912  -6.027  0.00  0.00    +0.144 HD
ATOM     26  H   UNL     1       2.083  -1.846  -6.794  0.00  0.00    +0.144 HD
ENDBRANCH   2  24
BRANCH   1  27
ATOM     27  C   UNL     1       4.229  -1.074  -3.795  0.00  0.00    +0.128 C 
BRANCH  27  28
ATOM     28  C   UNL     1       5.525  -1.743  -4.260  0.00  0.00    +0.021 C 
BRANCH  28  30
ATOM     29  C   UNL     1       7.936  -1.367  -4.796  0.00  0.00    +0.004 C 
ATOM     30  C   UNL     1       6.641  -0.699  -4.332  0.00  0.00    -0.002 C 
ENDBRANCH  28  30
ENDBRANCH  27  28
ENDBRANCH   1  27
TORSDOF 8
