REMARK  Name = ZINC35889337
REMARK  5 active torsions:
REMARK  status: ('A' for Active; 'I' for Inactive)
REMARK    1  A    between atoms: C_1  and  C_2
REMARK    2  A    between atoms: C_5  and  C_8
REMARK    3  A    between atoms: N_21  and  C_22
REMARK    4  A    between atoms: C_22  and  C_23
REMARK    5  A    between atoms: C_22  and  C_24
REMARK                            x       y       z     vdW  Elec       q    Type
REMARK                         _______ _______ _______ _____ _____    ______ ____
ROOT
ATOM      1  C   UNL     1      -0.362  -4.271   0.177  0.00  0.00    +0.171 A 
ATOM      2  N   UNL     1      -0.838  -5.058  -0.765  0.00  0.00    -0.128 NA
ATOM      3  N   UNL     1      -0.573  -6.288  -0.492  0.00  0.00    -0.128 NA
ATOM      4  C   UNL     1       0.087  -6.361   0.639  0.00  0.00    +0.173 A 
ATOM      5  N   UNL     1       0.250  -5.074   1.103  0.00  0.00    -0.246 N 
ATOM      6  C   UNL     1       0.917  -4.846   2.276  0.00  0.00    +0.204 A 
ATOM      7  N   UNL     1       1.424  -5.809   3.000  0.00  0.00    -0.215 NA
ATOM      8  C   UNL     1       1.326  -7.112   2.638  0.00  0.00    +0.078 A 
ATOM      9  C   UNL     1       0.647  -7.452   1.445  0.00  0.00    +0.045 A 
ATOM     10  C   UNL     1       0.540  -8.785   1.059  0.00  0.00    +0.014 A 
ATOM     11  C   UNL     1       1.085  -9.771   1.855  0.00  0.00    +0.001 A 
ATOM     12  C   UNL     1       1.737  -9.443   3.035  0.00  0.00    +0.002 A 
ATOM     13  C   UNL     1       1.874  -8.128   3.424  0.00  0.00    +0.028 A 
ATOM     14  N   UNL     1       1.058  -3.550   2.711  0.00  0.00    -0.312 N 
ATOM     15  H   UNL     1       0.763  -2.816   2.150  0.00  0.00    +0.149 HD
ENDROOT
BRANCH   1  20
ATOM     16  C   UNL     1      -0.753   1.466   0.361  0.00  0.00    +0.044 C 
ATOM     17  C   UNL     1      -0.651  -0.036   0.313  0.00  0.00    -0.050 A 
ATOM     18  C   UNL     1      -1.067  -0.790   1.396  0.00  0.00    +0.004 A 
ATOM     19  C   UNL     1      -0.976  -2.166   1.358  0.00  0.00    +0.012 A 
ATOM     20  C   UNL     1      -0.463  -2.798   0.224  0.00  0.00    +0.020 A 
ATOM     21  C   UNL     1      -0.045  -2.031  -0.865  0.00  0.00    +0.012 A 
ATOM     22  C   UNL     1      -0.146  -0.656  -0.817  0.00  0.00    +0.004 A 
ENDBRANCH   1  20
BRANCH  14  23
ATOM     23  C   UNL     1       1.657  -3.278   4.020  0.00  0.00    +0.067 C 
ATOM     24  C   UNL     1       2.264  -1.874   4.021  0.00  0.00    +0.027 C 
ATOM     25  C   UNL     1       0.578  -3.368   5.102  0.00  0.00    +0.027 C 
ENDBRANCH  14  23
TORSDOF 2
