REMARK  Name = ZINC31817647
REMARK  3 active torsions:
REMARK  status: ('A' for Active; 'I' for Inactive)
REMARK    1  A    between atoms: C_10  and  C_11
REMARK    2  A    between atoms: C_13  and  C_31
REMARK    3  A    between atoms: C_14  and  N_30
REMARK                            x       y       z     vdW  Elec       q    Type
REMARK                         _______ _______ _______ _____ _____    ______ ____
ROOT
ATOM      1  C   UNL     1       6.019  -1.746  -0.924  0.00  0.00    +0.097 C 
ATOM      2  C   UNL     1       4.822  -2.527  -0.468  0.00  0.00    +0.077 C 
ATOM      3  C   UNL     1       3.695  -1.899  -0.043  0.00  0.00    +0.108 C 
ATOM      4  N   UNL     1       3.639  -0.523  -0.019  0.00  0.00    -0.245 N 
ATOM      5  C   UNL     1       4.790   0.221  -0.032  0.00  0.00    +0.026 C 
ATOM      6  C   UNL     1       5.955  -0.319  -0.443  0.00  0.00    +0.025 C 
ATOM      7  C   UNL     1       7.144   0.432  -0.439  0.00  0.00    +0.162 C 
ATOM      8  O   UNL     1       8.175  -0.081  -0.827  0.00  0.00    -0.292 OA
ATOM      9  C   UNL     1       7.165   1.859   0.038  0.00  0.00    +0.080 C 
ATOM     10  C   UNL     1       6.053   2.055   1.074  0.00  0.00    +0.014 C 
ATOM     11  C   UNL     1       4.720   1.655   0.437  0.00  0.00    +0.052 C 
ATOM     12  C   UNL     1       2.400   0.119   0.014  0.00  0.00    +0.131 A 
ATOM     13  C   UNL     1       1.798   0.514  -1.175  0.00  0.00    +0.046 A 
ATOM     14  C   UNL     1       0.569   1.149  -1.129  0.00  0.00    +0.025 A 
ATOM     15  C   UNL     1      -0.017   1.368   0.111  0.00  0.00    +0.059 A 
ATOM     16  C   UNL     1       0.639   0.949   1.253  0.00  0.00    +0.133 A 
ATOM     17  N   UNL     1       1.809   0.345   1.177  0.00  0.00    -0.238 NA
ATOM     18 CL   UNL     1      -1.554   2.167   0.226  0.00  0.00    -0.082 Cl
ENDROOT
BRANCH   1  28
ATOM     19  C   UNL     1       5.016  -1.224  -3.159  0.00  0.00    +0.006 A 
ATOM     20  C   UNL     1       5.043  -1.223  -4.537  0.00  0.00    +0.026 A 
ATOM     21  C   UNL     1       6.137  -1.760  -5.206  0.00  0.00    +0.046 A 
ATOM     22  C   UNL     1       7.204  -2.298  -4.463  0.00  0.00    -0.000 A 
ATOM     23  C   UNL     1       8.181  -2.774  -5.445  0.00  0.00    +0.027 A 
ATOM     24  C   UNL     1       7.677  -2.511  -6.661  0.00  0.00    +0.083 A 
ATOM     25  N   UNL     1       6.456  -1.905  -6.538  0.00  0.00    -0.361 N 
ATOM     26  H   UNL     1       5.760  -1.551  -7.312  0.00  0.00    +0.165 HD
ATOM     27  C   UNL     1       7.158  -2.284  -3.068  0.00  0.00    +0.014 A 
ATOM     28  C   UNL     1       6.071  -1.756  -2.430  0.00  0.00    -0.034 A 
ENDBRANCH   1  28
BRANCH   3  29
ATOM     29  N   UNL     1       2.610  -2.638   0.363  0.00  0.00    -0.345 N 
ATOM     30  H   UNL     1       1.696  -2.130   0.707  0.00  0.00    +0.144 HD
ATOM     31  H   UNL     1       2.654  -3.736   0.344  0.00  0.00    +0.144 HD
ENDBRANCH   3  29
BRANCH   2  32
ATOM     32  C   UNL     1       4.868  -3.958  -0.481  0.00  0.00    +0.099 C 
ATOM     33  N   UNL     1       4.905  -5.093  -0.491  0.00  0.00    -0.191 NA
ENDBRANCH   2  32
TORSDOF 3
