REMARK  Name = ZINC36504949
REMARK  11 active torsions:
REMARK  status: ('A' for Active; 'I' for Inactive)
REMARK    1  A    between atoms: C_1  and  O_2
REMARK    2  A    between atoms: O_2  and  C_3
REMARK    3  A    between atoms: C_5  and  C_10
REMARK    4  A    between atoms: C_8  and  O_9
REMARK    5  A    between atoms: C_10  and  C_12
REMARK    6  A    between atoms: C_10  and  N_21
REMARK    7  A    between atoms: N_14  and  C_15
REMARK    8  A    between atoms: N_21  and  C_22
REMARK    9  A    between atoms: C_22  and  C_23
REMARK   10  A    between atoms: C_28  and  C_30
REMARK   11  A    between atoms: C_34  and  N_36
REMARK                            x       y       z     vdW  Elec       q    Type
REMARK                         _______ _______ _______ _____ _____    ______ ____
ROOT
ATOM      1  C   UNL     1      -5.456   1.979   1.203  0.00  0.00    +0.193 C 
ENDROOT
BRANCH   1   4
ATOM      2  C   UNL     1      -4.010  -0.553  -1.200  0.00  0.00    +0.162 A 
ATOM      3  C   UNL     1      -4.137   0.554  -0.375  0.00  0.00    +0.055 A 
ATOM      4  C   UNL     1      -5.319   0.775   0.306  0.00  0.00    -0.015 A 
ATOM      5  C   UNL     1      -6.376  -0.105   0.168  0.00  0.00    +0.010 A 
ATOM      6  C   UNL     1      -6.256  -1.211  -0.653  0.00  0.00    +0.049 A 
ATOM      7  C   UNL     1      -5.076  -1.435  -1.344  0.00  0.00    +0.158 A 
BRANCH   2   9
ATOM      8  C   UNL     1      -1.766   0.123  -1.606  0.00  0.00    +0.277 C 
ATOM      9  O   UNL     1      -2.848  -0.772  -1.872  0.00  0.00    -0.491 OA
ENDBRANCH   2   9
BRANCH   7  10
ATOM     10  O   UNL     1      -4.958  -2.520  -2.156  0.00  0.00    -0.503 OA
ATOM     11  H   UNL     1      -4.621  -3.309  -1.712  0.00  0.00    +0.292 HD
ENDBRANCH   7  10
ENDBRANCH   1   4
BRANCH   1  12
ATOM     12  C   UNL     1      -5.944   3.154   0.395  0.00  0.00    +0.238 C 
ATOM     13  O   UNL     1      -7.134   3.345   0.262  0.00  0.00    -0.273 OA
ATOM     14  N   UNL     1      -5.058   3.992  -0.178  0.00  0.00    -0.311 N 
ATOM     15  H   UNL     1      -4.106   3.839  -0.072  0.00  0.00    +0.149 HD
BRANCH  14  16
ATOM     16  C   UNL     1      -5.533   5.134  -0.964  0.00  0.00    +0.073 C 
ATOM     17  C   UNL     1      -5.816   4.685  -2.398  0.00  0.00    +0.022 C 
ATOM     18  C   UNL     1      -6.311   5.878  -3.218  0.00  0.00    +0.002 C 
ATOM     19  C   UNL     1      -5.241   6.971  -3.227  0.00  0.00    +0.000 C 
ATOM     20  C   UNL     1      -4.959   7.420  -1.792  0.00  0.00    +0.002 C 
ATOM     21  C   UNL     1      -4.463   6.227  -0.973  0.00  0.00    +0.022 C 
ENDBRANCH  14  16
ENDBRANCH   1  12
BRANCH   1  22
ATOM     22  N   UNL     1      -6.416   1.687   2.270  0.00  0.00    -0.275 N 
ATOM     23  C   UNL     1      -5.990   1.552   3.542  0.00  0.00    +0.248 C 
ATOM     24  O   UNL     1      -6.768   1.210   4.410  0.00  0.00    -0.270 OA
BRANCH  23  25
ATOM     25  C   UNL     1      -4.575   1.819   3.880  0.00  0.00    +0.039 A 
ATOM     26  C   UNL     1      -3.554   1.155   3.197  0.00  0.00    +0.013 A 
ATOM     27  C   UNL     1      -2.237   1.410   3.517  0.00  0.00    +0.003 A 
ATOM     28  C   UNL     1      -1.926   2.320   4.512  0.00  0.00    +0.033 A 
ATOM     29  C   UNL     1      -2.934   2.980   5.193  0.00  0.00    +0.127 A 
ATOM     30  C   UNL     1      -4.255   2.740   4.878  0.00  0.00    +0.045 A 
BRANCH  29  31
ATOM     31  N   UNL     1      -2.592   3.952   6.256  0.00  0.00    +0.056 N 
ATOM     32  O   UNL     1      -1.435   4.167   6.529  0.00  0.00    -0.126 OA
ATOM     33  O   UNL     1      -3.472   4.530   6.851  0.00  0.00    -0.126 OA
ENDBRANCH  29  31
ENDBRANCH  23  25
BRANCH  22  34
ATOM     34  C   UNL     1      -7.839   1.542   1.955  0.00  0.00    +0.183 C 
BRANCH  34  35
ATOM     35  C   UNL     1      -8.631   2.568   2.723  0.00  0.00    +0.122 A 
ATOM     36  C   UNL     1      -9.257   3.635   2.195  0.00  0.00    +0.046 A 
ATOM     37  C   UNL     1      -9.870   4.322   3.268  0.00  0.00    +0.041 A 
ATOM     38  C   UNL     1      -9.582   3.635   4.387  0.00  0.00    +0.195 A 
ATOM     39  O   UNL     1      -8.836   2.570   4.051  0.00  0.00    -0.466 OA
ENDBRANCH  34  35
ENDBRANCH  22  34
ENDBRANCH   1  22
TORSDOF 10
