REMARK  Name = ZINC61324138
REMARK  7 active torsions:
REMARK  status: ('A' for Active; 'I' for Inactive)
REMARK    1  A    between atoms: C_1  and  C_2
REMARK    2  A    between atoms: C_5  and  N_19
REMARK    3  A    between atoms: C_6  and  C_8
REMARK    4  A    between atoms: N_10  and  C_11
REMARK    5  A    between atoms: C_11  and  C_12
REMARK    6  A    between atoms: C_15  and  C_18
REMARK    7  A    between atoms: N_19  and  N_20
REMARK                            x       y       z     vdW  Elec       q    Type
REMARK                         _______ _______ _______ _____ _____    ______ ____
ROOT
ATOM      1  C   UNL     1       0.012   1.488   0.275  0.00  0.00    +0.044 C 
ATOM      2  C   UNL     1       0.017  -0.011   0.129  0.00  0.00    -0.050 A 
ATOM      3  C   UNL     1       0.012  -0.581  -1.135  0.00  0.00    +0.005 A 
ATOM      4  C   UNL     1       0.016  -1.952  -1.284  0.00  0.00    +0.025 A 
ATOM      5  C   UNL     1       0.024  -2.774  -0.163  0.00  0.00    +0.053 A 
ATOM      6  C   UNL     1       0.029  -2.200   1.118  0.00  0.00    +0.059 A 
ATOM      7  C   UNL     1       0.031  -0.809   1.251  0.00  0.00    +0.018 A 
ENDROOT
BRANCH   6   8
ATOM      8  C   UNL     1       0.037  -3.060   2.316  0.00  0.00    +0.246 C 
ATOM      9  O   UNL     1       0.141  -4.266   2.198  0.00  0.00    -0.270 OA
ATOM     10  N   UNL     1      -0.069  -2.510   3.541  0.00  0.00    -0.306 N 
ATOM     11  H   UNL     1      -0.152  -1.548   3.636  0.00  0.00    +0.149 HD
BRANCH  10  12
ATOM     12  C   UNL     1      -0.061  -3.364   4.731  0.00  0.00    +0.161 C 
BRANCH  12  13
ATOM     13  C   UNL     1      -0.193  -2.508   5.965  0.00  0.00    +0.076 A 
ATOM     14  C   UNL     1      -1.437  -2.302   6.534  0.00  0.00    +0.136 A 
ATOM     15  N   UNL     1      -1.552  -1.552   7.616  0.00  0.00    -0.257 NA
ATOM     16  C   UNL     1      -0.479  -1.000   8.155  0.00  0.00    +0.056 A 
ATOM     17  C   UNL     1       0.765  -1.206   7.586  0.00  0.00    +0.134 A 
ATOM     18  N   UNL     1       0.881  -1.960   6.506  0.00  0.00    -0.255 NA
ATOM     19  C   UNL     1      -0.611  -0.144   9.388  0.00  0.00    +0.067 C 
ENDBRANCH  12  13
ENDBRANCH  10  12
ENDBRANCH   6   8
BRANCH   5  20
ATOM     20  N   UNL     1       0.027  -4.155  -0.309  0.00  0.00    -0.282 N 
ATOM     21  H   UNL     1       0.111  -4.725   0.471  0.00  0.00    +0.166 HD
BRANCH  20  22
ATOM     22  N   UNL     1      -0.090  -4.710  -1.552  0.00  0.00    -0.256 NA
ATOM     23  H   UNL     1       0.629  -4.366  -2.170  0.00  0.00    +0.140 HD
ATOM     24  H   UNL     1      -0.072  -5.717  -1.501  0.00  0.00    +0.140 HD
ENDBRANCH  20  22
ENDBRANCH   5  20
TORSDOF 5
