REMARK  Name = ZINC64392541
REMARK  7 active torsions:
REMARK  status: ('A' for Active; 'I' for Inactive)
REMARK    1  A    between atoms: C_1  and  C_2
REMARK    2  A    between atoms: C_2  and  C_3
REMARK    3  A    between atoms: C_3  and  C_4
REMARK    4  A    between atoms: C_4  and  C_5
REMARK    5  A    between atoms: C_5  and  N_6
REMARK    6  A    between atoms: C_12  and  C_19
REMARK    7  A    between atoms: C_22  and  C_26
REMARK                            x       y       z     vdW  Elec       q    Type
REMARK                         _______ _______ _______ _____ _____    ______ ____
ROOT
ATOM      1  N   UNL     1      -2.828  -4.058   0.007  0.00  0.00    -0.261 N 
ATOM      2  C   UNL     1      -2.825  -4.714  -1.173  0.00  0.00    +0.264 A 
ATOM      3  O   UNL     1      -2.838  -4.104  -2.226  0.00  0.00    -0.267 OA
ATOM      4  C   UNL     1      -2.804  -6.187  -1.154  0.00  0.00    +0.063 A 
ATOM      5  C   UNL     1      -2.799  -6.936  -2.328  0.00  0.00    +0.016 A 
ATOM      6  C   UNL     1      -2.779  -8.313  -2.256  0.00  0.00    +0.008 A 
ATOM      7  C   UNL     1      -2.765  -8.951  -1.025  0.00  0.00    -0.000 A 
ATOM      8  C   UNL     1      -2.769  -8.221   0.146  0.00  0.00    +0.034 A 
ATOM      9  C   UNL     1      -2.789  -6.836   0.093  0.00  0.00    +0.056 A 
ATOM     10  N   UNL     1      -2.794  -6.064   1.247  0.00  0.00    -0.307 N 
ATOM     11  H   UNL     1      -2.784  -6.498   2.115  0.00  0.00    +0.170 HD
ATOM     12  C   UNL     1      -2.808  -4.722   1.173  0.00  0.00    +0.330 A 
ATOM     13  O   UNL     1      -2.807  -4.083   2.207  0.00  0.00    -0.246 OA
ENDROOT
BRANCH   7  14
ATOM     14  C   UNL     1      -2.744 -10.457  -0.966  0.00  0.00    +0.242 C 
ATOM     15  N   UNL     1      -3.406 -11.031  -2.166  0.00  0.00    -0.265 NA
ATOM     16  C   UNL     1      -2.803 -12.388  -2.253  0.00  0.00    +0.180 C 
ATOM     17  N   UNL     1      -1.400 -12.174  -1.827  0.00  0.00    -0.177 NA
ATOM     18  O   UNL     1      -1.390 -10.942  -1.022  0.00  0.00    -0.274 OA
ATOM     19  H   UNL     1      -4.405 -11.087  -2.036  0.00  0.00    +0.127 HD
ATOM     20  H   UNL     1      -1.061 -12.958  -1.290  0.00  0.00    +0.156 HD
BRANCH  16  21
ATOM     21  C   UNL     1      -2.858 -12.904  -3.668  0.00  0.00    -0.014 A 
ATOM     22  C   UNL     1      -3.878 -12.503  -4.510  0.00  0.00    +0.007 A 
ATOM     23  C   UNL     1      -3.929 -12.975  -5.808  0.00  0.00    +0.015 A 
ATOM     24  C   UNL     1      -2.959 -13.849  -6.264  0.00  0.00    +0.018 A 
ATOM     25  C   UNL     1      -1.938 -14.249  -5.421  0.00  0.00    +0.015 A 
ATOM     26  C   UNL     1      -1.885 -13.773  -4.125  0.00  0.00    +0.007 A 
ATOM     27 BR   UNL     1      -3.028 -14.495  -8.040  0.00  0.00    -0.050 Br
ENDBRANCH  16  21
ENDBRANCH   7  14
BRANCH   1  28
ATOM     28  C   UNL     1      -2.848  -2.593   0.015  0.00  0.00    +0.130 C 
BRANCH  28  29
ATOM     29  C   UNL     1      -1.413  -2.063   0.004  0.00  0.00    +0.022 C 
BRANCH  29  30
ATOM     30  C   UNL     1      -1.433  -0.534   0.013  0.00  0.00    +0.001 C 
BRANCH  30  32
ATOM     31  C   UNL     1      -0.019   1.526   0.010  0.00  0.00    +0.004 C 
ATOM     32  C   UNL     1       0.002  -0.004   0.002  0.00  0.00    -0.003 C 
ENDBRANCH  30  32
ENDBRANCH  29  30
ENDBRANCH  28  29
ENDBRANCH   1  28
TORSDOF 6
