REMARK  Name = ZINC39465229
REMARK  5 active torsions:
REMARK  status: ('A' for Active; 'I' for Inactive)
REMARK    1  A    between atoms: C_1  and  C_2
REMARK    2  A    between atoms: C_2  and  O_3
REMARK    3  A    between atoms: O_3  and  C_4
REMARK    4  A    between atoms: C_9  and  C_10
REMARK    5  A    between atoms: C_15  and  O_16
REMARK                            x       y       z     vdW  Elec       q    Type
REMARK                         _______ _______ _______ _____ _____    ______ ____
ROOT
ATOM      1  C   UNL     1       0.802  -1.824   1.306  0.00  0.00    +0.129 A 
ATOM      2  C   UNL     1       0.262  -2.672   0.356  0.00  0.00    +0.051 A 
ATOM      3  C   UNL     1       0.370  -4.049   0.496  0.00  0.00    -0.020 A 
ATOM      4  C   UNL     1       1.019  -4.578   1.593  0.00  0.00    -0.041 A 
ATOM      5  C   UNL     1       1.564  -3.740   2.551  0.00  0.00    +0.016 A 
ATOM      6  C   UNL     1       1.465  -2.359   2.414  0.00  0.00    +0.028 A 
ATOM      7  C   UNL     1       1.153  -6.068   1.783  0.00  0.00    +0.052 C 
ATOM      8  C   UNL     1       0.921  -6.779   0.451  0.00  0.00    +0.108 C 
ATOM      9  N   UNL     1      -0.348  -6.308  -0.122  0.00  0.00    -0.224 NA
ATOM     10  C   UNL     1      -0.236  -4.921  -0.572  0.00  0.00    +0.130 C 
ATOM     11  C   UNL     1      -1.605  -4.356  -0.961  0.00  0.00    +0.196 C 
ATOM     12  O   UNL     1      -2.126  -5.124  -2.063  0.00  0.00    -0.292 OA
ATOM     13  P   UNL     1      -2.132  -6.746  -1.938  0.00  0.00    +0.448 P 
ATOM     14  O   UNL     1      -2.156  -7.389  -3.342  0.00  0.00    -0.236 OA
ATOM     15  N   UNL     1      -0.729  -7.137  -1.155  0.00  0.00    -0.154 NA
ATOM     16  O   UNL     1      -3.354  -7.213  -1.116  0.00  0.00    -0.126 OA
ATOM     17  H   UNL     1      -0.202  -7.910  -1.409  0.00  0.00    +0.153 HD
ENDROOT
BRANCH   6  18
ATOM     18  C   UNL     1       2.054  -1.463   3.438  0.00  0.00    +0.027 A 
ATOM     19  C   UNL     1       3.433  -1.424   3.624  0.00  0.00    +0.012 A 
ATOM     20  C   UNL     1       3.976  -0.588   4.579  0.00  0.00    +0.001 A 
ATOM     21  C   UNL     1       3.155   0.214   5.351  0.00  0.00    +0.004 A 
ATOM     22  C   UNL     1       1.784   0.183   5.174  0.00  0.00    +0.046 A 
ATOM     23  C   UNL     1       1.226  -0.647   4.216  0.00  0.00    +0.125 A 
BRANCH  23  24
ATOM     24  O   UNL     1      -0.120  -0.674   4.038  0.00  0.00    -0.506 OA
ATOM     25  H   UNL     1      -0.577  -1.325   4.588  0.00  0.00    +0.292 HD
ENDBRANCH  23  24
ENDBRANCH   6  18
BRANCH   1  26
ATOM     26  O   UNL     1       0.693  -0.477   1.160  0.00  0.00    -0.492 OA
BRANCH  26  28
ATOM     27  C   UNL     1      -0.019   1.526   0.010  0.00  0.00    +0.048 C 
ATOM     28  C   UNL     1       0.002  -0.004   0.002  0.00  0.00    +0.226 C 
ENDBRANCH  26  28
ENDBRANCH   1  26
TORSDOF 4
