REMARK  Name = ZINC44515262
REMARK  7 active torsions:
REMARK  status: ('A' for Active; 'I' for Inactive)
REMARK    1  A    between atoms: C_1  and  C_2
REMARK    2  A    between atoms: C_7  and  C_8
REMARK    3  A    between atoms: N_10  and  C_11
REMARK    4  A    between atoms: C_13  and  O_20
REMARK    5  A    between atoms: C_16  and  O_17
REMARK    6  A    between atoms: O_17  and  C_18
REMARK    7  A    between atoms: O_20  and  C_21
REMARK                            x       y       z     vdW  Elec       q    Type
REMARK                         _______ _______ _______ _____ _____    ______ ____
ROOT
ATOM      1  C   UNL     1       0.025  -0.391   2.497  0.00  0.00    +0.265 C 
ATOM      2  O   UNL     1       0.015   0.796   2.766  0.00  0.00    -0.268 OA
ATOM      3  N   UNL     1       0.054  -1.306   3.486  0.00  0.00    -0.277 N 
ATOM      4  H   UNL     1      -0.003  -2.251   3.274  0.00  0.00    +0.155 HD
ENDROOT
BRANCH   1  11
ATOM      5  C   UNL     1      -0.042   1.504   0.012  0.00  0.00    +0.047 C 
ATOM      6  C   UNL     1      -0.024  -0.003   0.003  0.00  0.00    -0.010 A 
ATOM      7  C   UNL     1      -0.028  -0.833  -1.125  0.00  0.00    +0.042 A 
ATOM      8  C   UNL     1      -0.007  -2.154  -0.678  0.00  0.00    +0.027 A 
ATOM      9  N   UNL     1       0.011  -2.136   0.655  0.00  0.00    -0.354 N 
ATOM     10  H   UNL     1       0.030  -2.920   1.227  0.00  0.00    +0.166 HD
ATOM     11  C   UNL     1       0.006  -0.826   1.094  0.00  0.00    +0.106 A 
ATOM     12  C   UNL     1      -0.011  -3.335  -1.615  0.00  0.00    +0.054 C 
ATOM     13  C   UNL     1      -0.541  -2.893  -2.982  0.00  0.00    +0.014 C 
ATOM     14  C   UNL     1       0.231  -1.672  -3.493  0.00  0.00    +0.080 C 
ATOM     15  C   UNL     1      -0.046  -0.503  -2.558  0.00  0.00    +0.165 C 
ATOM     16  O   UNL     1      -0.265   0.618  -2.966  0.00  0.00    -0.292 OA
ENDBRANCH   1  11
BRANCH   3  17
ATOM     17  C   UNL     1       0.167  -0.893   4.819  0.00  0.00    +0.079 A 
ATOM     18  C   UNL     1      -0.436   0.285   5.235  0.00  0.00    +0.074 A 
ATOM     19  C   UNL     1      -0.322   0.692   6.555  0.00  0.00    +0.140 A 
ATOM     20  C   UNL     1       0.394  -0.078   7.460  0.00  0.00    +0.086 A 
ATOM     21  C   UNL     1       0.996  -1.253   7.048  0.00  0.00    +0.071 A 
ATOM     22  C   UNL     1       0.881  -1.667   5.731  0.00  0.00    +0.143 A 
ATOM     23 CL   UNL     1       0.535   0.434   9.113  0.00  0.00    -0.080 Cl
BRANCH  22  24
ATOM     24  O   UNL     1       1.468  -2.826   5.328  0.00  0.00    -0.493 OA
ATOM     25  C   UNL     1       2.183  -3.569   6.316  0.00  0.00    +0.277 C 
ENDBRANCH  22  24
BRANCH  19  26
ATOM     26  O   UNL     1      -0.913   1.847   6.963  0.00  0.00    -0.494 OA
ATOM     27  C   UNL     1      -1.633   2.591   5.978  0.00  0.00    +0.277 C 
ENDBRANCH  19  26
ENDBRANCH   3  17
TORSDOF 4
