REMARK  Name = ZINC14854755
REMARK  3 active torsions:
REMARK  status: ('A' for Active; 'I' for Inactive)
REMARK    1  A    between atoms: C_7  and  C_13
REMARK    2  A    between atoms: N_15  and  N_16
REMARK    3  A    between atoms: C_17  and  C_19
REMARK                            x       y       z     vdW  Elec       q    Type
REMARK                         _______ _______ _______ _____ _____    ______ ____
ROOT
ATOM      1  C   UNL     1      -3.790   3.237   0.053  0.00  0.00    +0.281 C 
ATOM      2  O   UNL     1      -3.846   2.023   0.048  0.00  0.00    -0.267 OA
ATOM      3  N   UNL     1      -4.925   3.964   0.067  0.00  0.00    -0.229 N 
ATOM      4  H   UNL     1      -4.881   4.933   0.071  0.00  0.00    +0.173 HD
ENDROOT
BRANCH   1  11
ATOM      5  C   UNL     1      -0.013   1.076   0.008  0.00  0.00    +0.001 A 
ATOM      6  C   UNL     1       1.185   1.778   0.000  0.00  0.00    +0.001 A 
ATOM      7  C   UNL     1       1.194   3.157   0.007  0.00  0.00    +0.014 A 
ATOM      8  C   UNL     1      -0.014   3.846   0.022  0.00  0.00    +0.050 A 
ATOM      9  C   UNL     1      -1.234   3.131   0.030  0.00  0.00    +0.020 A 
ATOM     10  C   UNL     1      -1.221   1.740   0.017  0.00  0.00    +0.011 A 
ATOM     11  C   UNL     1      -2.479   3.916   0.045  0.00  0.00    +0.155 A 
ATOM     12  N   UNL     1      -2.410   5.225   0.050  0.00  0.00    -0.166 NA
ATOM     13  N   UNL     1      -1.316   5.888   0.043  0.00  0.00    -0.242 N 
ATOM     14  H   UNL     1      -1.367   6.857   0.048  0.00  0.00    +0.192 HD
ATOM     15  C   UNL     1      -0.096   5.313   0.030  0.00  0.00    +0.272 A 
ATOM     16  O   UNL     1       0.913   5.994   0.024  0.00  0.00    -0.266 OA
ENDBRANCH   1  11
BRANCH   3  17
ATOM     17  N   UNL     1      -6.169   3.320   0.075  0.00  0.00    -0.230 N 
ATOM     18  C   UNL     1      -7.304   4.046   0.089  0.00  0.00    +0.267 C 
ATOM     19  O   UNL     1      -7.249   5.262   0.094  0.00  0.00    -0.268 OA
ATOM     20  H   UNL     1      -6.214   2.350   0.070  0.00  0.00    +0.173 HD
BRANCH  18  21
ATOM     21  C   UNL     1      -8.606   3.372   0.097  0.00  0.00    +0.076 A 
ATOM     22  C   UNL     1      -9.871   3.923   0.111  0.00  0.00    +0.024 A 
ATOM     23  C   UNL     1     -10.966   3.058   0.116  0.00  0.00    -0.036 A 
ATOM     24  C   UNL     1     -10.694   1.726   0.109  0.00  0.00    -0.006 A 
ATOM     25  S   UNL     1      -8.969   1.626   0.084  0.00  0.00    -0.088 S 
ATOM     26  C   UNL     1     -11.948   0.897   0.121  0.00  0.00    +0.043 C 
ATOM     27  C   UNL     1     -13.057   1.872   0.574  0.00  0.00    +0.010 C 
ATOM     28  C   UNL     1     -12.487   3.232   0.126  0.00  0.00    +0.036 C 
ENDBRANCH  18  21
ENDBRANCH   3  17
TORSDOF 3
