REMARK  Name = ZINC06546023
REMARK  12 active torsions:
REMARK  status: ('A' for Active; 'I' for Inactive)
REMARK    1  A    between atoms: C_1  and  C_2
REMARK    2  A    between atoms: C_7  and  C_8
REMARK    3  A    between atoms: C_10  and  C_12
REMARK    4  A    between atoms: C_15  and  O_28
REMARK    5  A    between atoms: C_16  and  N_18
REMARK    6  A    between atoms: N_18  and  C_19
REMARK    7  A    between atoms: C_19  and  N_21
REMARK    8  A    between atoms: C_22  and  C_24
REMARK    9  A    between atoms: C_24  and  C_25
REMARK   10  A    between atoms: C_24  and  C_26
REMARK   11  A    between atoms: C_24  and  C_27
REMARK   12  A    between atoms: O_28  and  C_29
REMARK                            x       y       z     vdW  Elec       q    Type
REMARK                         _______ _______ _______ _____ _____    ______ ____
ROOT
ATOM      1  C   UNL     1       0.358  -5.481  -2.399  0.00  0.00    +0.039 A 
ATOM      2  C   UNL     1       0.112  -6.664  -1.700  0.00  0.00    +0.017 A 
ATOM      3  C   UNL     1      -0.142  -7.832  -2.389  0.00  0.00    +0.048 A 
ATOM      4  C   UNL     1      -0.154  -7.835  -3.776  0.00  0.00    +0.141 A 
ATOM      5  C   UNL     1       0.091  -6.657  -4.481  0.00  0.00    +0.076 A 
ATOM      6  C   UNL     1       0.341  -5.481  -3.795  0.00  0.00    +0.040 A 
ENDROOT
BRANCH   1  16
ATOM      7  C   UNL     1       1.827   1.361  -0.054  0.00  0.00    +0.044 C 
ATOM      8  C   UNL     1       1.517  -0.114  -0.050  0.00  0.00    -0.045 A 
ATOM      9  C   UNL     1       1.361  -0.783  -1.244  0.00  0.00    +0.035 A 
ATOM     10  C   UNL     1       1.073  -2.150  -1.239  0.00  0.00    +0.110 A 
ATOM     11  C   UNL     1       0.945  -2.829  -0.016  0.00  0.00    +0.156 A 
ATOM     12  C   UNL     1       1.105  -2.138   1.175  0.00  0.00    +0.052 A 
ATOM     13  C   UNL     1       1.395  -0.789   1.155  0.00  0.00    -0.044 A 
ATOM     14  C   UNL     1       1.575  -0.043   2.452  0.00  0.00    +0.044 C 
ATOM     15  O   UNL     1       0.671  -4.116  -0.322  0.00  0.00    -0.435 OA
ATOM     16  C   UNL     1       0.630  -4.229  -1.663  0.00  0.00    +0.228 A 
ATOM     17  N   UNL     1       0.868  -3.068  -2.218  0.00  0.00    -0.209 NA
ENDBRANCH   1  16
BRANCH   5  18
ATOM     18  N   UNL     1       0.079  -6.662  -5.882  0.00  0.00    -0.294 N 
ATOM     19  H   UNL     1       0.564  -7.348  -6.368  0.00  0.00    +0.154 HD
BRANCH  18  20
ATOM     20  C   UNL     1      -0.606  -5.716  -6.554  0.00  0.00    +0.141 C 
ATOM     21  S   UNL     1      -1.369  -4.444  -5.700  0.00  0.00    -0.018 S 
BRANCH  20  22
ATOM     22  N   UNL     1      -0.690  -5.771  -7.898  0.00  0.00    -0.267 N 
ATOM     23  C   UNL     1      -1.375  -4.825  -8.570  0.00  0.00    +0.224 C 
ATOM     24  O   UNL     1      -1.915  -3.924  -7.965  0.00  0.00    -0.275 OA
ATOM     25  H   UNL     1      -0.257  -6.492  -8.381  0.00  0.00    +0.157 HD
BRANCH  23  26
ATOM     26  C   UNL     1      -1.468  -4.887 -10.072  0.00  0.00    +0.039 C 
ATOM     27  C   UNL     1      -2.295  -3.704 -10.581  0.00  0.00    +0.020 C 
ATOM     28  C   UNL     1      -0.063  -4.823 -10.674  0.00  0.00    +0.020 C 
ATOM     29  C   UNL     1      -2.143  -6.196 -10.488  0.00  0.00    +0.020 C 
ENDBRANCH  23  26
ENDBRANCH  20  22
ENDBRANCH  18  20
ENDBRANCH   5  18
BRANCH   4  30
ATOM     30  O   UNL     1      -0.405  -8.988  -4.449  0.00  0.00    -0.493 OA
ATOM     31  C   UNL     1      -0.647 -10.158  -3.665  0.00  0.00    +0.277 C 
ENDBRANCH   4  30
TORSDOF 6
