REMARK  Name = ZINC19330310
REMARK  5 active torsions:
REMARK  status: ('A' for Active; 'I' for Inactive)
REMARK    1  A    between atoms: C_1  and  C_2
REMARK    2  A    between atoms: N_16  and  C_19
REMARK    3  A    between atoms: C_19  and  C_20
REMARK    4  A    between atoms: C_20  and  O_21
REMARK    5  A    between atoms: O_21  and  C_22
REMARK                            x       y       z     vdW  Elec       q    Type
REMARK                         _______ _______ _______ _____ _____    ______ ____
ROOT
ATOM      1  C   UNL     1      -0.018   1.503   0.010  0.00  0.00    +0.066 C 
ATOM      2  C   UNL     1       0.002  -0.004   0.002  0.00  0.00    +0.051 A 
ATOM      3  C   UNL     1       0.006  -0.717  -1.211  0.00  0.00    +0.022 A 
ATOM      4  C   UNL     1      -0.008  -0.070  -2.455  0.00  0.00    +0.012 A 
ATOM      5  C   UNL     1      -0.003  -0.812  -3.598  0.00  0.00    +0.001 A 
ATOM      6  C   UNL     1       0.017  -2.204  -3.548  0.00  0.00    +0.002 A 
ATOM      7  C   UNL     1       0.031  -2.865  -2.357  0.00  0.00    +0.028 A 
ATOM      8  C   UNL     1       0.026  -2.135  -1.160  0.00  0.00    +0.076 A 
ATOM      9  N   UNL     1       0.040  -2.735   0.037  0.00  0.00    -0.214 NA
ATOM     10  C   UNL     1       0.035  -2.015   1.141  0.00  0.00    +0.222 A 
ATOM     11  N   UNL     1       0.022  -0.683   1.129  0.00  0.00    -0.219 NA
ATOM     12  N   UNL     1       0.051  -2.670   2.363  0.00  0.00    -0.256 N 
ATOM     13  C   UNL     1       0.070  -4.047   2.407  0.00  0.00    +0.184 C 
ATOM     14  N   UNL     1       0.079  -4.720   1.299  0.00  0.00    -0.240 NA
ATOM     15  C   UNL     1       0.083  -6.178   1.255  0.00  0.00    +0.232 C 
ATOM     16  N   UNL     1       0.558  -6.736   2.527  0.00  0.00    -0.266 NA
ATOM     17  C   UNL     1      -0.177  -6.135   3.655  0.00  0.00    +0.193 C 
ATOM     18  N   UNL     1       0.085  -4.686   3.627  0.00  0.00    -0.304 N 
ATOM     19  H   UNL     1       0.047  -2.159   3.187  0.00  0.00    +0.158 HD
ATOM     20  H   UNL     1       0.260  -4.194   4.444  0.00  0.00    +0.150 HD
ENDROOT
BRANCH  16  21
ATOM     21  C   UNL     1       0.435  -8.200   2.539  0.00  0.00    +0.115 C 
BRANCH  21  22
ATOM     22  C   UNL     1       1.385  -8.800   1.500  0.00  0.00    +0.175 C 
BRANCH  22  23
ATOM     23  O   UNL     1       2.737  -8.531   1.880  0.00  0.00    -0.382 OA
ATOM     24  C   UNL     1       3.709  -9.052   0.971  0.00  0.00    +0.194 C 
ENDBRANCH  22  23
ENDBRANCH  21  22
ENDBRANCH  16  21
TORSDOF 3
