REMARK  Name = ZINC41027246
REMARK  7 active torsions:
REMARK  status: ('A' for Active; 'I' for Inactive)
REMARK    1  A    between atoms: C_1  and  C_2
REMARK    2  A    between atoms: C_2  and  C_4
REMARK    3  A    between atoms: C_2  and  N_21
REMARK    4  A    between atoms: C_9  and  S_10
REMARK    5  A    between atoms: S_10  and  C_11
REMARK    6  A    between atoms: C_17  and  N_19
REMARK    7  A    between atoms: N_21  and  C_22
REMARK                            x       y       z     vdW  Elec       q    Type
REMARK                         _______ _______ _______ _____ _____    ______ ____
ROOT
ATOM      1  C   UNL     1       0.515  -0.299   0.864  0.00  0.00    -0.045 A 
ATOM      2  C   UNL     1      -0.387  -0.651   1.849  0.00  0.00    +0.041 A 
ATOM      3  C   UNL     1       0.069  -1.099   3.078  0.00  0.00    +0.124 A 
ATOM      4  C   UNL     1       1.429  -1.194   3.321  0.00  0.00    +0.039 A 
ATOM      5  C   UNL     1       2.334  -0.843   2.339  0.00  0.00    +0.018 A 
ATOM      6  C   UNL     1       1.879  -0.398   1.104  0.00  0.00    +0.017 A 
ATOM      7  F   UNL     1      -0.814  -1.442   4.041  0.00  0.00    -0.205 F 
ENDROOT
BRANCH   1   9
ATOM      8  C   UNL     1       0.099   1.715  -0.522  0.00  0.00    -0.009 C 
ATOM      9  C   UNL     1       0.018   0.188  -0.473  0.00  0.00    -0.043 C 
BRANCH   9  10
ATOM     10  N   UNL     1      -1.376  -0.234  -0.661  0.00  0.00    +0.382 N 
ATOM     11  C   UNL     1      -1.822   0.135  -2.011  0.00  0.00    -0.100 C 
ATOM     12  H   UNL     1      -1.443  -1.235  -0.547  0.00  0.00    -0.085 HD
ATOM     13  H   UNL     1      -1.961   0.222   0.023  0.00  0.00    -0.085 HD
ENDBRANCH   9  10
ENDBRANCH   1   9
BRANCH   6  14
ATOM     14  S   UNL     1       3.031   0.044  -0.154  0.00  0.00    -0.052 S 
BRANCH  14  15
ATOM     15  C   UNL     1       2.995  -1.324  -1.264  0.00  0.00    +0.175 A 
ATOM     16  N   UNL     1       3.710  -1.262  -2.422  0.00  0.00    -0.302 N 
ATOM     17  H   UNL     1       4.231  -0.470  -2.628  0.00  0.00    +0.171 HD
ATOM     18  C   UNL     1       3.695  -2.300  -3.284  0.00  0.00    +0.254 A 
ATOM     19  O   UNL     1       4.333  -2.253  -4.324  0.00  0.00    -0.268 OA
ATOM     20  C   UNL     1       2.936  -3.430  -2.966  0.00  0.00    +0.113 A 
ATOM     21  C   UNL     1       2.225  -3.444  -1.774  0.00  0.00    +0.124 A 
ATOM     22  N   UNL     1       2.282  -2.387  -0.956  0.00  0.00    -0.209 NA
BRANCH  21  23
ATOM     23  N   UNL     1       1.467  -4.545  -1.432  0.00  0.00    -0.343 N 
ATOM     24  H   UNL     1       1.430  -5.312  -2.025  0.00  0.00    +0.144 HD
ATOM     25  H   UNL     1       0.971  -4.553  -0.598  0.00  0.00    +0.144 HD
ENDBRANCH  21  23
ENDBRANCH  14  15
ENDBRANCH   6  14
TORSDOF 5
