REMARK  Name = ZINC19818975
REMARK  4 active torsions:
REMARK  status: ('A' for Active; 'I' for Inactive)
REMARK    1  A    between atoms: C_1  and  C_2
REMARK    2  A    between atoms: C_2  and  C_4
REMARK    3  A    between atoms: C_7  and  N_10
REMARK    4  A    between atoms: C_11  and  C_13
REMARK                            x       y       z     vdW  Elec       q    Type
REMARK                         _______ _______ _______ _____ _____    ______ ____
ROOT
ATOM      1  C   UNL     1       5.993  -0.862  -0.157  0.00  0.00    +0.122 C 
ATOM      2  C   UNL     1       6.006  -1.670  -1.456  0.00  0.00    +0.114 C 
ATOM      3  C   UNL     1       7.377  -2.250  -1.680  0.00  0.00    +0.219 C 
ATOM      4  O   UNL     1       7.488  -3.359  -2.159  0.00  0.00    -0.275 OA
ATOM      5  N   UNL     1       8.479  -1.554  -1.355  0.00  0.00    -0.270 N 
ATOM      6  C   UNL     1       8.386  -0.341  -0.696  0.00  0.00    +0.138 A 
ATOM      7  C   UNL     1       7.191   0.049  -0.119  0.00  0.00    +0.069 A 
ATOM      8  C   UNL     1       7.109   1.300   0.499  0.00  0.00    +0.258 A 
ATOM      9  O   UNL     1       6.066   1.676   1.011  0.00  0.00    -0.267 OA
ATOM     10  N   UNL     1       8.208   2.085   0.520  0.00  0.00    -0.295 N 
ATOM     11  H   UNL     1       8.167   3.077   0.993  0.00  0.00    +0.172 HD
ATOM     12  C   UNL     1       9.367   1.649  -0.045  0.00  0.00    +0.200 A 
ATOM     13  N   UNL     1       9.447   0.473  -0.631  0.00  0.00    -0.200 NA
ATOM     14  N   UNL     1      10.475   2.452  -0.002  0.00  0.00    -0.301 N 
ATOM     15  C   UNL     1      10.164   3.804  -0.482  0.00  0.00    +0.108 C 
ATOM     16  C   UNL     1      11.382   4.710  -0.285  0.00  0.00    +0.019 C 
ATOM     17  C   UNL     1      12.571   4.134  -1.059  0.00  0.00    +0.003 C 
ATOM     18  C   UNL     1      12.843   2.708  -0.574  0.00  0.00    +0.019 C 
ATOM     19  C   UNL     1      11.583   1.860  -0.763  0.00  0.00    +0.108 C 
ATOM     20  H   UNL     1       9.474  -1.947  -1.613  0.00  0.00    +0.156 HD
ENDROOT
BRANCH   1  22
ATOM     21  N   UNL     1       3.926  -0.127   0.986  0.00  0.00    -0.285 N 
ATOM     22  C   UNL     1       4.733  -0.038  -0.090  0.00  0.00    +0.225 C 
ATOM     23  O   UNL     1       4.445   0.705  -1.005  0.00  0.00    -0.275 OA
ATOM     24  H   UNL     1       4.229  -0.735   1.851  0.00  0.00    +0.155 HD
BRANCH  21  28
ATOM     25  C   UNL     1       0.285   1.903   1.034  0.00  0.00    -0.023 A 
ATOM     26  C   UNL     1       1.005   1.730   2.217  0.00  0.00    +0.010 A 
ATOM     27  C   UNL     1       2.208   1.058   2.198  0.00  0.00    +0.024 A 
ATOM     28  C   UNL     1       2.705   0.554   1.002  0.00  0.00    +0.033 A 
ATOM     29  C   UNL     1       1.991   0.725  -0.179  0.00  0.00    +0.024 A 
ATOM     30  C   UNL     1       0.787   1.396  -0.166  0.00  0.00    +0.010 A 
BRANCH  25  32
ATOM     31  C   UNL     1      -1.039   4.091   1.410  0.00  0.00    +0.044 C 
ATOM     32  C   UNL     1      -1.002   2.628   1.050  0.00  0.00    -0.050 C 
ATOM     33  C   UNL     1      -2.126   1.992   0.747  0.00  0.00    +0.012 C 
ENDBRANCH  25  32
ENDBRANCH  21  28
ENDBRANCH   1  22
TORSDOF 3
