REMARK  Name = ZINC39702781
REMARK  5 active torsions:
REMARK  status: ('A' for Active; 'I' for Inactive)
REMARK    1  A    between atoms: C_1  and  C_2
REMARK    2  A    between atoms: C_5  and  N_8
REMARK    3  A    between atoms: C_9  and  C_20
REMARK    4  A    between atoms: C_21  and  C_22
REMARK    5  A    between atoms: C_30  and  C_32
REMARK                            x       y       z     vdW  Elec       q    Type
REMARK                         _______ _______ _______ _____ _____    ______ ____
ROOT
ATOM      1  N   UNL     1      -0.012  -3.839   0.128  0.00  0.00    -0.245 N 
ATOM      2  C   UNL     1       0.192  -4.795   1.216  0.00  0.00    +0.190 C 
ATOM      3  N   UNL     1      -0.420  -6.086   0.882  0.00  0.00    -0.322 N 
ATOM      4  C   UNL     1      -0.252  -6.594  -0.401  0.00  0.00    +0.041 A 
ATOM      5  C   UNL     1      -0.252  -7.956  -0.651  0.00  0.00    +0.024 A 
ATOM      6  C   UNL     1      -0.093  -8.413  -1.945  0.00  0.00    +0.002 A 
ATOM      7  C   UNL     1       0.067  -7.521  -2.994  0.00  0.00    +0.001 A 
ATOM      8  C   UNL     1       0.074  -6.161  -2.761  0.00  0.00    +0.015 A 
ATOM      9  C   UNL     1      -0.082  -5.686  -1.461  0.00  0.00    +0.058 A 
ATOM     10  C   UNL     1      -0.062  -4.245  -1.157  0.00  0.00    +0.254 C 
ATOM     11  O   UNL     1      -0.087  -3.428  -2.058  0.00  0.00    -0.270 OA
ATOM     12  H   UNL     1      -0.932  -6.576   1.544  0.00  0.00    +0.148 HD
ENDROOT
BRANCH   1  17
ATOM     13  C   UNL     1      -0.624   1.669   1.336  0.00  0.00    +0.044 C 
ATOM     14  C   UNL     1      -0.461   0.206   1.015  0.00  0.00    -0.050 A 
ATOM     15  C   UNL     1      -1.437  -0.696   1.396  0.00  0.00    +0.005 A 
ATOM     16  C   UNL     1      -1.291  -2.038   1.103  0.00  0.00    +0.024 A 
ATOM     17  C   UNL     1      -0.163  -2.481   0.425  0.00  0.00    +0.039 A 
ATOM     18  C   UNL     1       0.815  -1.571   0.043  0.00  0.00    +0.024 A 
ATOM     19  C   UNL     1       0.661  -0.230   0.335  0.00  0.00    +0.005 A 
ENDBRANCH   1  17
BRANCH   2  20
ATOM     20  C   UNL     1       1.670  -4.990   1.439  0.00  0.00    +0.015 C 
ATOM     21  C   UNL     1       2.213  -4.696   2.630  0.00  0.00    +0.005 C 
BRANCH  21  22
ATOM     22  C   UNL     1       3.597  -4.872   2.835  0.00  0.00    -0.017 C 
ATOM     23  C   UNL     1       4.329  -4.524   3.963  0.00  0.00    +0.003 A 
ATOM     24  C   UNL     1       3.964  -3.923   5.191  0.00  0.00    +0.010 A 
ATOM     25  C   UNL     1       4.910  -3.696   6.135  0.00  0.00    +0.001 A 
ATOM     26  C   UNL     1       6.250  -4.042   5.929  0.00  0.00    +0.002 A 
ATOM     27  C   UNL     1       6.671  -4.620   4.780  0.00  0.00    +0.026 A 
ATOM     28  C   UNL     1       5.739  -4.890   3.742  0.00  0.00    +0.043 A 
ATOM     29  N   UNL     1       5.892  -5.434   2.554  0.00  0.00    -0.378 N 
ATOM     30  C   UNL     1       4.593  -5.484   1.876  0.00  0.00    +0.107 C 
ATOM     31  C   UNL     1       4.210  -6.934   1.573  0.00  0.00    +0.035 C 
ATOM     32  H   UNL     1       6.731  -5.753   2.186  0.00  0.00    +0.160 HD
ENDBRANCH  21  22
ENDBRANCH   2  20
TORSDOF 3
