REMARK  Name = ZINC58530864
REMARK  2 active torsions:
REMARK  status: ('A' for Active; 'I' for Inactive)
REMARK    1  A    between atoms: C_7  and  C_13
REMARK    2  A    between atoms: C_22  and  N_24
REMARK                            x       y       z     vdW  Elec       q    Type
REMARK                         _______ _______ _______ _____ _____    ______ ____
ROOT
ATOM      1  C   UNL     1       1.350  -2.692   1.393  0.00  0.00    +0.228 C 
ATOM      2  O   UNL     1       1.502  -1.910   2.308  0.00  0.00    -0.275 OA
ATOM      3  N   UNL     1       1.290  -4.016   1.642  0.00  0.00    -0.270 N 
ATOM      4  C   UNL     1       1.222  -5.061   0.617  0.00  0.00    +0.118 C 
ATOM      5  C   UNL     1       1.170  -6.386   1.395  0.00  0.00    +0.056 C 
ATOM      6  C   UNL     1       1.214  -5.975   2.849  0.00  0.00    -0.022 A 
ATOM      7  C   UNL     1       1.288  -4.593   2.916  0.00  0.00    +0.040 A 
ATOM      8  C   UNL     1       1.344  -3.976   4.167  0.00  0.00    +0.026 A 
ATOM      9  C   UNL     1       1.330  -4.736   5.317  0.00  0.00    +0.034 A 
ATOM     10  C   UNL     1       1.261  -6.114   5.240  0.00  0.00    +0.127 A 
ATOM     11  C   UNL     1       1.196  -6.732   4.005  0.00  0.00    +0.038 A 
ENDROOT
BRANCH   1  18
ATOM     12  C   UNL     1      -1.450   0.470  -0.193  0.00  0.00    +0.000 A 
ATOM     13  C   UNL     1      -0.711   1.624  -0.005  0.00  0.00    +0.002 A 
ATOM     14  C   UNL     1       0.655   1.549   0.178  0.00  0.00    +0.023 A 
ATOM     15  C   UNL     1       1.288   0.313   0.173  0.00  0.00    +0.037 A 
ATOM     16  C   UNL     1       0.543  -0.844  -0.016  0.00  0.00    -0.014 A 
ATOM     17  C   UNL     1      -0.823  -0.763  -0.199  0.00  0.00    +0.006 A 
ATOM     18  C   UNL     1       1.230  -2.185  -0.021  0.00  0.00    +0.116 C 
ATOM     19  C   UNL     1       2.624  -2.043  -0.631  0.00  0.00    +0.113 C 
ATOM     20  C   UNL     1       3.343  -0.879  -0.004  0.00  0.00    +0.218 C 
ATOM     21  O   UNL     1       4.540  -0.940   0.177  0.00  0.00    -0.275 OA
ATOM     22  N   UNL     1       2.671   0.230   0.359  0.00  0.00    -0.285 N 
ATOM     23  H   UNL     1       3.150   0.977   0.750  0.00  0.00    +0.155 HD
ENDBRANCH   1  18
BRANCH  10  24
ATOM     24  N   UNL     1       1.246  -6.927   6.478  0.00  0.00    +0.056 N 
ATOM     25  O   UNL     1       1.295  -6.385   7.557  0.00  0.00    -0.126 OA
ATOM     26  O   UNL     1       1.186  -8.132   6.409  0.00  0.00    -0.126 OA
ENDBRANCH  10  24
TORSDOF 2
