REMARK  Name = ZINC52914297
REMARK  8 active torsions:
REMARK  status: ('A' for Active; 'I' for Inactive)
REMARK    1  A    between atoms: C_1  and  C_2
REMARK    2  A    between atoms: C_5  and  N_21
REMARK    3  A    between atoms: C_6  and  N_9
REMARK    4  A    between atoms: C_7  and  C_8
REMARK    5  A    between atoms: C_10  and  C_12
REMARK    6  A    between atoms: C_12  and  C_14
REMARK    7  A    between atoms: C_12  and  S_15
REMARK    8  A    between atoms: S_15  and  C_16
REMARK                            x       y       z     vdW  Elec       q    Type
REMARK                         _______ _______ _______ _____ _____    ______ ____
ROOT
ATOM      1  N   UNL     1       0.622  -3.062   2.127  0.00  0.00    -0.283 N 
ATOM      2  C   UNL     1       0.329  -2.680   3.386  0.00  0.00    +0.230 C 
ATOM      3  O   UNL     1      -0.111  -1.569   3.596  0.00  0.00    -0.274 OA
ATOM      4  H   UNL     1       1.048  -3.919   1.967  0.00  0.00    +0.155 HD
ENDROOT
BRANCH   1  10
ATOM      5  C   UNL     1       0.942   1.342  -0.035  0.00  0.00    +0.044 C 
ATOM      6  C   UNL     1       0.454  -0.084  -0.023  0.00  0.00    -0.046 A 
ATOM      7  C   UNL     1      -0.302  -0.565  -1.076  0.00  0.00    +0.006 A 
ATOM      8  C   UNL     1      -0.752  -1.872  -1.069  0.00  0.00    +0.035 A 
ATOM      9  C   UNL     1      -0.448  -2.703  -0.008  0.00  0.00    +0.148 A 
ATOM     10  C   UNL     1       0.311  -2.223   1.051  0.00  0.00    +0.067 A 
ATOM     11  C   UNL     1       0.766  -0.911   1.038  0.00  0.00    -0.024 A 
ATOM     12  C   UNL     1       1.595  -0.389   2.183  0.00  0.00    +0.046 C 
BRANCH   9  13
ATOM     13  N   UNL     1      -0.930  -4.102  -0.000  0.00  0.00    +0.058 N 
ATOM     14  O   UNL     1      -1.586  -4.520  -0.926  0.00  0.00    -0.126 OA
ATOM     15  O   UNL     1      -0.669  -4.826   0.932  0.00  0.00    -0.126 OA
ENDBRANCH   9  13
ENDBRANCH   1  10
BRANCH   2  16
ATOM     16  C   UNL     1       0.548  -3.633   4.533  0.00  0.00    +0.136 C 
ATOM     17  C   UNL     1      -0.617  -4.623   4.603  0.00  0.00    +0.029 C 
BRANCH  16  18
ATOM     18  S   UNL     1       0.642  -2.699   6.085  0.00  0.00    -0.086 S 
BRANCH  18  19
ATOM     19  C   UNL     1       1.043  -3.918   7.293  0.00  0.00    +0.135 A 
ATOM     20  N   UNL     1       1.238  -5.209   7.119  0.00  0.00    -0.241 NA
ATOM     21  C   UNL     1       1.534  -5.996   8.137  0.00  0.00    +0.120 A 
ATOM     22  C   UNL     1       1.627  -5.416   9.358  0.00  0.00    +0.067 A 
ATOM     23  S   UNL     1       1.276  -3.715   8.947  0.00  0.00    -0.069 S 
ENDBRANCH  18  19
ENDBRANCH  16  18
ENDBRANCH   2  16
TORSDOF 5
