REMARK  Name = ZINC04851489
REMARK  10 active torsions:
REMARK  status: ('A' for Active; 'I' for Inactive)
REMARK    1  A    between atoms: C_1  and  C_2
REMARK    2  A    between atoms: C_2  and  C_3
REMARK    3  A    between atoms: C_2  and  C_4
REMARK    4  A    between atoms: C_2  and  N_5
REMARK    5  A    between atoms: C_6  and  C_8
REMARK    6  A    between atoms: C_8  and  N_9
REMARK    7  A    between atoms: N_9  and  C_10
REMARK    8  A    between atoms: N_9  and  S_19
REMARK    9  A    between atoms: C_14  and  N_16
REMARK   10  A    between atoms: S_19  and  C_22
REMARK                            x       y       z     vdW  Elec       q    Type
REMARK                         _______ _______ _______ _____ _____    ______ ____
ROOT
ATOM      1  N   UNL     1       4.012  -0.078  -2.655  0.00  0.00    -0.194 N 
ENDROOT
BRANCH   1   2
ATOM      2  C   UNL     1       4.912  -0.951  -2.040  0.00  0.00    +0.054 A 
ATOM      3  C   UNL     1       6.202  -0.528  -1.747  0.00  0.00    +0.025 A 
ATOM      4  C   UNL     1       7.089  -1.394  -1.139  0.00  0.00    +0.004 A 
ATOM      5  C   UNL     1       6.694  -2.681  -0.820  0.00  0.00    +0.033 A 
ATOM      6  C   UNL     1       5.410  -3.104  -1.110  0.00  0.00    +0.128 A 
ATOM      7  C   UNL     1       4.516  -2.242  -1.714  0.00  0.00    +0.057 A 
BRANCH   6   8
ATOM      8  N   UNL     1       4.992  -4.482  -0.768  0.00  0.00    +0.056 N 
ATOM      9  O   UNL     1       5.772  -5.237  -0.235  0.00  0.00    -0.126 OA
ATOM     10  O   UNL     1       3.869  -4.854  -1.021  0.00  0.00    -0.126 OA
ENDBRANCH   6   8
ENDBRANCH   1   2
BRANCH   1  11
ATOM     11  S   UNL     1       4.270   0.412  -4.216  0.00  0.00    +0.075 S 
ATOM     12  O   UNL     1       5.193  -0.507  -4.783  0.00  0.00    -0.150 OA
ATOM     13  O   UNL     1       2.989   0.653  -4.783  0.00  0.00    -0.150 OA
BRANCH  11  14
ATOM     14  C   UNL     1       5.090   1.970  -4.144  0.00  0.00    +0.109 A 
ATOM     15  C   UNL     1       4.356   3.130  -3.974  0.00  0.00    +0.029 A 
ATOM     16  C   UNL     1       5.000   4.352  -3.918  0.00  0.00    +0.002 A 
ATOM     17  C   UNL     1       6.376   4.415  -4.030  0.00  0.00    +0.000 A 
ATOM     18  C   UNL     1       7.109   3.255  -4.199  0.00  0.00    +0.002 A 
ATOM     19  C   UNL     1       6.466   2.033  -4.252  0.00  0.00    +0.029 A 
ENDBRANCH  11  14
ENDBRANCH   1  11
BRANCH   1  20
ATOM     20  C   UNL     1       2.840   0.404  -1.920  0.00  0.00    +0.227 C 
BRANCH  20  22
ATOM     21  N   UNL     1       2.299   2.224  -0.335  0.00  0.00    -0.309 N 
ATOM     22  C   UNL     1       3.223   1.608  -1.099  0.00  0.00    +0.233 C 
ATOM     23  O   UNL     1       4.362   2.023  -1.124  0.00  0.00    -0.274 OA
ATOM     24  H   UNL     1       1.387   1.893  -0.314  0.00  0.00    +0.149 HD
BRANCH  21  26
ATOM     25  C   UNL     1       3.184   4.501  -0.460  0.00  0.00    +0.031 C 
ATOM     26  C   UNL     1       2.671   3.395   0.464  0.00  0.00    +0.026 C 
ATOM     27  C   UNL     1       3.770   3.007   1.455  0.00  0.00    +0.031 C 
ATOM     28  C   UNL     1       1.447   3.898   1.232  0.00  0.00    +0.031 C 
ENDBRANCH  21  26
ENDBRANCH  20  22
ENDBRANCH   1  20
TORSDOF 7
