REMARK  Name = ZINC66113203
REMARK  8 active torsions:
REMARK  status: ('A' for Active; 'I' for Inactive)
REMARK    1  A    between atoms: C_1  and  C_2
REMARK    2  A    between atoms: C_3  and  C_17
REMARK    3  A    between atoms: C_6  and  C_7
REMARK    4  A    between atoms: C_10  and  O_13
REMARK    5  A    between atoms: O_13  and  C_14
REMARK    6  A    between atoms: C_14  and  C_15
REMARK    7  A    between atoms: C_14  and  C_16
REMARK    8  A    between atoms: C_17  and  O_18
REMARK                            x       y       z     vdW  Elec       q    Type
REMARK                         _______ _______ _______ _____ _____    ______ ____
ROOT
ATOM      1  C   UNL     1       0.174  -0.217   2.451  0.00  0.00    +0.020 A 
ATOM      2  C   UNL     1      -0.161   1.113   2.715  0.00  0.00    +0.015 A 
ATOM      3  C   UNL     1      -0.072   1.602   4.000  0.00  0.00    +0.046 A 
ATOM      4  C   UNL     1       0.349   0.774   5.033  0.00  0.00    +0.121 A 
ATOM      5  C   UNL     1       0.683  -0.549   4.775  0.00  0.00    +0.046 A 
ATOM      6  C   UNL     1       0.591  -1.048   3.493  0.00  0.00    +0.015 A 
ENDROOT
BRANCH   1  12
ATOM      7  C   UNL     1      -2.235   0.179   0.510  0.00  0.00    +0.050 C 
ATOM      8  C   UNL     1      -0.965  -0.579   0.220  0.00  0.00    +0.022 A 
ATOM      9  C   UNL     1      -0.651  -1.232  -0.981  0.00  0.00    +0.112 A 
ATOM     10  N   UNL     1       0.528  -1.774  -0.856  0.00  0.00    -0.080 NA
ATOM     11  O   UNL     1       1.013  -1.482   0.442  0.00  0.00    -0.354 OA
ATOM     12  C   UNL     1       0.081  -0.746   1.075  0.00  0.00    +0.170 A 
BRANCH   9  13
ATOM     13  C   UNL     1      -1.527  -1.297  -2.206  0.00  0.00    +0.214 C 
BRANCH  13  14
ATOM     14  O   UNL     1      -1.237  -0.188  -3.058  0.00  0.00    -0.389 OA
ATOM     15  H   UNL     1      -1.765  -0.165  -3.868  0.00  0.00    +0.210 HD
ENDBRANCH  13  14
ENDBRANCH   9  13
ENDBRANCH   1  12
BRANCH   4  16
ATOM     16  O   UNL     1       0.436   1.261   6.298  0.00  0.00    -0.489 OA
BRANCH  16  17
ATOM     17  C   UNL     1       0.194   2.658   6.474  0.00  0.00    +0.167 C 
ATOM     18  C   UNL     1      -1.311   2.902   6.609  0.00  0.00    +0.051 C 
ATOM     19  C   UNL     1       0.905   3.144   7.739  0.00  0.00    +0.051 C 
ENDBRANCH  16  17
ENDBRANCH   4  16
TORSDOF 5
