REMARK  Name = ZINC09698473
REMARK  3 active torsions:
REMARK  status: ('A' for Active; 'I' for Inactive)
REMARK    1  A    between atoms: C_1  and  C_2
REMARK    2  A    between atoms: C_7  and  C_8
REMARK    3  A    between atoms: N_19  and  C_22
REMARK                            x       y       z     vdW  Elec       q    Type
REMARK                         _______ _______ _______ _____ _____    ______ ____
ROOT
ATOM      1  C   UNL     1      -8.648   1.186  -0.489  0.00  0.00    +0.031 C 
ATOM      2  C   UNL     1      -7.247   1.184   0.117  0.00  0.00    +0.045 C 
ATOM      3  C   UNL     1      -6.645  -0.191   0.090  0.00  0.00    -0.019 A 
ATOM      4  C   UNL     1      -7.437  -1.341   0.008  0.00  0.00    +0.040 A 
ATOM      5  C   UNL     1      -6.826  -2.600  -0.004  0.00  0.00    +0.124 A 
ATOM      6  N   UNL     1      -5.516  -2.716   0.058  0.00  0.00    -0.235 NA
ATOM      7  C   UNL     1      -4.721  -1.657   0.134  0.00  0.00    +0.159 A 
ATOM      8  C   UNL     1      -5.267  -0.357   0.152  0.00  0.00    +0.089 A 
ATOM      9  C   UNL     1      -4.132   0.577   0.247  0.00  0.00    +0.281 A 
ATOM     10  O   UNL     1      -4.194   1.790   0.292  0.00  0.00    -0.265 OA
ATOM     11  N   UNL     1      -3.010  -0.172   0.271  0.00  0.00    -0.217 N 
ATOM     12  N   UNL     1      -3.353  -1.525   0.206  0.00  0.00    -0.273 N 
ATOM     13  H   UNL     1      -2.721  -2.261   0.212  0.00  0.00    +0.189 HD
ATOM     14  C   UNL     1      -8.902  -1.223  -0.067  0.00  0.00    +0.165 C 
ATOM     15  O   UNL     1      -9.596  -2.178  -0.347  0.00  0.00    -0.292 OA
ATOM     16  C   UNL     1      -9.512   0.134   0.219  0.00  0.00    +0.088 C 
ENDROOT
BRANCH   1  23
ATOM     17  C   UNL     1      -9.218   2.824  -2.800  0.00  0.00    +0.044 C 
ATOM     18  C   UNL     1      -9.543   3.331  -1.418  0.00  0.00    -0.047 A 
ATOM     19  C   UNL     1     -10.117   4.578  -1.257  0.00  0.00    +0.003 A 
ATOM     20  C   UNL     1     -10.411   5.045   0.010  0.00  0.00    +0.000 A 
ATOM     21  C   UNL     1     -10.133   4.264   1.116  0.00  0.00    +0.000 A 
ATOM     22  C   UNL     1      -9.563   3.015   0.955  0.00  0.00    +0.004 A 
ATOM     23  C   UNL     1      -9.270   2.548  -0.313  0.00  0.00    -0.041 A 
ENDBRANCH   1  23
BRANCH  11  24
ATOM     24  C   UNL     1      -1.707   0.329   0.354  0.00  0.00    +0.067 A 
ATOM     25  C   UNL     1      -0.626  -0.544   0.377  0.00  0.00    +0.028 A 
ATOM     26  C   UNL     1       0.660  -0.046   0.453  0.00  0.00    +0.002 A 
ATOM     27  C   UNL     1       0.872   1.319   0.512  0.00  0.00    +0.000 A 
ATOM     28  C   UNL     1      -0.202   2.190   0.495  0.00  0.00    +0.002 A 
ATOM     29  C   UNL     1      -1.490   1.699   0.419  0.00  0.00    +0.028 A 
ENDBRANCH  11  24
TORSDOF 2
