REMARK  Name = ZINC19818158
REMARK  6 active torsions:
REMARK  status: ('A' for Active; 'I' for Inactive)
REMARK    1  A    between atoms: C_1  and  O_2
REMARK    2  A    between atoms: O_2  and  C_3
REMARK    3  A    between atoms: C_3  and  C_5
REMARK    4  A    between atoms: C_7  and  C_30
REMARK    5  A    between atoms: N_17  and  C_20
REMARK    6  A    between atoms: C_24  and  C_26
REMARK                            x       y       z     vdW  Elec       q    Type
REMARK                         _______ _______ _______ _____ _____    ______ ____
ROOT
ATOM      1  C   UNL     1       5.453  -2.112   2.135  0.00  0.00    +0.213 C 
ATOM      2  C   UNL     1       5.530  -0.781   1.374  0.00  0.00    +0.161 C 
ATOM      3  N   UNL     1       4.331   0.000   1.722  0.00  0.00    -0.308 N 
ATOM      4  C   UNL     1       3.115  -0.614   1.615  0.00  0.00    +0.175 C 
ATOM      5  N   UNL     1       3.023  -1.930   1.726  0.00  0.00    -0.151 NA
ATOM      6  C   UNL     1       4.078  -2.700   1.950  0.00  0.00    +0.255 C 
ATOM      7  O   UNL     1       3.933  -3.905   2.012  0.00  0.00    -0.273 OA
ATOM      8  N   UNL     1       1.995   0.130   1.400  0.00  0.00    -0.302 N 
ATOM      9  C   UNL     1       0.675  -0.509   1.282  0.00  0.00    +0.126 C 
ATOM     10  C   UNL     1       0.002  -0.004   0.002  0.00  0.00    +0.124 C 
ATOM     11  N   UNL     1      -0.018   1.465   0.010  0.00  0.00    -0.327 N 
ATOM     12  C   UNL     1       1.344   2.016   0.000  0.00  0.00    +0.124 C 
ATOM     13  C   UNL     1       2.072   1.594   1.280  0.00  0.00    +0.126 C 
ATOM     14  H   UNL     1       4.432   1.044   2.054  0.00  0.00    +0.149 HD
ENDROOT
BRANCH  11  15
ATOM     15  C   UNL     1      -0.767   1.961  -1.059  0.00  0.00    +0.030 A 
ATOM     16  C   UNL     1      -1.365   1.085  -1.956  0.00  0.00    +0.023 A 
ATOM     17  C   UNL     1      -2.109   1.579  -3.010  0.00  0.00    +0.002 A 
ATOM     18  C   UNL     1      -2.249   2.944  -3.179  0.00  0.00    +0.012 A 
ATOM     19  C   UNL     1      -1.651   3.819  -2.291  0.00  0.00    +0.057 A 
ATOM     20  C   UNL     1      -0.910   3.332  -1.232  0.00  0.00    +0.035 A 
BRANCH  19  21
ATOM     21  C   UNL     1      -1.807   5.306  -2.479  0.00  0.00    +0.417 C 
ATOM     22  F   UNL     1      -0.771   5.785  -3.287  0.00  0.00    -0.166 F 
ATOM     23  F   UNL     1      -3.037   5.572  -3.091  0.00  0.00    -0.166 F 
ATOM     24  F   UNL     1      -1.759   5.941  -1.233  0.00  0.00    -0.166 F 
ENDBRANCH  19  21
ENDBRANCH  11  15
BRANCH   2  25
ATOM     25  C   UNL     1       5.558  -1.042  -0.110  0.00  0.00    +0.126 A 
ATOM     26  C   UNL     1       6.649  -1.003  -0.896  0.00  0.00    +0.046 A 
ATOM     27  C   UNL     1       6.221  -1.308  -2.208  0.00  0.00    +0.041 A 
ATOM     28  C   UNL     1       4.893  -1.516  -2.146  0.00  0.00    +0.195 A 
ATOM     29  O   UNL     1       4.498  -1.359  -0.872  0.00  0.00    -0.466 OA
ENDBRANCH   2  25
BRANCH   1  30
ATOM     30  C   UNL     1       6.487  -3.064   1.593  0.00  0.00    +0.321 C 
ATOM     31  O   UNL     1       7.213  -2.719   0.691  0.00  0.00    -0.250 OA
BRANCH  30  33
ATOM     32  C   UNL     1       7.620  -5.160   1.540  0.00  0.00    +0.280 C 
ATOM     33  O   UNL     1       6.603  -4.297   2.112  0.00  0.00    -0.467 OA
ENDBRANCH  30  33
ENDBRANCH   1  30
TORSDOF 5
