REMARK  Name = ZINC02251187
REMARK  5 active torsions:
REMARK  status: ('A' for Active; 'I' for Inactive)
REMARK    1  A    between atoms: C_5  and  C_7
REMARK    2  A    between atoms: C_7  and  N_8
REMARK    3  A    between atoms: C_9  and  C_11
REMARK    4  A    between atoms: N_22  and  C_25
REMARK    5  A    between atoms: C_23  and  N_24
REMARK                            x       y       z     vdW  Elec       q    Type
REMARK                         _______ _______ _______ _____ _____    ______ ____
ROOT
ATOM      1  C   UNL     1      -5.261  -2.118   0.724  0.00  0.00    +0.104 A 
ATOM      2  C   UNL     1      -5.636  -1.605  -0.604  0.00  0.00    +0.123 A 
ATOM      3  C   UNL     1      -4.535  -0.724  -1.005  0.00  0.00    +0.166 A 
ATOM      4  N   UNL     1      -4.585  -0.117  -2.172  0.00  0.00    -0.225 NA
ATOM      5  C   UNL     1      -5.642  -0.298  -2.974  0.00  0.00    +0.092 A 
ATOM      6  C   UNL     1      -5.707   0.353  -4.219  0.00  0.00    +0.030 A 
ATOM      7  C   UNL     1      -6.784   0.162  -5.028  0.00  0.00    +0.002 A 
ATOM      8  C   UNL     1      -7.832  -0.672  -4.642  0.00  0.00    +0.002 A 
ATOM      9  C   UNL     1      -7.806  -1.318  -3.445  0.00  0.00    +0.030 A 
ATOM     10  C   UNL     1      -6.708  -1.146  -2.581  0.00  0.00    +0.090 A 
ATOM     11  N   UNL     1      -6.671  -1.777  -1.401  0.00  0.00    -0.241 NA
ATOM     12  N   UNL     1      -3.607  -0.747   0.017  0.00  0.00    -0.280 N 
ATOM     13  C   UNL     1      -4.026  -1.556   1.030  0.00  0.00    +0.117 A 
ENDROOT
BRANCH  12  14
ATOM     14  C   UNL     1      -2.400  -0.032   0.015  0.00  0.00    +0.053 A 
ATOM     15  C   UNL     1      -2.416   1.356   0.025  0.00  0.00    +0.030 A 
ATOM     16  C   UNL     1      -1.228   2.061   0.019  0.00  0.00    +0.051 A 
ATOM     17  C   UNL     1      -0.017   1.386   0.010  0.00  0.00    +0.162 A 
ATOM     18  C   UNL     1       0.002  -0.004   0.002  0.00  0.00    +0.164 A 
ATOM     19  C   UNL     1      -1.190  -0.711   0.004  0.00  0.00    +0.075 A 
ATOM     20  O   UNL     1       1.181  -0.685  -0.006  0.00  0.00    -0.485 OA
ATOM     21  C   UNL     1       2.347   0.053  -0.387  0.00  0.00    +0.270 C 
ATOM     22  C   UNL     1       2.335   1.391   0.365  0.00  0.00    +0.270 C 
ATOM     23  O   UNL     1       1.144   2.098   0.002  0.00  0.00    -0.485 OA
ENDBRANCH  12  14
BRANCH   1  25
ATOM     24  N   UNL     1      -5.854  -4.367   1.438  0.00  0.00    -0.307 N 
ATOM     25  C   UNL     1      -6.034  -3.037   1.556  0.00  0.00    +0.250 C 
ATOM     26  O   UNL     1      -6.841  -2.600   2.357  0.00  0.00    -0.270 OA
ATOM     27  H   UNL     1      -5.211  -4.715   0.800  0.00  0.00    +0.149 HD
BRANCH  24  28
ATOM     28  C   UNL     1      -6.630  -5.288   2.272  0.00  0.00    +0.141 C 
BRANCH  28  33
ATOM     29  C   UNL     1      -6.686  -8.771   0.817  0.00  0.00    +0.000 A 
ATOM     30  C   UNL     1      -5.532  -9.313   1.351  0.00  0.00    +0.001 A 
ATOM     31  C   UNL     1      -4.733  -8.553   2.184  0.00  0.00    +0.020 A 
ATOM     32  C   UNL     1      -5.088  -7.250   2.483  0.00  0.00    +0.046 A 
ATOM     33  C   UNL     1      -6.242  -6.708   1.947  0.00  0.00    -0.012 A 
ATOM     34  C   UNL     1      -7.044  -7.471   1.119  0.00  0.00    +0.006 A 
ATOM     35 CL   UNL     1      -4.084  -6.295   3.529  0.00  0.00    -0.083 Cl
ENDBRANCH  28  33
ENDBRANCH  24  28
ENDBRANCH   1  25
BRANCH  13  36
ATOM     36  N   UNL     1      -3.329  -1.785   2.188  0.00  0.00    -0.343 N 
ATOM     37  H   UNL     1      -2.471  -1.355   2.330  0.00  0.00    +0.144 HD
ATOM     38  H   UNL     1      -3.694  -2.376   2.865  0.00  0.00    +0.144 HD
ENDBRANCH  13  36
TORSDOF 5
