REMARK  Name = ZINC49275413
REMARK  6 active torsions:
REMARK  status: ('A' for Active; 'I' for Inactive)
REMARK    1  A    between atoms: C_1  and  C_2
REMARK    2  A    between atoms: C_2  and  C_3
REMARK    3  A    between atoms: C_3  and  N_4
REMARK    4  A    between atoms: N_7  and  N_8
REMARK    5  A    between atoms: N_8  and  S_9
REMARK    6  A    between atoms: S_9  and  C_12
REMARK                            x       y       z     vdW  Elec       q    Type
REMARK                         _______ _______ _______ _____ _____    ______ ____
ROOT
ATOM      1  S   UNL     1       1.647  -5.808   0.312  0.00  0.00    +0.076 S 
ATOM      2  O   UNL     1       0.732  -6.445  -0.568  0.00  0.00    -0.152 OA
ATOM      3  O   UNL     1       2.810  -5.137  -0.153  0.00  0.00    -0.152 OA
ENDROOT
BRANCH   1   4
ATOM      4  C   UNL     1       2.195  -7.040   1.446  0.00  0.00    +0.145 A 
ATOM      5  C   UNL     1       1.739  -8.339   1.328  0.00  0.00    +0.034 A 
ATOM      6  C   UNL     1       2.168  -9.307   2.217  0.00  0.00    +0.043 A 
ATOM      7  C   UNL     1       3.055  -8.977   3.227  0.00  0.00    +0.161 A 
ATOM      8  C   UNL     1       3.514  -7.675   3.346  0.00  0.00    +0.195 A 
ATOM      9  C   UNL     1       3.087  -6.707   2.451  0.00  0.00    +0.187 A 
ATOM     10  F   UNL     1       3.537  -5.438   2.562  0.00  0.00    -0.200 F 
ATOM     11  F   UNL     1       4.380  -7.351   4.332  0.00  0.00    -0.199 F 
ATOM     12  F   UNL     1       3.474  -9.924   4.095  0.00  0.00    -0.202 F 
ENDBRANCH   1   4
BRANCH   1  13
ATOM     13  N   UNL     1       0.775  -4.698   1.179  0.00  0.00    -0.107 NA
ATOM     14  H   UNL     1      -0.155  -4.534   0.960  0.00  0.00    +0.172 HD
BRANCH  13  18
ATOM     15  N   UNL     1       0.762  -1.976   1.234  0.00  0.00    -0.298 N 
ATOM     16  C   UNL     1       1.364  -2.647   2.235  0.00  0.00    +0.315 C 
ATOM     17  O   UNL     1       1.891  -2.037   3.145  0.00  0.00    -0.251 OA
ATOM     18  N   UNL     1       1.383  -3.995   2.228  0.00  0.00    -0.216 N 
ATOM     19  H   UNL     1       0.342  -2.462   0.507  0.00  0.00    +0.150 HD
ATOM     20  H   UNL     1       1.816  -4.478   2.948  0.00  0.00    +0.172 HD
BRANCH  15  21
ATOM     21  C   UNL     1       0.742  -0.511   1.242  0.00  0.00    +0.105 C 
BRANCH  21  23
ATOM     22  C   UNL     1      -0.019   1.526   0.010  0.00  0.00    +0.005 C 
ATOM     23  C   UNL     1       0.002  -0.004   0.002  0.00  0.00    +0.015 C 
ENDBRANCH  21  23
ENDBRANCH  15  21
ENDBRANCH  13  18
ENDBRANCH   1  13
TORSDOF 5
