REMARK  Name = ZINC42379958
REMARK  9 active torsions:
REMARK  status: ('A' for Active; 'I' for Inactive)
REMARK    1  A    between atoms: C_1  and  C_2
REMARK    2  A    between atoms: C_2  and  N_3
REMARK    3  A    between atoms: N_3  and  C_4
REMARK    4  A    between atoms: C_4  and  C_5
REMARK    5  A    between atoms: C_11  and  C_14
REMARK    6  A    between atoms: N_16  and  C_17
REMARK    7  A    between atoms: C_17  and  C_18
REMARK    8  A    between atoms: C_18  and  C_19
REMARK    9  A    between atoms: C_18  and  C_20
REMARK                            x       y       z     vdW  Elec       q    Type
REMARK                         _______ _______ _______ _____ _____    ______ ____
ROOT
ATOM      1  N   UNL     1       0.561  -0.789  -3.409  0.00  0.00    -0.286 N 
ATOM      2  C   UNL     1       0.319  -0.205  -2.219  0.00  0.00    +0.305 C 
ATOM      3  O   UNL     1       1.107  -0.341  -1.304  0.00  0.00    -0.252 OA
ATOM      4  N   UNL     1      -0.797   0.529  -2.043  0.00  0.00    -0.285 N 
ATOM      5  C   UNL     1      -0.967   1.358  -0.842  0.00  0.00    +0.110 C 
ATOM      6  C   UNL     1      -2.299   0.995  -0.177  0.00  0.00    +0.032 C 
ATOM      7  C   UNL     1      -3.429   1.132  -1.200  0.00  0.00    +0.078 C 
ATOM      8  C   UNL     1      -3.189   0.164  -2.360  0.00  0.00    +0.032 C 
ATOM      9  C   UNL     1      -1.865   0.521  -3.053  0.00  0.00    +0.110 C 
ENDROOT
BRANCH   7  10
ATOM     10  C   UNL     1      -4.745   0.809  -0.540  0.00  0.00    +0.216 C 
ATOM     11  O   UNL     1      -4.776   0.500   0.633  0.00  0.00    -0.276 OA
ATOM     12  N   UNL     1      -5.887   0.864  -1.252  0.00  0.00    -0.315 N 
ATOM     13  H   UNL     1      -5.863   1.111  -2.190  0.00  0.00    +0.149 HD
BRANCH  12  14
ATOM     14  C   UNL     1      -7.167   0.550  -0.611  0.00  0.00    +0.107 C 
BRANCH  14  15
ATOM     15  C   UNL     1      -8.297   0.687  -1.633  0.00  0.00    -0.000 C 
ATOM     16  C   UNL     1      -8.124  -0.367  -2.729  0.00  0.00    +0.009 C 
ATOM     17  C   UNL     1      -9.643   0.481  -0.936  0.00  0.00    +0.009 C 
ENDBRANCH  14  15
ENDBRANCH  12  14
ENDBRANCH   7  10
BRANCH   1  19
ATOM     18  C   UNL     1       2.939  -1.312  -3.644  0.00  0.00    +0.024 C 
ATOM     19  C   UNL     1       1.528  -1.886  -3.504  0.00  0.00    +0.106 C 
ENDBRANCH   1  19
BRANCH   1  20
ATOM     20  C   UNL     1      -0.142  -0.327  -4.608  0.00  0.00    +0.106 C 
ATOM     21  C   UNL     1      -1.041  -1.447  -5.136  0.00  0.00    +0.024 C 
ENDBRANCH   1  20
TORSDOF 5
