REMARK  Name = ZINC39631726
REMARK  15 active torsions:
REMARK  status: ('A' for Active; 'I' for Inactive)
REMARK    1  A    between atoms: C_1  and  C_2
REMARK    2  A    between atoms: C_3  and  C_12
REMARK    3  A    between atoms: C_7  and  O_8
REMARK    4  A    between atoms: O_8  and  C_9
REMARK    5  A    between atoms: C_9  and  C_11
REMARK    6  A    between atoms: C_16  and  C_25
REMARK    7  A    between atoms: N_27  and  C_28
REMARK    8  A    between atoms: C_28  and  C_30
REMARK    9  A    between atoms: C_28  and  C_31
REMARK   10  A    between atoms: C_31  and  C_32
REMARK   11  A    between atoms: C_32  and  C_33
REMARK   12  A    between atoms: C_33  and  C_34
REMARK   13  A    between atoms: C_34  and  C_35
REMARK   14  A    between atoms: C_34  and  C_36
REMARK   15  A    between atoms: C_34  and  O_37
REMARK                            x       y       z     vdW  Elec       q    Type
REMARK                         _______ _______ _______ _____ _____    ______ ____
ROOT
ATOM      1  C   UNL     1      -0.364   0.005  -2.841  0.00  0.00    +0.247 C 
ATOM      2  O   UNL     1      -0.315   1.211  -2.983  0.00  0.00    -0.270 OA
ATOM      3  N   UNL     1      -0.545  -0.793  -3.913  0.00  0.00    -0.296 N 
ATOM      4  C   UNL     1      -0.757  -2.259  -3.927  0.00  0.00    +0.121 C 
ATOM      5  C   UNL     1      -1.817  -2.490  -5.027  0.00  0.00    +0.100 C 
ATOM      6  C   UNL     1      -1.695  -1.268  -5.953  0.00  0.00    -0.004 C 
ATOM      7  C   UNL     1      -0.585  -0.400  -5.342  0.00  0.00    +0.115 C 
ATOM      8  C   UNL     1      -1.306  -1.710  -7.361  0.00  0.00    -0.010 C 
ATOM      9  C   UNL     1      -1.247  -0.484  -8.277  0.00  0.00    -0.082 C 
ATOM     10  N   UNL     1      -2.556   0.180  -8.294  0.00  0.00    +0.379 N 
ATOM     11  C   UNL     1      -2.880   0.683  -6.954  0.00  0.00    -0.082 C 
ATOM     12  C   UNL     1      -3.008  -0.493  -5.982  0.00  0.00    -0.010 C 
ATOM     13  H   UNL     1      -2.532   0.951  -8.944  0.00  0.00    -0.086 HD
ATOM     14  H   UNL     1      -3.263  -0.479  -8.584  0.00  0.00    -0.086 HD
ENDROOT
BRANCH   1  17
ATOM     15  C   UNL     1      -1.474   1.382  -0.552  0.00  0.00    +0.048 C 
ATOM     16  C   UNL     1      -0.757   0.068  -0.383  0.00  0.00    +0.004 A 
ATOM     17  C   UNL     1      -0.225  -0.587  -1.494  0.00  0.00    +0.043 A 
ATOM     18  C   UNL     1       0.439  -1.804  -1.329  0.00  0.00    +0.013 A 
ATOM     19  C   UNL     1       0.567  -2.353  -0.069  0.00  0.00    +0.004 A 
ATOM     20  C   UNL     1       0.040  -1.703   1.030  0.00  0.00    +0.047 A 
ATOM     21  C   UNL     1      -0.618  -0.490   0.877  0.00  0.00    +0.135 A 
BRANCH  21  22
ATOM     22  O   UNL     1      -1.130   0.148   1.962  0.00  0.00    -0.426 OA
BRANCH  22  23
ATOM     23  C   UNL     1      -0.462   1.208   2.444  0.00  0.00    +0.309 C 
ATOM     24  O   UNL     1       0.608   1.512   1.973  0.00  0.00    -0.251 OA
ATOM     25  C   UNL     1      -1.047   2.018   3.572  0.00  0.00    +0.136 C 
ENDBRANCH  22  23
ENDBRANCH  21  22
ENDBRANCH   1  17
BRANCH   5  26
ATOM     26  C   UNL     1      -3.196  -2.555  -4.421  0.00  0.00    +0.218 C 
ATOM     27  O   UNL     1      -3.469  -1.867  -3.460  0.00  0.00    -0.275 OA
ATOM     28  N   UNL     1      -4.125  -3.379  -4.946  0.00  0.00    -0.312 N 
ATOM     29  H   UNL     1      -3.906  -3.929  -5.714  0.00  0.00    +0.149 HD
BRANCH  28  30
ATOM     30  C   UNL     1      -5.464  -3.442  -4.357  0.00  0.00    +0.070 C 
ATOM     31  C   UNL     1      -5.461  -4.430  -3.189  0.00  0.00    +0.028 C 
BRANCH  30  32
ATOM     32  C   UNL     1      -6.466  -3.908  -5.416  0.00  0.00    +0.022 C 
BRANCH  32  33
ATOM     33  C   UNL     1      -6.560  -2.858  -6.525  0.00  0.00    +0.005 C 
BRANCH  33  34
ATOM     34  C   UNL     1      -7.561  -3.323  -7.584  0.00  0.00    +0.034 C 
BRANCH  34  35
ATOM     35  C   UNL     1      -7.656  -2.273  -8.693  0.00  0.00    +0.061 C 
ATOM     36  C   UNL     1      -8.747  -2.678  -9.687  0.00  0.00    +0.041 C 
ATOM     37  C   UNL     1      -8.004  -0.915  -8.080  0.00  0.00    +0.041 C 
BRANCH  35  38
ATOM     38  O   UNL     1      -6.402  -2.183  -9.372  0.00  0.00    -0.389 OA
ATOM     39  H   UNL     1      -6.389  -1.535 -10.089  0.00  0.00    +0.210 HD
ENDBRANCH  35  38
ENDBRANCH  34  35
ENDBRANCH  33  34
ENDBRANCH  32  33
ENDBRANCH  30  32
ENDBRANCH  28  30
ENDBRANCH   5  26
TORSDOF 10
