REMARK  Name = ZINC66679730
REMARK  7 active torsions:
REMARK  status: ('A' for Active; 'I' for Inactive)
REMARK    1  A    between atoms: C_1  and  C_2
REMARK    2  A    between atoms: C_2  and  C_4
REMARK    3  A    between atoms: C_2  and  C_23
REMARK    4  A    between atoms: C_4  and  N_5
REMARK    5  A    between atoms: N_8  and  C_9
REMARK    6  A    between atoms: C_13  and  C_15
REMARK    7  A    between atoms: C_23  and  N_24
REMARK                            x       y       z     vdW  Elec       q    Type
REMARK                         _______ _______ _______ _____ _____    ______ ____
ROOT
ATOM      1  N   UNL     1      -0.058  -0.119  -2.440  0.00  0.00    -0.299 N 
ATOM      2  C   UNL     1       0.387  -0.443  -3.670  0.00  0.00    +0.304 C 
ATOM      3  O   UNL     1       1.432  -1.053  -3.797  0.00  0.00    -0.253 OA
ATOM      4  N   UNL     1      -0.325  -0.092  -4.759  0.00  0.00    -0.269 N 
ATOM      5  H   UNL     1      -0.891   0.367  -2.339  0.00  0.00    +0.150 HD
ATOM      6  H   UNL     1      -1.190   0.335  -4.656  0.00  0.00    +0.156 HD
ENDROOT
BRANCH   4   7
ATOM      7  C   UNL     1       0.184  -0.342  -6.039  0.00  0.00    +0.035 A 
ATOM      8  C   UNL     1       0.933  -1.488  -6.277  0.00  0.00    +0.023 A 
ATOM      9  C   UNL     1       1.438  -1.739  -7.538  0.00  0.00    +0.002 A 
ATOM     10  C   UNL     1       1.200  -0.852  -8.570  0.00  0.00    +0.010 A 
ATOM     11  C   UNL     1       0.450   0.299  -8.341  0.00  0.00    +0.004 A 
ATOM     12  C   UNL     1      -0.064   0.550  -7.071  0.00  0.00    +0.033 A 
BRANCH  11  13
ATOM     13  C   UNL     1       0.194   1.253  -9.448  0.00  0.00    +0.091 A 
ATOM     14  C   UNL     1       0.708   0.989 -10.739  0.00  0.00    +0.035 A 
ATOM     15  C   UNL     1       0.453   1.888 -11.732  0.00  0.00    +0.073 A 
ATOM     16  C   UNL     1      -0.312   3.030 -11.409  0.00  0.00    +0.265 A 
ATOM     17  O   UNL     1      -0.567   3.862 -12.265  0.00  0.00    -0.266 OA
ATOM     18  N   UNL     1      -0.759   3.195 -10.149  0.00  0.00    -0.243 N 
ATOM     19  H   UNL     1      -1.285   3.981  -9.934  0.00  0.00    +0.192 HD
ATOM     20  N   UNL     1      -0.514   2.336  -9.227  0.00  0.00    -0.171 NA
ENDBRANCH  11  13
ENDBRANCH   4   7
BRANCH   1  21
ATOM     21  C   UNL     1       0.716  -0.501  -1.256  0.00  0.00    +0.110 C 
BRANCH  21  23
ATOM     22  C   UNL     1      -0.036   1.514   0.016  0.00  0.00    +0.011 C 
ATOM     23  C   UNL     1      -0.005  -0.016   0.003  0.00  0.00    +0.024 C 
BRANCH  23  24
ATOM     24  C   UNL     1       0.736  -0.521   1.242  0.00  0.00    +0.148 C 
BRANCH  24  25
ATOM     25  N   UNL     1      -0.018  -0.159   2.444  0.00  0.00    -0.271 N 
ATOM     26  C   UNL     1      -0.434  -1.009   3.407  0.00  0.00    +0.108 A 
ATOM     27  C   UNL     1      -1.093  -0.284   4.340  0.00  0.00    +0.041 A 
ATOM     28  C   UNL     1      -1.080   1.054   3.934  0.00  0.00    +0.134 A 
ATOM     29  N   UNL     1      -0.431   1.131   2.801  0.00  0.00    -0.180 NA
ENDBRANCH  24  25
ENDBRANCH  23  24
ENDBRANCH  21  23
ENDBRANCH   1  21
TORSDOF 6
