REMARK  Name = ZINC66327155
REMARK  8 active torsions:
REMARK  status: ('A' for Active; 'I' for Inactive)
REMARK    1  A    between atoms: C_1  and  C_2
REMARK    2  A    between atoms: C_2  and  C_3
REMARK    3  A    between atoms: C_3  and  C_4
REMARK    4  A    between atoms: C_3  and  N_6
REMARK    5  A    between atoms: C_4  and  C_5
REMARK    6  A    between atoms: N_6  and  S_7
REMARK    7  A    between atoms: S_7  and  C_10
REMARK    8  A    between atoms: C_13  and  N_15
REMARK                            x       y       z     vdW  Elec       q    Type
REMARK                         _______ _______ _______ _____ _____    ______ ____
ROOT
ATOM      1  S   UNL     1      -3.358   0.813   1.324  0.00  0.00    +0.065 S 
ATOM      2  O   UNL     1      -3.723   1.019   2.682  0.00  0.00    -0.153 OA
ATOM      3  O   UNL     1      -3.188   1.887   0.410  0.00  0.00    -0.153 OA
ENDROOT
BRANCH   1   4
ATOM      4  C   UNL     1      -4.579  -0.251   0.630  0.00  0.00    +0.145 A 
ATOM      5  C   UNL     1      -5.432  -1.095   1.259  0.00  0.00    +0.038 A 
ATOM      6  C   UNL     1      -6.316  -1.842   0.502  0.00  0.00    +0.042 A 
ATOM      7  C   UNL     1      -6.303  -1.707  -0.847  0.00  0.00    +0.165 A 
ATOM      8  S   UNL     1      -5.019  -0.489  -1.084  0.00  0.00    -0.045 S 
BRANCH   7   9
ATOM      9  N   UNL     1      -7.141  -2.388  -1.860  0.00  0.00    +0.063 N 
ATOM     10  O   UNL     1      -7.976  -3.191  -1.513  0.00  0.00    -0.126 OA
ATOM     11  O   UNL     1      -6.990  -2.141  -3.034  0.00  0.00    -0.126 OA
ENDBRANCH   7   9
ENDBRANCH   1   4
BRANCH   1  12
ATOM     12  N   UNL     1      -1.930  -0.025   1.340  0.00  0.00    -0.186 NA
ATOM     13  H   UNL     1      -1.507  -0.247   2.184  0.00  0.00    +0.148 HD
BRANCH  12  14
ATOM     14  C   UNL     1      -1.306  -0.432   0.078  0.00  0.00    +0.076 C 
BRANCH  14  16
ATOM     15  C   UNL     1      -0.229   1.801  -0.231  0.00  0.00    +0.005 C 
ATOM     16  C   UNL     1       0.028   0.299  -0.090  0.00  0.00    +0.017 C 
ENDBRANCH  14  16
BRANCH  14  17
ATOM     17  C   UNL     1      -1.060  -1.942   0.094  0.00  0.00    +0.017 C 
ATOM     18  C   UNL     1      -2.402  -2.676   0.130  0.00  0.00    +0.005 C 
ENDBRANCH  14  17
ENDBRANCH  12  14
ENDBRANCH   1  12
TORSDOF 6
