REMARK  Name = ZINC26549029
REMARK  5 active torsions:
REMARK  status: ('A' for Active; 'I' for Inactive)
REMARK    1  A    between atoms: C_1  and  C_2
REMARK    2  A    between atoms: C_2  and  C_4
REMARK    3  A    between atoms: C_2  and  S_7
REMARK    4  A    between atoms: S_7  and  C_8
REMARK    5  A    between atoms: C_11  and  C_13
REMARK                            x       y       z     vdW  Elec       q    Type
REMARK                         _______ _______ _______ _____ _____    ______ ____
ROOT
ATOM      1  C   UNL     1      -2.416   0.827  -1.275  0.00  0.00    +0.278 A 
ATOM      2  N   UNL     1      -2.731   0.003  -0.304  0.00  0.00    -0.101 NA
ATOM      3  N   UNL     1      -3.925  -0.440  -0.487  0.00  0.00    -0.106 NA
ATOM      4  C   UNL     1      -4.421   0.084  -1.585  0.00  0.00    +0.256 A 
ATOM      5  O   UNL     1      -3.477   0.902  -2.103  0.00  0.00    -0.410 OA
ENDROOT
BRANCH   4   6
ATOM      6  C   UNL     1      -5.758  -0.166  -2.143  0.00  0.00    +0.076 A 
ATOM      7  C   UNL     1      -6.763  -0.979  -1.663  0.00  0.00    +0.024 A 
ATOM      8  C   UNL     1      -7.962  -1.068  -2.359  0.00  0.00    -0.036 A 
ATOM      9  C   UNL     1      -8.067  -0.327  -3.498  0.00  0.00    -0.006 A 
ATOM     10  S   UNL     1      -6.508   0.509  -3.617  0.00  0.00    -0.088 S 
ATOM     11  C   UNL     1      -9.238  -0.243  -4.424  0.00  0.00    +0.043 C 
ATOM     12  C   UNL     1     -10.191  -1.405  -4.104  0.00  0.00    +0.005 C 
ATOM     13  C   UNL     1     -10.404  -1.463  -2.589  0.00  0.00    +0.005 C 
ATOM     14  C   UNL     1      -9.126  -1.941  -1.898  0.00  0.00    +0.036 C 
ENDBRANCH   4   6
BRANCH   1  15
ATOM     15  S   UNL     1      -0.888   1.685  -1.458  0.00  0.00    -0.051 S 
BRANCH  15  17
ATOM     16  C   UNL     1      -0.729   1.579   1.267  0.00  0.00    +0.031 C 
ATOM     17  C   UNL     1      -0.013   1.086   0.008  0.00  0.00    +0.165 C 
BRANCH  17  18
ATOM     18  C   UNL     1       1.401   1.607  -0.003  0.00  0.00    +0.369 C 
ATOM     19  O   UNL     1       1.665   2.624  -0.600  0.00  0.00    -0.245 OA
ATOM     20  O   UNL     1       2.367   0.943   0.651  0.00  0.00    -0.245 OA
ENDBRANCH  17  18
ENDBRANCH  15  17
ENDBRANCH   1  15
TORSDOF 4
