REMARK  Name = ZINC12446197
REMARK  6 active torsions:
REMARK  status: ('A' for Active; 'I' for Inactive)
REMARK    1  A    between atoms: C_1  and  C_2
REMARK    2  A    between atoms: C_4  and  C_25
REMARK    3  A    between atoms: N_11  and  C_12
REMARK    4  A    between atoms: C_20  and  C_21
REMARK    5  A    between atoms: C_21  and  O_23
REMARK    6  A    between atoms: O_23  and  C_24
REMARK                            x       y       z     vdW  Elec       q    Type
REMARK                         _______ _______ _______ _____ _____    ______ ____
ROOT
ATOM      1  C   UNL     1       2.350   1.481   0.750  0.00  0.00    +0.066 C 
ATOM      2  C   UNL     1       2.124  -0.002   0.604  0.00  0.00    +0.044 A 
ATOM      3  C   UNL     1       2.550  -0.668  -0.534  0.00  0.00    +0.046 A 
ATOM      4  C   UNL     1       2.322  -2.032  -0.628  0.00  0.00    +0.044 A 
ATOM      5  N   UNL     1       1.709  -2.653   0.366  0.00  0.00    -0.217 NA
ATOM      6  C   UNL     1       1.315  -1.987   1.440  0.00  0.00    +0.231 A 
ATOM      7  N   UNL     1       1.522  -0.685   1.564  0.00  0.00    -0.217 NA
ATOM      8  N   UNL     1       0.674  -2.671   2.464  0.00  0.00    -0.295 N 
ATOM      9  C   UNL     1       0.149  -1.980   3.528  0.00  0.00    +0.202 C 
ATOM     10  N   UNL     1       0.131  -0.610   3.513  0.00  0.00    -0.369 N 
ATOM     11  N   UNL     1      -0.337  -2.633   4.562  0.00  0.00    -0.213 NA
ATOM     12  C   UNL     1       2.766  -2.797  -1.848  0.00  0.00    +0.066 C 
ATOM     13  H   UNL     1      -0.026  -0.136   2.681  0.00  0.00    +0.159 HD
ATOM     14  H   UNL     1       0.273  -0.114   4.334  0.00  0.00    +0.159 HD
ATOM     15  H   UNL     1       0.598  -3.637   2.428  0.00  0.00    +0.172 HD
ENDROOT
BRANCH  11  16
ATOM     16  C   UNL     1      -0.319  -3.992   4.577  0.00  0.00    +0.098 A 
ATOM     17  C   UNL     1      -1.433  -4.765   4.038  0.00  0.00    +0.034 A 
ATOM     18  C   UNL     1      -2.632  -4.293   3.452  0.00  0.00    +0.014 A 
ATOM     19  C   UNL     1      -3.560  -5.204   3.004  0.00  0.00    +0.020 A 
ATOM     20  C   UNL     1      -3.322  -6.565   3.126  0.00  0.00    +0.112 A 
ATOM     21  N   UNL     1      -2.203  -7.000   3.672  0.00  0.00    -0.248 NA
ATOM     22  C   UNL     1      -1.286  -6.167   4.115  0.00  0.00    +0.111 A 
ATOM     23  S   UNL     1       0.297  -6.394   4.887  0.00  0.00    -0.060 S 
ATOM     24  C   UNL     1       0.762  -4.687   5.101  0.00  0.00    +0.124 A 
BRANCH  24  25
ATOM     25  C   UNL     1       1.945  -4.167   5.668  0.00  0.00    +0.348 C 
ATOM     26  O   UNL     1       2.107  -2.962   5.740  0.00  0.00    -0.244 OA
BRANCH  25  27
ATOM     27  O   UNL     1       2.897  -5.005   6.130  0.00  0.00    -0.464 OA
ATOM     28  C   UNL     1       4.069  -4.410   6.691  0.00  0.00    +0.280 C 
ENDBRANCH  25  27
ENDBRANCH  24  25
ENDBRANCH  11  16
TORSDOF 3
