REMARK  Name = ZINC63710629
REMARK  10 active torsions:
REMARK  status: ('A' for Active; 'I' for Inactive)
REMARK    1  A    between atoms: C_1  and  C_2
REMARK    2  A    between atoms: C_2  and  C_3
REMARK    3  A    between atoms: C_2  and  N_4
REMARK    4  A    between atoms: C_8  and  C_10
REMARK    5  A    between atoms: C_10  and  N_11
REMARK    6  A    between atoms: C_12  and  C_14
REMARK    7  A    between atoms: C_14  and  S_15
REMARK    8  A    between atoms: S_15  and  C_16
REMARK    9  A    between atoms: C_19  and  C_25
REMARK   10  A    between atoms: C_21  and  N_22
REMARK                            x       y       z     vdW  Elec       q    Type
REMARK                         _______ _______ _______ _____ _____    ______ ____
ROOT
ATOM      1  C   UNL     1      -8.010  -0.323  -3.156  0.00  0.00    +0.170 C 
ENDROOT
BRANCH   1   3
ATOM      2  N   UNL     1      -5.700  -0.320  -2.272  0.00  0.00    -0.314 N 
ATOM      3  C   UNL     1      -6.548   0.029  -3.260  0.00  0.00    +0.223 C 
ATOM      4  O   UNL     1      -6.136   0.626  -4.231  0.00  0.00    -0.275 OA
ATOM      5  H   UNL     1      -6.030  -0.798  -1.495  0.00  0.00    +0.149 HD
BRANCH   2   6
ATOM      6  C   UNL     1      -4.279   0.022  -2.373  0.00  0.00    +0.106 C 
BRANCH   6  11
ATOM      7  N   UNL     1      -1.376  -0.512   0.012  0.00  0.00    +0.381 N 
ATOM      8  C   UNL     1      -1.355  -1.980   0.013  0.00  0.00    -0.078 C 
ATOM      9  C   UNL     1      -2.785  -2.515   0.106  0.00  0.00    -0.018 C 
ATOM     10  C   UNL     1      -3.590  -2.015  -1.097  0.00  0.00    +0.001 C 
ATOM     11  C   UNL     1      -3.543  -0.485  -1.130  0.00  0.00    -0.011 C 
ATOM     12  C   UNL     1      -2.085  -0.025  -1.177  0.00  0.00    -0.074 C 
ATOM     13  H   UNL     1      -1.848  -0.185   0.842  0.00  0.00    -0.081 HD
BRANCH   7  15
ATOM     14  C   UNL     1      -0.019   1.526   0.010  0.00  0.00    -0.014 C 
ATOM     15  C   UNL     1       0.002  -0.004   0.002  0.00  0.00    -0.075 C 
ATOM     16  C   UNL     1       0.742  -0.511   1.242  0.00  0.00    -0.014 C 
ENDBRANCH   7  15
ENDBRANCH   6  11
ENDBRANCH   2   6
ENDBRANCH   1   3
BRANCH   1  17
ATOM     17  S   UNL     1      -8.882   0.278  -4.629  0.00  0.00    -0.114 S 
BRANCH  17  18
ATOM     18  C   UNL     1     -10.555  -0.205  -4.360  0.00  0.00    +0.039 A 
ATOM     19  C   UNL     1     -10.904  -0.885  -3.196  0.00  0.00    +0.018 A 
ATOM     20  C   UNL     1     -12.199  -1.261  -2.982  0.00  0.00    +0.014 A 
ATOM     21  C   UNL     1     -13.181  -0.965  -3.933  0.00  0.00    +0.039 A 
ATOM     22  C   UNL     1     -12.833  -0.283  -5.103  0.00  0.00    +0.047 A 
ATOM     23  C   UNL     1     -11.528   0.100  -5.310  0.00  0.00    +0.140 A 
BRANCH  21  24
ATOM     24  C   UNL     1     -14.579  -1.372  -3.703  0.00  0.00    +0.242 C 
ATOM     25  O   UNL     1     -15.432  -1.115  -4.531  0.00  0.00    -0.270 OA
ATOM     26  N   UNL     1     -14.913  -2.030  -2.575  0.00  0.00    -0.325 N 
ATOM     27  H   UNL     1     -14.233  -2.236  -1.915  0.00  0.00    +0.145 HD
ATOM     28  H   UNL     1     -15.833  -2.298  -2.424  0.00  0.00    +0.145 HD
ENDBRANCH  21  24
BRANCH  23  29
ATOM     29  N   UNL     1     -11.156   0.827  -6.545  0.00  0.00    +0.058 N 
ATOM     30  O   UNL     1     -12.000   1.091  -7.369  0.00  0.00    -0.126 OA
ATOM     31  O   UNL     1     -10.007   1.158  -6.728  0.00  0.00    -0.126 OA
ENDBRANCH  23  29
ENDBRANCH  17  18
ENDBRANCH   1  17
TORSDOF 8
