REMARK  Name = ZINC39855497
REMARK  9 active torsions:
REMARK  status: ('A' for Active; 'I' for Inactive)
REMARK    1  A    between atoms: C_1  and  C_2
REMARK    2  A    between atoms: C_6  and  C_7
REMARK    3  A    between atoms: N_9  and  C_10
REMARK    4  A    between atoms: C_15  and  C_16
REMARK    5  A    between atoms: C_16  and  O_18
REMARK    6  A    between atoms: O_18  and  C_19
REMARK    7  A    between atoms: C_21  and  C_26
REMARK    8  A    between atoms: C_21  and  C_27
REMARK    9  A    between atoms: C_23  and  O_25
REMARK                            x       y       z     vdW  Elec       q    Type
REMARK                         _______ _______ _______ _____ _____    ______ ____
ROOT
ATOM      1  C   UNL     1      -0.025   1.501   0.010  0.00  0.00    +0.048 C 
ATOM      2  C   UNL     1       0.012  -0.006   0.002  0.00  0.00    +0.006 A 
ATOM      3  C   UNL     1       0.034  -0.835  -1.122  0.00  0.00    +0.025 A 
ATOM      4  C   UNL     1       0.064  -2.116  -0.680  0.00  0.00    +0.112 A 
ATOM      5  O   UNL     1       0.063  -2.107   0.655  0.00  0.00    -0.454 OA
ATOM      6  C   UNL     1       0.036  -0.830   1.094  0.00  0.00    +0.193 A 
ATOM      7  C   UNL     1       0.091  -3.319  -1.593  0.00  0.00    +0.081 C 
ATOM      8  C   UNL     1      -0.339  -2.872  -2.996  0.00  0.00    -0.025 C 
ATOM      9  C   UNL     1       0.471  -1.640  -3.411  0.00  0.00    +0.043 C 
ATOM     10  C   UNL     1       0.029  -0.433  -2.574  0.00  0.00    +0.149 C 
ATOM     11  C   UNL     1      -0.088  -4.006  -3.991  0.00  0.00    +0.011 C 
ATOM     12  C   UNL     1      -1.828  -2.523  -2.986  0.00  0.00    +0.011 C 
ENDROOT
BRANCH   6  13
ATOM     13  C   UNL     1       0.030  -0.401   2.496  0.00  0.00    +0.284 C 
ATOM     14  O   UNL     1       0.001   0.784   2.770  0.00  0.00    -0.266 OA
ATOM     15  N   UNL     1       0.056  -1.320   3.482  0.00  0.00    -0.278 N 
ATOM     16  H   UNL     1      -0.002  -2.264   3.266  0.00  0.00    +0.155 HD
BRANCH  15  17
ATOM     17  C   UNL     1       0.167  -0.914   4.808  0.00  0.00    +0.048 A 
ATOM     18  C   UNL     1       0.758   0.303   5.118  0.00  0.00    +0.024 A 
ATOM     19  C   UNL     1       0.866   0.704   6.435  0.00  0.00    +0.002 A 
ATOM     20  C   UNL     1       0.387  -0.103   7.455  0.00  0.00    +0.001 A 
ATOM     21  C   UNL     1      -0.202  -1.314   7.167  0.00  0.00    +0.017 A 
ATOM     22  C   UNL     1      -0.324  -1.731   5.838  0.00  0.00    +0.080 A 
BRANCH  22  23
ATOM     23  C   UNL     1      -0.959  -3.023   5.522  0.00  0.00    +0.341 C 
ATOM     24  O   UNL     1      -0.979  -3.426   4.376  0.00  0.00    -0.245 OA
BRANCH  23  25
ATOM     25  O   UNL     1      -1.517  -3.758   6.504  0.00  0.00    -0.464 OA
ATOM     26  C   UNL     1      -2.114  -5.000   6.126  0.00  0.00    +0.280 C 
ENDBRANCH  23  25
ENDBRANCH  22  23
ENDBRANCH  15  17
ENDBRANCH   6  13
BRANCH  10  27
ATOM     27  O   UNL     1       0.937   0.652  -2.777  0.00  0.00    -0.387 OA
ATOM     28  H   UNL     1       0.726   1.443  -2.263  0.00  0.00    +0.210 HD
ENDBRANCH  10  27
TORSDOF 5
