REMARK  Name = ZINC56186580
REMARK  9 active torsions:
REMARK  status: ('A' for Active; 'I' for Inactive)
REMARK    1  A    between atoms: C_1  and  C_2
REMARK    2  A    between atoms: C_2  and  C_4
REMARK    3  A    between atoms: C_2  and  N_15
REMARK    4  A    between atoms: N_9  and  C_10
REMARK    5  A    between atoms: C_10  and  C_11
REMARK    6  A    between atoms: N_15  and  C_16
REMARK    7  A    between atoms: C_19  and  N_22
REMARK    8  A    between atoms: C_23  and  O_25
REMARK    9  A    between atoms: O_25  and  C_26
REMARK                            x       y       z     vdW  Elec       q    Type
REMARK                         _______ _______ _______ _____ _____    ______ ____
ROOT
ATOM      1  C   UNL     1       0.251   1.311   0.134  0.00  0.00    +0.038 C 
ATOM      2  C   UNL     1       0.073  -0.204   0.021  0.00  0.00    +0.154 C 
ENDROOT
BRANCH   2   3
ATOM      3  C   UNL     1       0.700  -0.689  -1.260  0.00  0.00    +0.240 C 
ATOM      4  O   UNL     1       0.021  -1.251  -2.093  0.00  0.00    -0.273 OA
ATOM      5  N   UNL     1       2.016  -0.498  -1.481  0.00  0.00    -0.239 N 
ATOM      6  C   UNL     1       2.577  -0.932  -2.627  0.00  0.00    +0.306 C 
ATOM      7  O   UNL     1       1.896  -1.496  -3.462  0.00  0.00    -0.252 OA
ATOM      8  N   UNL     1       3.893  -0.741  -2.849  0.00  0.00    -0.291 N 
ATOM      9  H   UNL     1       2.559  -0.048  -0.815  0.00  0.00    +0.159 HD
ATOM     10  H   UNL     1       4.436  -0.291  -2.183  0.00  0.00    +0.151 HD
BRANCH   8  11
ATOM     11  C   UNL     1       4.502  -1.212  -4.094  0.00  0.00    +0.219 C 
BRANCH  11  12
ATOM     12  C   UNL     1       5.994  -0.872  -4.093  0.00  0.00    +0.405 C 
ATOM     13  F   UNL     1       6.614  -1.497  -3.005  0.00  0.00    -0.169 F 
ATOM     14  F   UNL     1       6.576  -1.323  -5.283  0.00  0.00    -0.169 F 
ATOM     15  F   UNL     1       6.156   0.513  -3.990  0.00  0.00    -0.169 F 
ENDBRANCH  11  12
ENDBRANCH   8  11
ENDBRANCH   2   3
BRANCH   2  16
ATOM     16  N   UNL     1      -1.355  -0.530   0.020  0.00  0.00    -0.333 N 
ATOM     17  H   UNL     1      -1.825  -0.645  -0.821  0.00  0.00    +0.147 HD
BRANCH  16  18
ATOM     18  C   UNL     1      -2.041  -0.675   1.231  0.00  0.00    +0.028 A 
ATOM     19  C   UNL     1      -1.369  -0.504   2.434  0.00  0.00    +0.025 A 
ATOM     20  C   UNL     1      -2.046  -0.647   3.629  0.00  0.00    +0.025 A 
ATOM     21  C   UNL     1      -3.398  -0.961   3.628  0.00  0.00    +0.037 A 
ATOM     22  C   UNL     1      -4.070  -1.131   2.425  0.00  0.00    +0.025 A 
ATOM     23  C   UNL     1      -3.395  -0.983   1.230  0.00  0.00    +0.025 A 
BRANCH  21  24
ATOM     24  N   UNL     1      -4.085  -1.106   4.841  0.00  0.00    -0.251 N 
ATOM     25  C   UNL     1      -3.739  -0.355   5.906  0.00  0.00    +0.404 C 
ATOM     26  O   UNL     1      -2.897   0.514   5.788  0.00  0.00    -0.226 OA
ATOM     27  H   UNL     1      -4.810  -1.746   4.915  0.00  0.00    +0.158 HD
BRANCH  25  28
ATOM     28  O   UNL     1      -4.325  -0.569   7.099  0.00  0.00    -0.453 OA
ATOM     29  C   UNL     1      -3.909   0.264   8.184  0.00  0.00    +0.282 C 
ENDBRANCH  25  28
ENDBRANCH  21  24
ENDBRANCH  16  18
ENDBRANCH   2  16
TORSDOF 7
