REMARK  Name = ZINC15957250
REMARK  7 active torsions:
REMARK  status: ('A' for Active; 'I' for Inactive)
REMARK    1  A    between atoms: C_1  and  C_2
REMARK    2  A    between atoms: C_5  and  N_9
REMARK    3  A    between atoms: C_6  and  C_8
REMARK    4  A    between atoms: C_14  and  C_31
REMARK    5  A    between atoms: C_31  and  C_32
REMARK    6  A    between atoms: C_32  and  S_33
REMARK    7  A    between atoms: S_33  and  C_34
REMARK                            x       y       z     vdW  Elec       q    Type
REMARK                         _______ _______ _______ _____ _____    ______ ____
ROOT
ATOM      1  N   UNL     1       0.059  -4.172  -0.021  0.00  0.00    -0.210 N 
ATOM      2  C   UNL     1      -1.057  -4.911  -0.025  0.00  0.00    +0.232 C 
ATOM      3  O   UNL     1      -2.187  -4.472  -0.018  0.00  0.00    -0.274 OA
ATOM      4  C   UNL     1      -0.689  -6.377  -0.039  0.00  0.00    +0.107 C 
ATOM      5  C   UNL     1      -1.104  -7.021   1.300  0.00  0.00    +0.068 C 
ATOM      6  N   UNL     1       0.051  -6.790   2.209  0.00  0.00    -0.295 NA
ATOM      7  C   UNL     1       1.232  -6.975   1.346  0.00  0.00    +0.136 C 
ATOM      8  C   UNL     1       0.865  -6.357  -0.027  0.00  0.00    +0.123 C 
ATOM      9  C   UNL     1       1.193  -4.881  -0.031  0.00  0.00    +0.233 C 
ATOM     10  O   UNL     1       2.312  -4.412  -0.039  0.00  0.00    -0.274 OA
ATOM     11  C   UNL     1       1.596  -8.426   1.212  0.00  0.00    +0.003 A 
ATOM     12  C   UNL     1       0.922  -9.533   0.747  0.00  0.00    +0.008 A 
ATOM     13  C   UNL     1       1.540 -10.771   0.749  0.00  0.00    +0.000 A 
ATOM     14  C   UNL     1       2.834 -10.893   1.220  0.00  0.00    +0.002 A 
ATOM     15  C   UNL     1       3.513  -9.787   1.687  0.00  0.00    +0.023 A 
ATOM     16  C   UNL     1       2.899  -8.537   1.688  0.00  0.00    +0.039 A 
ATOM     17  N   UNL     1       3.369  -7.289   2.102  0.00  0.00    -0.283 N 
ATOM     18  C   UNL     1       2.451  -6.318   1.935  0.00  0.00    +0.243 C 
ATOM     19  O   UNL     1       2.581  -5.143   2.207  0.00  0.00    -0.273 OA
ATOM     20  H   UNL     1       0.026  -5.858   2.594  0.00  0.00    +0.123 HD
ATOM     21  H   UNL     1       4.255  -7.139   2.468  0.00  0.00    +0.155 HD
ENDROOT
BRANCH   1  26
ATOM     22  C   UNL     1      -0.018   1.503   0.010  0.00  0.00    +0.044 C 
ATOM     23  C   UNL     1       0.002  -0.004   0.002  0.00  0.00    -0.050 A 
ATOM     24  C   UNL     1       0.006  -0.688  -1.200  0.00  0.00    +0.005 A 
ATOM     25  C   UNL     1       0.025  -2.068  -1.211  0.00  0.00    +0.024 A 
ATOM     26  C   UNL     1       0.040  -2.771  -0.013  0.00  0.00    +0.047 A 
ATOM     27  C   UNL     1       0.037  -2.082   1.192  0.00  0.00    -0.028 A 
ATOM     28  C   UNL     1       0.023  -0.700   1.196  0.00  0.00    +0.008 A 
ATOM     29  C   UNL     1       0.053  -2.840   2.494  0.00  0.00    +0.046 C 
ENDBRANCH   1  26
BRANCH   5  30
ATOM     30  C   UNL     1      -2.361  -6.343   1.850  0.00  0.00    +0.030 C 
BRANCH  30  31
ATOM     31  C   UNL     1      -2.825  -7.076   3.111  0.00  0.00    +0.070 C 
BRANCH  31  32
ATOM     32  S   UNL     1      -4.315  -6.273   3.763  0.00  0.00    -0.164 S 
ATOM     33  C   UNL     1      -4.731  -7.248   5.235  0.00  0.00    +0.084 C 
ENDBRANCH  31  32
ENDBRANCH  30  31
ENDBRANCH   5  30
TORSDOF 4
