REMARK  Name = ZINC04499635
REMARK  2 active torsions:
REMARK  status: ('A' for Active; 'I' for Inactive)
REMARK    1  A    between atoms: C_6  and  C_7
REMARK    2  A    between atoms: N_8  and  N_9
REMARK                            x       y       z     vdW  Elec       q    Type
REMARK                         _______ _______ _______ _____ _____    ______ ____
ROOT
ATOM      1  N   UNL     1       1.225  -0.688  -0.013  0.00  0.00    -0.220 N 
ATOM      2  C   UNL     1       1.244  -2.078  -0.021  0.00  0.00    +0.157 A 
ATOM      3  C   UNL     1       2.462  -2.752  -0.042  0.00  0.00    +0.084 A 
ATOM      4  C   UNL     1       2.466  -4.136  -0.045  0.00  0.00    +0.045 A 
ATOM      5  C   UNL     1       1.247  -4.802  -0.036  0.00  0.00    +0.061 A 
ATOM      6  C   UNL     1       0.076  -4.069  -0.021  0.00  0.00    +0.133 A 
ATOM      7  N   UNL     1       0.102  -2.750  -0.014  0.00  0.00    -0.236 NA
ATOM      8 CL   UNL     1       1.195  -6.537  -0.046  0.00  0.00    -0.082 Cl
ATOM      9 CL   UNL     1       3.956  -1.868  -0.059  0.00  0.00    -0.080 Cl
ATOM     10  H   UNL     1       2.058  -0.192  -0.019  0.00  0.00    +0.176 HD
ENDROOT
BRANCH   1  12
ATOM     11  C   UNL     1      -0.015   1.294   0.009  0.00  0.00    +0.138 C 
ATOM     12  N   UNL     1       0.002  -0.004   0.002  0.00  0.00    -0.189 NA
BRANCH  11  18
ATOM     13  C   UNL     1      -2.505   1.302   0.015  0.00  0.00    +0.010 A 
ATOM     14  C   UNL     1      -3.704   1.981   0.030  0.00  0.00    +0.016 A 
ATOM     15  C   UNL     1      -3.720   3.366   0.038  0.00  0.00    +0.018 A 
ATOM     16  C   UNL     1      -2.532   4.078   0.036  0.00  0.00    +0.016 A 
ATOM     17  C   UNL     1      -1.325   3.411   0.027  0.00  0.00    +0.010 A 
ATOM     18  C   UNL     1      -1.302   2.014   0.019  0.00  0.00    -0.005 A 
ATOM     19 BR   UNL     1      -5.370   4.289   0.052  0.00  0.00    -0.050 Br
ENDBRANCH  11  18
ENDBRANCH   1  12
TORSDOF 2
