REMARK  Name = ZINC40497743
REMARK  4 active torsions:
REMARK  status: ('A' for Active; 'I' for Inactive)
REMARK    1  A    between atoms: N_9  and  C_10
REMARK    2  A    between atoms: C_10  and  C_11
REMARK    3  A    between atoms: C_11  and  C_12
REMARK    4  A    between atoms: C_12  and  N_13
REMARK                            x       y       z     vdW  Elec       q    Type
REMARK                         _______ _______ _______ _____ _____    ______ ____
ROOT
ATOM      1  C   UNL     1       0.289   5.703   0.029  0.00  0.00    +0.038 C 
ENDROOT
BRANCH   1   2
ATOM      2  C   UNL     1      -0.022   4.205   0.024  0.00  0.00    +0.104 C 
BRANCH   2  11
ATOM      3  C   UNL     1      -0.017   1.379   0.010  0.00  0.00    +0.083 A 
ATOM      4  C   UNL     1       1.201   2.061   0.002  0.00  0.00    +0.125 A 
ATOM      5  N   UNL     1       2.332   1.362  -0.013  0.00  0.00    -0.200 NA
ATOM      6  C   UNL     1       2.308   0.038  -0.020  0.00  0.00    +0.216 A 
ATOM      7  N   UNL     1       1.168  -0.636  -0.013  0.00  0.00    -0.203 NA
ATOM      8  C   UNL     1       0.002  -0.004   0.002  0.00  0.00    +0.136 A 
ATOM      9 CL   UNL     1      -1.484  -0.902   0.012  0.00  0.00    -0.062 Cl
ATOM     10  N   UNL     1       3.504  -0.658  -0.035  0.00  0.00    -0.327 N 
ATOM     11  N   UNL     1       1.231   3.446   0.008  0.00  0.00    -0.329 N 
ATOM     12  H   UNL     1       4.345  -0.177  -0.041  0.00  0.00    +0.145 HD
ATOM     13  H   UNL     1       3.500  -1.629  -0.041  0.00  0.00    +0.145 HD
ATOM     14  H   UNL     1       2.081   3.913   0.003  0.00  0.00    +0.147 HD
ENDBRANCH   2  11
ENDBRANCH   1   2
BRANCH   1  15
ATOM     15  C   UNL     1      -1.019   6.496   0.045  0.00  0.00    +0.119 C 
BRANCH  15  16
ATOM     16  N   UNL     1      -0.721   7.931   0.049  0.00  0.00    -0.224 N 
ATOM     17  C   UNL     1      -0.550   8.667   1.168  0.00  0.00    +0.246 C 
ATOM     18  O   UNL     1      -0.612   8.285   2.317  0.00  0.00    -0.273 OA
ATOM     19  C   UNL     1      -0.266  10.066   0.684  0.00  0.00    +0.113 C 
ATOM     20  C   UNL     1       1.109  10.548   1.166  0.00  0.00    +0.035 C 
ATOM     21  C   UNL     1       0.906  12.063   1.424  0.00  0.00    +0.003 C 
ATOM     22  C   UNL     1      -0.529  12.125   2.006  0.00  0.00    +0.003 C 
ATOM     23  C   UNL     1      -1.309  11.057   1.206  0.00  0.00    +0.035 C 
ATOM     24  N   UNL     1      -0.309   9.965  -0.776  0.00  0.00    -0.285 N 
ATOM     25  C   UNL     1      -0.577   8.673  -1.056  0.00  0.00    +0.309 C 
ATOM     26  O   UNL     1      -0.680   8.233  -2.184  0.00  0.00    -0.252 OA
ATOM     27  H   UNL     1      -0.170  10.682  -1.414  0.00  0.00    +0.151 HD
ENDBRANCH  15  16
ENDBRANCH   1  15
TORSDOF 4
