REMARK  Name = ZINC00994458
REMARK  5 active torsions:
REMARK  status: ('A' for Active; 'I' for Inactive)
REMARK    1  A    between atoms: C_1  and  C_2
REMARK    2  A    between atoms: C_5  and  C_7
REMARK    3  A    between atoms: C_12  and  C_16
REMARK    4  A    between atoms: C_12  and  C_17
REMARK    5  A    between atoms: C_26  and  C_28
REMARK                            x       y       z     vdW  Elec       q    Type
REMARK                         _______ _______ _______ _____ _____    ______ ____
ROOT
ATOM      1  C   UNL     1       3.197   3.716  -1.319  0.00  0.00    +0.182 C 
ATOM      2  C   UNL     1       3.741   2.327  -1.547  0.00  0.00    +0.040 C 
ATOM      3  C   UNL     1       3.356   1.212  -0.904  0.00  0.00    +0.017 C 
ATOM      4  C   UNL     1       3.975  -0.131  -1.250  0.00  0.00    +0.058 C 
ATOM      5  C   UNL     1       5.428   0.059  -1.680  0.00  0.00    -0.023 C 
ATOM      6  C   UNL     1       5.435   0.982  -2.905  0.00  0.00    +0.086 C 
ATOM      7  C   UNL     1       4.748   2.264  -2.540  0.00  0.00    +0.163 C 
ATOM      8  O   UNL     1       5.066   3.284  -3.119  0.00  0.00    -0.292 OA
ATOM      9  C   UNL     1       6.226   0.701  -0.543  0.00  0.00    +0.011 C 
ATOM     10  C   UNL     1       6.043  -1.293  -2.046  0.00  0.00    +0.011 C 
ATOM     11  N   UNL     1       2.413   1.170   0.070  0.00  0.00    -0.316 N 
ATOM     12  C   UNL     1       1.173   1.791   0.001  0.00  0.00    +0.053 A 
ATOM     13  C   UNL     1      -0.013   1.076   0.008  0.00  0.00    +0.025 A 
ATOM     14  C   UNL     1      -1.217   1.758   0.017  0.00  0.00    +0.002 A 
ATOM     15  C   UNL     1      -1.236   3.141   0.031  0.00  0.00    +0.002 A 
ATOM     16  C   UNL     1      -0.052   3.858   0.007  0.00  0.00    +0.025 A 
ATOM     17  C   UNL     1       1.154   3.177  -0.025  0.00  0.00    +0.058 A 
ATOM     18  N   UNL     1       2.372   3.852  -0.137  0.00  0.00    -0.255 N 
ATOM     19  C   UNL     1       2.787   4.642   0.873  0.00  0.00    +0.218 C 
ATOM     20  O   UNL     1       3.842   5.233   0.787  0.00  0.00    -0.276 OA
ATOM     21  C   UNL     1       1.938   4.792   2.110  0.00  0.00    +0.110 C 
ATOM     22  H   UNL     1       2.620   0.669   0.875  0.00  0.00    +0.152 HD
ENDROOT
BRANCH   1  27
ATOM     23  C   UNL     1      -0.699   4.206  -4.486  0.00  0.00    +0.086 C 
ATOM     24  C   UNL     1       0.684   4.325  -3.897  0.00  0.00    +0.102 A 
ATOM     25  C   UNL     1       1.726   4.964  -4.459  0.00  0.00    +0.045 A 
ATOM     26  C   UNL     1       2.816   4.831  -3.569  0.00  0.00    +0.047 A 
ATOM     27  C   UNL     1       2.378   4.112  -2.520  0.00  0.00    +0.131 A 
ATOM     28  O   UNL     1       1.085   3.811  -2.723  0.00  0.00    -0.463 OA
ENDBRANCH   1  27
TORSDOF 1
