REMARK  Name = ZINC51332522
REMARK  5 active torsions:
REMARK  status: ('A' for Active; 'I' for Inactive)
REMARK    1  A    between atoms: C_1  and  C_2
REMARK    2  A    between atoms: C_6  and  S_8
REMARK    3  A    between atoms: S_8  and  C_9
REMARK    4  A    between atoms: C_9  and  C_10
REMARK    5  A    between atoms: C_19  and  N_20
REMARK                            x       y       z     vdW  Elec       q    Type
REMARK                         _______ _______ _______ _____ _____    ______ ____
ROOT
ATOM      1  C   UNL     1       0.095  -5.472   3.441  0.00  0.00    +0.003 A 
ATOM      2  C   UNL     1       1.282  -5.839   4.000  0.00  0.00    +0.017 A 
ATOM      3  C   UNL     1       1.255  -6.641   5.159  0.00  0.00    +0.001 A 
ATOM      4  C   UNL     1       2.441  -7.055   5.786  0.00  0.00    +0.010 A 
ATOM      5  C   UNL     1       2.376  -7.829   6.905  0.00  0.00    +0.001 A 
ATOM      6  C   UNL     1       1.148  -8.216   7.436  0.00  0.00    +0.002 A 
ATOM      7  C   UNL     1      -0.021  -7.833   6.853  0.00  0.00    +0.028 A 
ATOM      8  C   UNL     1       0.005  -7.033   5.697  0.00  0.00    +0.073 A 
ATOM      9  N   UNL     1      -1.129  -6.642   5.105  0.00  0.00    -0.232 NA
ATOM     10  C   UNL     1      -1.110  -5.888   4.024  0.00  0.00    +0.121 A 
ENDROOT
BRANCH  10  11
ATOM     11  N   UNL     1      -2.311  -5.502   3.448  0.00  0.00    -0.343 N 
ATOM     12  H   UNL     1      -2.310  -4.950   2.650  0.00  0.00    +0.144 HD
ATOM     13  H   UNL     1      -3.151  -5.784   3.842  0.00  0.00    +0.144 HD
ENDBRANCH  10  11
BRANCH   1  14
ATOM     14  C   UNL     1       0.077  -4.615   2.202  0.00  0.00    +0.116 C 
BRANCH  14  15
ATOM     15  S   UNL     1       0.055  -2.865   2.677  0.00  0.00    -0.081 S 
BRANCH  15  21
ATOM     16  C   UNL     1      -0.018   1.503   0.010  0.00  0.00    +0.066 C 
ATOM     17  C   UNL     1       0.002  -0.004   0.002  0.00  0.00    +0.043 A 
ATOM     18  C   UNL     1       0.006  -0.699  -1.198  0.00  0.00    +0.043 A 
ATOM     19  C   UNL     1       0.025  -2.084  -1.161  0.00  0.00    +0.115 A 
ATOM     20  N   UNL     1       0.040  -2.699   0.010  0.00  0.00    -0.230 NA
ATOM     21  C   UNL     1       0.035  -2.005   1.139  0.00  0.00    +0.189 A 
ATOM     22  N   UNL     1       0.022  -0.679   1.139  0.00  0.00    -0.227 NA
ENDBRANCH  15  21
ENDBRANCH  14  15
ENDBRANCH   1  14
TORSDOF 4
