REMARK  Name = ZINC12410971
REMARK  6 active torsions:
REMARK  status: ('A' for Active; 'I' for Inactive)
REMARK    1  A    between atoms: C_1  and  C_2
REMARK    2  A    between atoms: C_2  and  C_3
REMARK    3  A    between atoms: C_3  and  C_4
REMARK    4  A    between atoms: C_4  and  C_5
REMARK    5  A    between atoms: C_11  and  N_22
REMARK    6  A    between atoms: C_12  and  C_20
REMARK                            x       y       z     vdW  Elec       q    Type
REMARK                         _______ _______ _______ _____ _____    ______ ____
ROOT
ATOM      1  C   UNL     1       2.385   2.309   3.960  0.00  0.00    +0.198 A 
ATOM      2  N   UNL     1       1.938   1.996   2.774  0.00  0.00    -0.215 NA
ATOM      3  C   UNL     1       2.359   0.765   2.471  0.00  0.00    +0.112 A 
ATOM      4  C   UNL     1       3.099   0.315   3.519  0.00  0.00    +0.216 A 
ATOM      5  O   UNL     1       3.106   1.280   4.443  0.00  0.00    -0.426 OA
ATOM      6  N   UNL     1       3.696  -0.945   3.519  0.00  0.00    -0.272 N 
ATOM      7  C   UNL     1       3.750  -1.628   2.324  0.00  0.00    +0.102 C 
ATOM      8  C   UNL     1       3.038  -1.245   1.235  0.00  0.00    +0.075 C 
ATOM      9  C   UNL     1       2.117  -0.055   1.233  0.00  0.00    +0.044 C 
ATOM     10  C   UNL     1       0.662  -0.529   1.206  0.00  0.00    -0.060 C 
ATOM     11  C   UNL     1      -0.018   1.465   0.010  0.00  0.00    -0.078 C 
ATOM     12  C   UNL     1       1.419   1.993  -0.001  0.00  0.00    -0.014 C 
ATOM     13  C   UNL     1       2.385   0.801  -0.010  0.00  0.00    +0.001 C 
ATOM     14  C   UNL     1       2.102  -0.046  -1.258  0.00  0.00    -0.014 C 
ATOM     15  C   UNL     1       0.645  -0.517  -1.215  0.00  0.00    -0.078 C 
ATOM     16  H   UNL     1       4.061  -1.327   4.333  0.00  0.00    +0.156 HD
ATOM     17  N   UNL     1      -0.025  -0.014   0.002  0.00  0.00    +0.381 N 
ATOM     18  H   UNL     1      -0.998  -0.343   0.007  0.00  0.00    -0.082 HD
ENDROOT
BRANCH   7  19
ATOM     19  N   UNL     1       4.556  -2.737   2.231  0.00  0.00    -0.346 N 
ATOM     20  H   UNL     1       4.608  -3.231   1.398  0.00  0.00    +0.144 HD
ATOM     21  H   UNL     1       5.074  -3.026   2.999  0.00  0.00    +0.144 HD
ENDBRANCH   7  19
BRANCH   8  22
ATOM     22  C   UNL     1       3.168  -2.009   0.031  0.00  0.00    +0.099 C 
ATOM     23  N   UNL     1       3.271  -2.615  -0.924  0.00  0.00    -0.191 NA
ENDBRANCH   8  22
BRANCH   1  24
ATOM     24  C   UNL     1       2.134   3.613   4.673  0.00  0.00    +0.096 C 
BRANCH  24  25
ATOM     25  C   UNL     1       0.859   3.499   5.510  0.00  0.00    +0.009 C 
BRANCH  25  27
ATOM     26  C   UNL     1      -0.672   4.710   7.071  0.00  0.00    +0.004 C 
ATOM     27  C   UNL     1       0.604   4.823   6.234  0.00  0.00    -0.003 C 
ENDBRANCH  25  27
ENDBRANCH  24  25
ENDBRANCH   1  24
TORSDOF 5
