REMARK  Name = ZINC67642991
REMARK  4 active torsions:
REMARK  status: ('A' for Active; 'I' for Inactive)
REMARK    1  A    between atoms: C_8  and  N_10
REMARK    2  A    between atoms: C_17  and  C_19
REMARK    3  A    between atoms: C_20  and  O_26
REMARK    4  A    between atoms: C_24  and  O_25
REMARK                            x       y       z     vdW  Elec       q    Type
REMARK                         _______ _______ _______ _____ _____    ______ ____
ROOT
ATOM      1  N   UNL     1       3.632  -3.409   0.207  0.00  0.00    +0.383 N 
ATOM      2  C   UNL     1       5.046  -3.399  -0.163  0.00  0.00    -0.077 C 
ATOM      3  C   UNL     1       5.863  -3.977   0.971  0.00  0.00    +0.000 C 
ATOM      4  C   UNL     1       6.073  -5.484   0.735  0.00  0.00    +0.106 C 
ATOM      5  N   UNL     1       4.848  -6.114   0.201  0.00  0.00    -0.299 N 
ATOM      6  C   UNL     1       3.528  -5.785   0.698  0.00  0.00    +0.089 C 
ATOM      7  C   UNL     1       2.943  -4.602  -0.107  0.00  0.00    -0.059 C 
ATOM      8  C   UNL     1       4.963  -7.026  -0.785  0.00  0.00    +0.254 C 
ATOM      9  O   UNL     1       3.969  -7.558  -1.240  0.00  0.00    -0.270 OA
ATOM     10  H   UNL     1       3.565  -3.256   1.202  0.00  0.00    -0.081 HD
ENDROOT
BRANCH   1  18
ATOM     11  C   UNL     1      -0.017   1.377   0.010  0.00  0.00    +0.000 A 
ATOM     12  C   UNL     1       1.172   2.083   0.002  0.00  0.00    +0.000 A 
ATOM     13  C   UNL     1       2.376   1.406  -0.013  0.00  0.00    +0.004 A 
ATOM     14  C   UNL     1       2.396   0.021  -0.021  0.00  0.00    -0.046 A 
ATOM     15  C   UNL     1       1.208  -0.685  -0.013  0.00  0.00    -0.046 A 
ATOM     16  C   UNL     1       0.002  -0.004   0.002  0.00  0.00    +0.004 A 
ATOM     17  C   UNL     1       1.496  -2.171  -0.024  0.00  0.00    +0.020 C 
ATOM     18  C   UNL     1       2.966  -2.294  -0.479  0.00  0.00    -0.060 C 
ATOM     19  C   UNL     1       3.564  -0.942  -0.037  0.00  0.00    +0.020 C 
ENDBRANCH   1  18
BRANCH   8  20
ATOM     20  C   UNL     1       6.293  -7.379  -1.310  0.00  0.00    +0.119 A 
ATOM     21  C   UNL     1       7.020  -8.433  -0.739  0.00  0.00    +0.133 A 
ATOM     22  C   UNL     1       8.270  -8.757  -1.241  0.00  0.00    +0.046 A 
ATOM     23  C   UNL     1       8.801  -8.045  -2.301  0.00  0.00    +0.007 A 
ATOM     24  C   UNL     1       8.092  -7.004  -2.871  0.00  0.00    +0.046 A 
ATOM     25  C   UNL     1       6.838  -6.667  -2.388  0.00  0.00    +0.133 A 
BRANCH  25  26
ATOM     26  O   UNL     1       6.142  -5.649  -2.953  0.00  0.00    -0.506 OA
ATOM     27  H   UNL     1       6.314  -4.785  -2.553  0.00  0.00    +0.292 HD
ENDBRANCH  25  26
BRANCH  21  28
ATOM     28  O   UNL     1       6.503  -9.133   0.302  0.00  0.00    -0.506 OA
ATOM     29  H   UNL     1       5.978  -9.901   0.037  0.00  0.00    +0.292 HD
ENDBRANCH  21  28
ENDBRANCH   8  20
TORSDOF 4
