REMARK  Name = ZINC39652739
REMARK  10 active torsions:
REMARK  status: ('A' for Active; 'I' for Inactive)
REMARK    1  A    between atoms: C_1  and  C_2
REMARK    2  A    between atoms: C_2  and  O_3
REMARK    3  A    between atoms: O_3  and  C_4
REMARK    4  A    between atoms: C_9  and  C_10
REMARK    5  A    between atoms: C_10  and  C_11
REMARK    6  A    between atoms: C_11  and  N_12
REMARK    7  A    between atoms: C_13  and  C_15
REMARK    8  A    between atoms: C_26  and  C_28
REMARK    9  A    between atoms: C_31  and  C_35
REMARK   10  A    between atoms: C_32  and  C_34
REMARK                            x       y       z     vdW  Elec       q    Type
REMARK                         _______ _______ _______ _____ _____    ______ ____
ROOT
ATOM      1  C   UNL     1      -7.740   1.531  -2.259  0.00  0.00    +0.100 C 
ATOM      2  C   UNL     1      -7.125   2.685  -1.436  0.00  0.00    +0.121 C 
ATOM      3  N   UNL     1      -6.647   3.654  -2.449  0.00  0.00    -0.296 N 
ATOM      4  C   UNL     1      -7.698   3.644  -3.494  0.00  0.00    +0.115 C 
ATOM      5  C   UNL     1      -8.118   2.165  -3.608  0.00  0.00    -0.004 C 
ATOM      6  C   UNL     1      -9.622   2.059  -3.839  0.00  0.00    -0.010 C 
ATOM      7  C   UNL     1      -9.966   2.644  -5.212  0.00  0.00    -0.082 C 
ATOM      8  N   UNL     1      -9.238   1.911  -6.254  0.00  0.00    +0.379 N 
ATOM      9  C   UNL     1      -7.792   2.095  -6.079  0.00  0.00    -0.082 C 
ATOM     10  C   UNL     1      -7.356   1.487  -4.743  0.00  0.00    -0.010 C 
ATOM     11  C   UNL     1      -5.512   4.381  -2.426  0.00  0.00    +0.247 C 
ATOM     12  O   UNL     1      -4.683   4.186  -1.558  0.00  0.00    -0.270 OA
ATOM     13  H   UNL     1      -9.460   0.929  -6.191  0.00  0.00    -0.086 HD
ATOM     14  H   UNL     1      -9.512   2.258  -7.161  0.00  0.00    -0.086 HD
ENDROOT
BRANCH  11  15
ATOM     15  C   UNL     1      -5.275   5.415  -3.456  0.00  0.00    +0.037 A 
ATOM     16  C   UNL     1      -6.347   5.950  -4.172  0.00  0.00    +0.013 A 
ATOM     17  C   UNL     1      -6.119   6.915  -5.131  0.00  0.00    +0.004 A 
ATOM     18  C   UNL     1      -4.831   7.351  -5.385  0.00  0.00    -0.047 A 
ATOM     19  C   UNL     1      -3.764   6.825  -4.679  0.00  0.00    -0.047 A 
ATOM     20  C   UNL     1      -3.978   5.864  -3.713  0.00  0.00    +0.016 A 
ATOM     21  C   UNL     1      -2.364   7.306  -4.963  0.00  0.00    +0.044 C 
ATOM     22  C   UNL     1      -4.589   8.405  -6.435  0.00  0.00    +0.044 C 
ENDBRANCH  11  15
BRANCH   1  24
ATOM     23  N   UNL     1      -7.138  -0.826  -2.711  0.00  0.00    -0.315 N 
ATOM     24  C   UNL     1      -6.727   0.433  -2.461  0.00  0.00    +0.218 C 
ATOM     25  O   UNL     1      -5.542   0.683  -2.399  0.00  0.00    -0.275 OA
ATOM     26  H   UNL     1      -8.086  -1.025  -2.761  0.00  0.00    +0.149 HD
BRANCH  23  27
ATOM     27  C   UNL     1      -6.154  -1.893  -2.907  0.00  0.00    +0.109 C 
BRANCH  27  28
ATOM     28  C   UNL     1      -6.879  -3.213  -3.173  0.00  0.00    +0.057 C 
BRANCH  28  34
ATOM     29  C   UNL     1      -5.336  -4.976  -2.279  0.00  0.00    +0.124 A 
ATOM     30  C   UNL     1      -4.407  -5.990  -2.469  0.00  0.00    +0.046 A 
ATOM     31  C   UNL     1      -4.010  -6.330  -3.747  0.00  0.00    +0.004 A 
ATOM     32  C   UNL     1      -4.536  -5.662  -4.837  0.00  0.00    +0.000 A 
ATOM     33  C   UNL     1      -5.461  -4.652  -4.651  0.00  0.00    +0.007 A 
ATOM     34  C   UNL     1      -5.866  -4.311  -3.375  0.00  0.00    -0.004 A 
BRANCH  29  35
ATOM     35  O   UNL     1      -5.729  -4.640  -1.023  0.00  0.00    -0.492 OA
BRANCH  35  37
ATOM     36  C   UNL     1      -5.702  -4.851   1.385  0.00  0.00    +0.048 C 
ATOM     37  C   UNL     1      -5.141  -5.367   0.058  0.00  0.00    +0.225 C 
ENDBRANCH  35  37
ENDBRANCH  29  35
ENDBRANCH  28  34
ENDBRANCH  27  28
ENDBRANCH  23  27
ENDBRANCH   1  24
TORSDOF 7
