REMARK  Name = ZINC61526988
REMARK  8 active torsions:
REMARK  status: ('A' for Active; 'I' for Inactive)
REMARK    1  A    between atoms: C_1  and  C_2
REMARK    2  A    between atoms: C_2  and  C_3
REMARK    3  A    between atoms: C_2  and  C_4
REMARK    4  A    between atoms: C_2  and  C_5
REMARK    5  A    between atoms: C_5  and  C_6
REMARK    6  A    between atoms: C_11  and  C_13
REMARK    7  A    between atoms: C_13  and  S_14
REMARK    8  A    between atoms: S_14  and  C_15
REMARK                            x       y       z     vdW  Elec       q    Type
REMARK                         _______ _______ _______ _____ _____    ______ ____
ROOT
ATOM      1  C   UNL     1       2.049  -0.142  -1.137  0.00  0.00    +0.077 C 
ATOM      2  C   UNL     1       2.853  -0.616  -2.366  0.00  0.00    +0.024 C 
ATOM      3  C   UNL     1       4.222  -1.012  -1.753  0.00  0.00    +0.021 C 
ATOM      4  C   UNL     1       3.793  -1.596  -0.385  0.00  0.00    +0.108 C 
ATOM      5  N   UNL     1       2.666  -0.751   0.050  0.00  0.00    -0.298 N 
ATOM      6  C   UNL     1       2.268  -0.567   1.324  0.00  0.00    +0.226 C 
ATOM      7  O   UNL     1       1.271   0.082   1.560  0.00  0.00    -0.275 OA
ENDROOT
BRANCH   1   8
ATOM      8  C   UNL     1       0.594  -0.599  -1.260  0.00  0.00    +0.028 C 
BRANCH   8  10
ATOM      9  C   UNL     1       0.528  -0.175  -3.721  0.00  0.00    +0.010 C 
ATOM     10  C   UNL     1      -0.097   0.191  -2.373  0.00  0.00    -0.036 C 
ATOM     11  C   UNL     1       0.078   1.689  -2.120  0.00  0.00    +0.010 C 
ATOM     12  C   UNL     1      -1.588  -0.153  -2.393  0.00  0.00    +0.010 C 
ENDBRANCH   8  10
ENDBRANCH   1   8
BRANCH   6  13
ATOM     13  C   UNL     1       3.061  -1.169   2.456  0.00  0.00    +0.173 C 
BRANCH  13  14
ATOM     14  S   UNL     1       2.276  -0.746   4.036  0.00  0.00    -0.077 S 
BRANCH  14  15
ATOM     15  C   UNL     1       3.307  -1.511   5.242  0.00  0.00    +0.184 A 
ATOM     16  N   UNL     1       4.391  -2.218   5.000  0.00  0.00    -0.209 NA
ATOM     17  H   UNL     1       2.416  -1.022   7.060  0.00  0.00    +0.191 HD
ATOM     18  C   UNL     1       4.917  -2.642   6.149  0.00  0.00    +0.245 A 
ATOM     19  N   UNL     1       4.181  -2.216   7.140  0.00  0.00    -0.160 NA
ATOM     20  N   UNL     1       3.130  -1.472   6.581  0.00  0.00    -0.254 N 
ENDBRANCH  14  15
ENDBRANCH  13  14
ENDBRANCH   6  13
TORSDOF 5
