REMARK  Name = ZINC21046859
REMARK  4 active torsions:
REMARK  status: ('A' for Active; 'I' for Inactive)
REMARK    1  A    between atoms: C_3  and  C_18
REMARK    2  A    between atoms: C_6  and  C_7
REMARK    3  A    between atoms: C_7  and  O_8
REMARK    4  A    between atoms: O_8  and  C_9
REMARK                            x       y       z     vdW  Elec       q    Type
REMARK                         _______ _______ _______ _____ _____    ______ ____
ROOT
ATOM      1  C   UNL     1       0.002  -0.004   0.002  0.00  0.00    +0.007 A 
ATOM      2  C   UNL     1      -0.017   1.376   0.010  0.00  0.00    +0.011 A 
ATOM      3  C   UNL     1       1.183   2.087   0.002  0.00  0.00    +0.012 A 
ATOM      4  C   UNL     1       2.395   1.397  -0.012  0.00  0.00    +0.011 A 
ATOM      5  C   UNL     1       2.401   0.017  -0.020  0.00  0.00    +0.007 A 
ATOM      6  C   UNL     1       1.208  -0.682  -0.013  0.00  0.00    -0.010 A 
ENDROOT
BRANCH   3   7
ATOM      7  C   UNL     1       1.170   3.567   0.010  0.00  0.00    +0.094 C 
ATOM      8  N   UNL     1       0.036   4.208   0.023  0.00  0.00    -0.387 N 
ATOM      9  N   UNL     1       2.357   4.267   0.002  0.00  0.00    -0.345 N 
ATOM     10  H   UNL     1       0.027   5.308   0.029  0.00  0.00    +0.157 HD
ATOM     11  H   UNL     1       2.347   5.367   0.008  0.00  0.00    +0.144 HD
ATOM     12  H   UNL     1       3.314   3.725  -0.010  0.00  0.00    +0.144 HD
ATOM     13  H   UNL     1      -0.911   3.650   0.029  0.00  0.00    +0.157 HD
ENDBRANCH   3   7
BRANCH   6  14
ATOM     14  C   UNL     1       1.221  -2.189  -0.021  0.00  0.00    +0.264 C 
BRANCH  14  15
ATOM     15  O   UNL     1       1.212  -2.658  -1.371  0.00  0.00    -0.486 OA
BRANCH  15  16
ATOM     16  C   UNL     1       1.223  -4.005  -1.557  0.00  0.00    +0.141 A 
ATOM     17  C   UNL     1       1.247  -4.856  -0.462  0.00  0.00    +0.068 A 
ATOM     18  C   UNL     1       1.253  -6.226  -0.653  0.00  0.00    +0.063 A 
ATOM     19  C   UNL     1       1.245  -6.747  -1.936  0.00  0.00    +0.061 A 
ATOM     20  C   UNL     1       1.226  -5.899  -3.029  0.00  0.00    +0.045 A 
ATOM     21  C   UNL     1       1.215  -4.529  -2.842  0.00  0.00    +0.084 A 
ATOM     22 CL   UNL     1       1.192  -3.466  -4.214  0.00  0.00    -0.080 Cl
ATOM     23 CL   UNL     1       1.259  -8.467  -2.173  0.00  0.00    -0.082 Cl
ATOM     24 CL   UNL     1       1.277  -7.292   0.717  0.00  0.00    -0.082 Cl
ENDBRANCH  15  16
ENDBRANCH  14  15
ENDBRANCH   6  14
TORSDOF 4
