REMARK  Name = ZINC05700449
REMARK  8 active torsions:
REMARK  status: ('A' for Active; 'I' for Inactive)
REMARK    1  A    between atoms: C_1  and  C_2
REMARK    2  A    between atoms: C_3  and  N_11
REMARK    3  A    between atoms: C_7  and  N_8
REMARK    4  A    between atoms: N_11  and  C_12
REMARK    5  A    between atoms: C_12  and  C_13
REMARK    6  A    between atoms: N_15  and  C_16
REMARK    7  A    between atoms: C_19  and  C_22
REMARK    8  A    between atoms: C_22  and  C_24
REMARK                            x       y       z     vdW  Elec       q    Type
REMARK                         _______ _______ _______ _____ _____    ______ ____
ROOT
ATOM      1  C   UNL     1       0.491   2.884   0.278  0.00  0.00    +0.198 C 
ENDROOT
BRANCH   1   2
ATOM      2  C   UNL     1      -0.961   2.490   0.362  0.00  0.00    +0.234 C 
ATOM      3  O   UNL     1      -1.275   1.319   0.318  0.00  0.00    -0.274 OA
ATOM      4  N   UNL     1      -1.911   3.438   0.481  0.00  0.00    -0.284 N 
ATOM      5  H   UNL     1      -1.657   4.368   0.593  0.00  0.00    +0.155 HD
BRANCH   4   6
ATOM      6  C   UNL     1      -3.258   3.084   0.442  0.00  0.00    +0.033 A 
ATOM      7  C   UNL     1      -4.180   3.775   1.223  0.00  0.00    +0.024 A 
ATOM      8  C   UNL     1      -5.507   3.433   1.184  0.00  0.00    +0.013 A 
ATOM      9  C   UNL     1      -5.933   2.380   0.365  0.00  0.00    +0.017 A 
ATOM     10  C   UNL     1      -5.000   1.684  -0.415  0.00  0.00    +0.013 A 
ATOM     11  C   UNL     1      -3.676   2.037  -0.374  0.00  0.00    +0.024 A 
BRANCH   9  12
ATOM     12  C   UNL     1      -7.352   2.006   0.324  0.00  0.00    +0.160 C 
ATOM     13  O   UNL     1      -7.719   1.094  -0.386  0.00  0.00    -0.292 OA
ATOM     14  C   UNL     1      -8.353   2.756   1.165  0.00  0.00    +0.091 C 
ENDBRANCH   9  12
ENDBRANCH   4   6
ENDBRANCH   1   2
BRANCH   1  15
ATOM     15  N   UNL     1       1.317   1.681   0.149  0.00  0.00    -0.335 N 
ATOM     16  H   UNL     1       0.899   0.805   0.129  0.00  0.00    +0.147 HD
BRANCH  15  19
ATOM     17  C   UNL     1       2.845  -0.708  -0.088  0.00  0.00    +0.048 C 
ATOM     18  C   UNL     1       3.491   0.654  -0.064  0.00  0.00    +0.001 A 
ATOM     19  C   UNL     1       2.706   1.794   0.054  0.00  0.00    +0.033 A 
ATOM     20  C   UNL     1       3.306   3.046   0.081  0.00  0.00    +0.023 A 
ATOM     21  C   UNL     1       4.679   3.155  -0.013  0.00  0.00    +0.004 A 
ATOM     22  C   UNL     1       5.457   2.018  -0.136  0.00  0.00    +0.033 A 
ATOM     23  C   UNL     1       4.864   0.770  -0.163  0.00  0.00    +0.131 A 
BRANCH  23  24
ATOM     24  N   UNL     1       5.700  -0.444  -0.295  0.00  0.00    +0.057 N 
ATOM     25  O   UNL     1       6.914  -0.353  -0.261  0.00  0.00    -0.126 OA
ATOM     26  O   UNL     1       5.175  -1.534  -0.437  0.00  0.00    -0.126 OA
ENDBRANCH  23  24
ENDBRANCH  15  19
ENDBRANCH   1  15
TORSDOF 6
