REMARK  Name = ZINC64155587
REMARK  9 active torsions:
REMARK  status: ('A' for Active; 'I' for Inactive)
REMARK    1  A    between atoms: C_1  and  O_2
REMARK    2  A    between atoms: O_2  and  C_3
REMARK    3  A    between atoms: C_3  and  C_5
REMARK    4  A    between atoms: C_7  and  S_11
REMARK    5  A    between atoms: S_11  and  N_14
REMARK    6  A    between atoms: N_17  and  C_20
REMARK    7  A    between atoms: C_20  and  C_21
REMARK    8  A    between atoms: C_21  and  C_22
REMARK    9  A    between atoms: C_22  and  N_23
REMARK                            x       y       z     vdW  Elec       q    Type
REMARK                         _______ _______ _______ _____ _____    ______ ____
ROOT
ATOM      1  N   UNL     1       0.897  -6.512   3.542  0.00  0.00    -0.177 NA
ATOM      2  C   UNL     1      -0.269  -7.284   3.088  0.00  0.00    +0.124 C 
ATOM      3  C   UNL     1      -0.504  -8.435   4.072  0.00  0.00    +0.101 C 
ATOM      4  N   UNL     1       0.735  -9.210   4.220  0.00  0.00    -0.300 NA
ATOM      5  C   UNL     1       1.810  -8.392   4.798  0.00  0.00    +0.101 C 
ATOM      6  C   UNL     1       2.141  -7.239   3.837  0.00  0.00    +0.124 C 
ENDROOT
BRANCH   1   7
ATOM      7  S   UNL     1       0.814  -4.867   3.710  0.00  0.00    +0.048 S 
ATOM      8  O   UNL     1       1.800  -4.551   4.683  0.00  0.00    -0.157 OA
ATOM      9  O   UNL     1      -0.559  -4.596   3.956  0.00  0.00    -0.157 OA
BRANCH   7  12
ATOM     10  C   UNL     1       0.680  -2.081   1.091  0.00  0.00    +0.045 C 
ATOM     11  C   UNL     1       1.272  -2.689   2.088  0.00  0.00    +0.022 C 
ATOM     12  C   UNL     1       1.300  -4.208   2.091  0.00  0.00    +0.229 C 
ATOM     13  S   UNL     1       0.028  -4.585   0.809  0.00  0.00    -0.124 S 
ATOM     14  C   UNL     1       0.050  -2.929   0.000  0.00  0.00    +0.113 C 
BRANCH  10  15
ATOM     15  C   UNL     1       0.621  -0.613   1.033  0.00  0.00    +0.335 C 
ATOM     16  O   UNL     1       1.130   0.051   1.915  0.00  0.00    -0.245 OA
BRANCH  15  18
ATOM     17  C   UNL     1      -0.017   1.425   0.010  0.00  0.00    +0.280 C 
ATOM     18  O   UNL     1       0.002  -0.004   0.002  0.00  0.00    -0.465 OA
ENDBRANCH  15  18
ENDBRANCH  10  15
ENDBRANCH   7  12
ENDBRANCH   1   7
BRANCH   4  19
ATOM     19  C   UNL     1       0.507 -10.421   5.020  0.00  0.00    +0.086 C 
BRANCH  19  20
ATOM     20  C   UNL     1       1.741 -11.322   4.945  0.00  0.00    +0.037 C 
BRANCH  20  21
ATOM     21  C   UNL     1       1.503 -12.583   5.778  0.00  0.00    +0.128 C 
BRANCH  21  22
ATOM     22  N   UNL     1       2.685 -13.446   5.706  0.00  0.00    -0.292 N 
ATOM     23  C   UNL     1       2.912 -14.439   4.757  0.00  0.00    +0.070 A 
ATOM     24  C   UNL     1       2.182 -14.905   3.673  0.00  0.00    +0.028 A 
ATOM     25  C   UNL     1       2.684 -15.931   2.897  0.00  0.00    +0.002 A 
ATOM     26  C   UNL     1       3.911 -16.497   3.196  0.00  0.00    +0.002 A 
ATOM     27  C   UNL     1       4.645 -16.041   4.273  0.00  0.00    +0.028 A 
ATOM     28  C   UNL     1       4.150 -15.010   5.058  0.00  0.00    +0.067 A 
ATOM     29  N   UNL     1       4.637 -14.346   6.181  0.00  0.00    -0.306 N 
ATOM     30  H   UNL     1       5.481 -14.524   6.625  0.00  0.00    +0.170 HD
ATOM     31  C   UNL     1       3.739 -13.410   6.543  0.00  0.00    +0.328 A 
ATOM     32  O   UNL     1       3.860 -12.649   7.485  0.00  0.00    -0.247 OA
ENDBRANCH  21  22
ENDBRANCH  20  21
ENDBRANCH  19  20
ENDBRANCH   4  19
TORSDOF 8
