REMARK  Name = ZINC00745770
REMARK  11 active torsions:
REMARK  status: ('A' for Active; 'I' for Inactive)
REMARK    1  A    between atoms: C_1  and  C_2
REMARK    2  A    between atoms: C_5  and  N_8
REMARK    3  A    between atoms: C_12  and  C_22
REMARK    4  A    between atoms: C_16  and  C_18
REMARK    5  A    between atoms: C_18  and  C_19
REMARK    6  A    between atoms: C_19  and  C_20
REMARK    7  A    between atoms: C_19  and  C_21
REMARK    8  A    between atoms: C_22  and  O_24
REMARK    9  A    between atoms: O_24  and  C_25
REMARK   10  A    between atoms: C_25  and  C_26
REMARK   11  A    between atoms: C_25  and  C_27
REMARK                            x       y       z     vdW  Elec       q    Type
REMARK                         _______ _______ _______ _____ _____    ______ ____
ROOT
ATOM      1  N   UNL     1      -2.669   2.712  -2.992  0.00  0.00    -0.269 N 
ATOM      2  C   UNL     1      -3.076   2.499  -1.725  0.00  0.00    +0.308 C 
ATOM      3  O   UNL     1      -4.218   2.763  -1.401  0.00  0.00    -0.252 OA
ATOM      4  N   UNL     1      -2.218   1.994  -0.816  0.00  0.00    -0.259 N 
ATOM      5  C   UNL     1      -0.846   1.666  -1.161  0.00  0.00    +0.197 C 
ATOM      6  C   UNL     1      -0.002   1.119   0.017  0.00  0.00    +0.105 C 
ATOM      7  S   UNL     1      -0.987   1.762   1.442  0.00  0.00    -0.136 S 
ATOM      8  C   UNL     1      -2.625   1.746   0.584  0.00  0.00    +0.137 C 
ATOM      9  H   UNL     1      -1.741   2.562  -3.234  0.00  0.00    +0.156 HD
ENDROOT
BRANCH   1  14
ATOM     10  C   UNL     1      -6.374   4.481  -6.906  0.00  0.00    +0.044 C 
ATOM     11  C   UNL     1      -5.390   4.010  -5.866  0.00  0.00    -0.050 A 
ATOM     12  C   UNL     1      -5.506   4.448  -4.560  0.00  0.00    +0.005 A 
ATOM     13  C   UNL     1      -4.605   4.019  -3.604  0.00  0.00    +0.023 A 
ATOM     14  C   UNL     1      -3.583   3.147  -3.957  0.00  0.00    +0.035 A 
ATOM     15  C   UNL     1      -3.467   2.714  -5.271  0.00  0.00    +0.023 A 
ATOM     16  C   UNL     1      -4.373   3.143  -6.221  0.00  0.00    +0.005 A 
ENDBRANCH   1  14
BRANCH   5  17
ATOM     17  C   UNL     1      -0.176   2.907  -1.693  0.00  0.00    +0.329 C 
ATOM     18  O   UNL     1      -0.756   3.967  -1.661  0.00  0.00    -0.249 OA
BRANCH  17  19
ATOM     19  O   UNL     1       1.064   2.836  -2.201  0.00  0.00    -0.461 OA
BRANCH  19  20
ATOM     20  C   UNL     1       1.646   4.071  -2.695  0.00  0.00    +0.170 C 
ATOM     21  C   UNL     1       2.402   4.767  -1.562  0.00  0.00    +0.052 C 
ATOM     22  C   UNL     1       2.615   3.757  -3.837  0.00  0.00    +0.052 C 
ENDBRANCH  19  20
ENDBRANCH  17  19
ENDBRANCH   5  17
BRANCH   8  23
ATOM     23  C   UNL     1      -3.529   2.867   1.101  0.00  0.00    +0.036 C 
BRANCH  23  24
ATOM     24  C   UNL     1      -3.927   2.574   2.549  0.00  0.00    -0.015 C 
ATOM     25  C   UNL     1      -4.727   3.752   3.107  0.00  0.00    +0.007 C 
ATOM     26  C   UNL     1      -4.785   1.307   2.596  0.00  0.00    +0.007 C 
ENDBRANCH  23  24
ENDBRANCH   8  23
TORSDOF 6
