REMARK  Name = ZINC40309222
REMARK  8 active torsions:
REMARK  status: ('A' for Active; 'I' for Inactive)
REMARK    1  A    between atoms: C_1  and  C_2
REMARK    2  A    between atoms: C_7  and  C_8
REMARK    3  A    between atoms: N_9  and  C_16
REMARK    4  A    between atoms: C_10  and  C_12
REMARK    5  A    between atoms: C_12  and  C_14
REMARK    6  A    between atoms: C_12  and  O_15
REMARK    7  A    between atoms: C_16  and  C_18
REMARK    8  A    between atoms: C_16  and  C_19
REMARK                            x       y       z     vdW  Elec       q    Type
REMARK                         _______ _______ _______ _____ _____    ______ ____
ROOT
ATOM      1  C   UNL     1       0.101   1.669   1.181  0.00  0.00    +0.044 C 
ATOM      2  C   UNL     1       0.065   0.181   0.949  0.00  0.00    -0.045 A 
ATOM      3  C   UNL     1       0.092  -0.306  -0.327  0.00  0.00    +0.033 A 
ATOM      4  C   UNL     1       0.060  -1.685  -0.547  0.00  0.00    +0.090 A 
ATOM      5  C   UNL     1      -0.001  -2.559   0.552  0.00  0.00    +0.070 A 
ATOM      6  C   UNL     1      -0.027  -2.047   1.841  0.00  0.00    +0.031 A 
ATOM      7  C   UNL     1       0.011  -0.682   2.034  0.00  0.00    -0.045 A 
ATOM      8  C   UNL     1      -0.012  -0.123   3.434  0.00  0.00    +0.044 C 
ATOM      9  N   UNL     1      -0.020  -3.835   0.023  0.00  0.00    -0.318 N 
ATOM     10  C   UNL     1       0.026  -3.713  -1.331  0.00  0.00    +0.140 A 
ATOM     11  N   UNL     1       0.073  -2.456  -1.665  0.00  0.00    -0.230 NA
ENDROOT
BRANCH  10  12
ATOM     12  C   UNL     1       0.024  -4.865  -2.302  0.00  0.00    +0.177 C 
ATOM     13  C   UNL     1      -1.347  -4.965  -2.972  0.00  0.00    +0.046 C 
BRANCH  12  14
ATOM     14  O   UNL     1       1.026  -4.650  -3.298  0.00  0.00    -0.384 OA
ATOM     15  H   UNL     1       1.082  -5.354  -3.958  0.00  0.00    +0.210 HD
ENDBRANCH  12  14
ENDBRANCH  10  12
BRANCH   9  16
ATOM     16  C   UNL     1      -0.080  -5.088   0.781  0.00  0.00    +0.116 C 
ATOM     17  C   UNL     1      -0.274  -4.777   2.266  0.00  0.00    +0.036 C 
BRANCH  16  18
ATOM     18  C   UNL     1       1.205  -5.851   0.591  0.00  0.00    -0.025 A 
ATOM     19  C   UNL     1       2.417  -5.242   0.861  0.00  0.00    +0.005 A 
ATOM     20  C   UNL     1       3.596  -5.943   0.687  0.00  0.00    +0.000 A 
ATOM     21  C   UNL     1       3.563  -7.252   0.244  0.00  0.00    +0.000 A 
ATOM     22  C   UNL     1       2.352  -7.860  -0.025  0.00  0.00    +0.000 A 
ATOM     23  C   UNL     1       1.173  -7.161   0.153  0.00  0.00    +0.005 A 
ENDBRANCH  16  18
ENDBRANCH   9  16
TORSDOF 4
