REMARK  Name = ZINC65595026
REMARK  9 active torsions:
REMARK  status: ('A' for Active; 'I' for Inactive)
REMARK    1  A    between atoms: C_1  and  C_2
REMARK    2  A    between atoms: C_2  and  C_3
REMARK    3  A    between atoms: C_3  and  C_4
REMARK    4  A    between atoms: C_4  and  C_5
REMARK    5  A    between atoms: C_5  and  C_6
REMARK    6  A    between atoms: C_5  and  N_24
REMARK    7  A    between atoms: N_8  and  C_9
REMARK    8  A    between atoms: N_14  and  C_16
REMARK    9  A    between atoms: C_16  and  C_17
REMARK                            x       y       z     vdW  Elec       q    Type
REMARK                         _______ _______ _______ _____ _____    ______ ____
ROOT
ATOM      1  C   UNL     1       1.351  -4.029  -2.546  0.00  0.00    +0.238 C 
ATOM      2  O   UNL     1       2.275  -4.712  -2.159  0.00  0.00    -0.273 OA
ATOM      3  N   UNL     1       0.243  -4.613  -3.045  0.00  0.00    -0.283 N 
ATOM      4  H   UNL     1      -0.523  -4.071  -3.289  0.00  0.00    +0.155 HD
ENDROOT
BRANCH   3   5
ATOM      5  C   UNL     1       0.199  -6.007  -3.210  0.00  0.00    +0.050 A 
ATOM      6  C   UNL     1       0.406  -6.854  -2.107  0.00  0.00    +0.030 A 
ATOM      7  C   UNL     1       0.359  -8.205  -2.287  0.00  0.00    +0.072 A 
ATOM      8  C   UNL     1       0.104  -8.722  -3.569  0.00  0.00    +0.252 A 
ATOM      9  O   UNL     1       0.060  -9.930  -3.741  0.00  0.00    -0.268 OA
ATOM     10  N   UNL     1      -0.091  -7.888  -4.607  0.00  0.00    -0.309 N 
ATOM     11  C   UNL     1      -0.050  -6.540  -4.435  0.00  0.00    +0.112 A 
BRANCH  10  12
ATOM     12  C   UNL     1      -0.355  -8.439  -5.939  0.00  0.00    +0.161 C 
BRANCH  12  13
ATOM     13  C   UNL     1      -1.840  -8.616  -6.123  0.00  0.00    -0.009 A 
ATOM     14  C   UNL     1      -2.414  -9.863  -5.957  0.00  0.00    +0.007 A 
ATOM     15  C   UNL     1      -3.776 -10.025  -6.126  0.00  0.00    +0.000 A 
ATOM     16  C   UNL     1      -4.566  -8.941  -6.462  0.00  0.00    +0.001 A 
ATOM     17  C   UNL     1      -3.993  -7.694  -6.629  0.00  0.00    +0.020 A 
ATOM     18  C   UNL     1      -2.631  -7.530  -6.454  0.00  0.00    +0.046 A 
ATOM     19 CL   UNL     1      -1.912  -5.963  -6.658  0.00  0.00    -0.083 Cl
ENDBRANCH  12  13
ENDBRANCH  10  12
ENDBRANCH   3   5
BRANCH   1  20
ATOM     20  C   UNL     1       1.440  -2.526  -2.469  0.00  0.00    +0.161 C 
BRANCH  20  21
ATOM     21  N   UNL     1       2.845  -2.126  -2.361  0.00  0.00    -0.288 N 
ATOM     22  C   UNL     1       3.588  -2.550  -1.319  0.00  0.00    +0.298 C 
ATOM     23  O   UNL     1       3.092  -3.265  -0.470  0.00  0.00    -0.253 OA
ATOM     24  N   UNL     1       4.881  -2.181  -1.220  0.00  0.00    -0.313 N 
ATOM     25  H   UNL     1       3.240  -1.556  -3.038  0.00  0.00    +0.151 HD
ATOM     26  H   UNL     1       5.276  -1.611  -1.897  0.00  0.00    +0.146 HD
ATOM     27  H   UNL     1       5.415  -2.486  -0.470  0.00  0.00    +0.146 HD
ENDBRANCH  20  21
BRANCH  20  28
ATOM     28  C   UNL     1       0.672  -2.032  -1.242  0.00  0.00    +0.032 C 
BRANCH  28  29
ATOM     29  C   UNL     1       0.658  -0.502  -1.232  0.00  0.00    +0.002 C 
BRANCH  29  31
ATOM     30  C   UNL     1      -0.125   1.523   0.005  0.00  0.00    +0.004 C 
ATOM     31  C   UNL     1      -0.110  -0.007  -0.004  0.00  0.00    -0.003 C 
ENDBRANCH  29  31
ENDBRANCH  28  29
ENDBRANCH  20  28
ENDBRANCH   1  20
TORSDOF 8
