REMARK  Name = ZINC64435381
REMARK  8 active torsions:
REMARK  status: ('A' for Active; 'I' for Inactive)
REMARK    1  A    between atoms: C_1  and  O_2
REMARK    2  A    between atoms: O_2  and  C_3
REMARK    3  A    between atoms: C_6  and  C_11
REMARK    4  A    between atoms: C_8  and  O_9
REMARK    5  A    between atoms: O_9  and  C_10
REMARK    6  A    between atoms: N_17  and  C_19
REMARK    7  A    between atoms: C_19  and  C_20
REMARK    8  A    between atoms: N_22  and  C_23
REMARK                            x       y       z     vdW  Elec       q    Type
REMARK                         _______ _______ _______ _____ _____    ______ ____
ROOT
ATOM      1  C   UNL     1       2.532  -2.645   4.496  0.00  0.00    +0.103 C 
ATOM      2  C   UNL     1       1.649  -2.699   5.749  0.00  0.00    +0.034 C 
ATOM      3  C   UNL     1       2.394  -3.504   6.820  0.00  0.00    +0.099 C 
ATOM      4  C   UNL     1       3.823  -3.038   6.880  0.00  0.00    +0.230 C 
ATOM      5  O   UNL     1       4.492  -3.332   7.848  0.00  0.00    -0.274 OA
ATOM      6  N   UNL     1       4.385  -2.314   5.909  0.00  0.00    -0.228 N 
ATOM      7  N   UNL     1       3.742  -1.874   4.799  0.00  0.00    -0.230 NA
ATOM      8  H   UNL     1       3.534  -0.889   4.870  0.00  0.00    +0.145 HD
ENDROOT
BRANCH   1  12
ATOM      9  C   UNL     1       0.391  -0.753   1.314  0.00  0.00    +0.162 A 
ATOM     10  C   UNL     1       0.990   0.013   2.301  0.00  0.00    +0.050 A 
ATOM     11  C   UNL     1       1.681  -0.602   3.329  0.00  0.00    +0.009 A 
ATOM     12  C   UNL     1       1.777  -1.980   3.374  0.00  0.00    -0.025 A 
ATOM     13  C   UNL     1       1.182  -2.750   2.392  0.00  0.00    +0.054 A 
ATOM     14  C   UNL     1       0.483  -2.141   1.363  0.00  0.00    +0.162 A 
BRANCH   9  16
ATOM     15  C   UNL     1      -0.342   1.278   0.318  0.00  0.00    +0.277 C 
ATOM     16  O   UNL     1      -0.289  -0.150   0.303  0.00  0.00    -0.491 OA
ENDBRANCH   9  16
BRANCH  14  17
ATOM     17  O   UNL     1      -0.108  -2.897   0.399  0.00  0.00    -0.491 OA
ATOM     18  C   UNL     1       0.027  -4.315   0.513  0.00  0.00    +0.277 C 
ENDBRANCH  14  17
ENDBRANCH   1  12
BRANCH   6  19
ATOM     19  C   UNL     1       5.803  -1.973   6.050  0.00  0.00    +0.223 C 
BRANCH  19  20
ATOM     20  C   UNL     1       5.938  -0.727   6.888  0.00  0.00    +0.236 C 
ATOM     21  O   UNL     1       4.948  -0.179   7.323  0.00  0.00    -0.274 OA
ATOM     22  N   UNL     1       7.160  -0.223   7.153  0.00  0.00    -0.284 N 
ATOM     23  H   UNL     1       7.954  -0.700   6.866  0.00  0.00    +0.155 HD
BRANCH  22  24
ATOM     24  C   UNL     1       7.280   0.979   7.835  0.00  0.00    +0.034 C 
ATOM     25  C   UNL     1       7.967   2.030   7.267  0.00  0.00    +0.029 C 
ATOM     26  C   UNL     1       7.976   3.210   8.020  0.00  0.00    -0.016 C 
ATOM     27  C   UNL     1       8.870   4.212   8.139  0.00  0.00    +0.025 C 
ATOM     28  C   UNL     1       8.523   5.016   9.243  0.00  0.00    +0.106 C 
ATOM     29  N   UNL     1       7.398   4.646   9.789  0.00  0.00    -0.279 NA
ATOM     30  C   UNL     1       6.852   3.566   8.979  0.00  0.00    +0.158 C 
ATOM     31  C   UNL     1       6.489   2.324   9.736  0.00  0.00    +0.006 C 
ATOM     32  C   UNL     1       6.673   1.135   9.160  0.00  0.00    +0.021 C 
ENDBRANCH  22  24
ENDBRANCH  19  20
ENDBRANCH   6  19
TORSDOF 6
