REMARK  Name = ZINC64837709
REMARK  8 active torsions:
REMARK  status: ('A' for Active; 'I' for Inactive)
REMARK    1  A    between atoms: C_1  and  C_2
REMARK    2  A    between atoms: C_5  and  N_9
REMARK    3  A    between atoms: C_6  and  C_8
REMARK    4  A    between atoms: N_9  and  S_10
REMARK    5  A    between atoms: S_10  and  C_13
REMARK    6  A    between atoms: C_16  and  C_19
REMARK    7  A    between atoms: C_20  and  C_25
REMARK    8  A    between atoms: C_23  and  C_24
REMARK                            x       y       z     vdW  Elec       q    Type
REMARK                         _______ _______ _______ _____ _____    ______ ____
ROOT
ATOM      1  S   UNL     1       0.780  -4.979  -1.271  0.00  0.00    +0.072 S 
ATOM      2  O   UNL     1       0.556  -6.363  -1.040  0.00  0.00    -0.150 OA
ATOM      3  O   UNL     1       0.369  -4.331  -2.467  0.00  0.00    -0.150 OA
ENDROOT
BRANCH   1   4
ATOM      4  C   UNL     1       2.517  -4.719  -1.127  0.00  0.00    +0.109 A 
ATOM      5  C   UNL     1       3.105  -3.635  -1.754  0.00  0.00    +0.029 A 
ATOM      6  C   UNL     1       4.465  -3.427  -1.645  0.00  0.00    +0.010 A 
ATOM      7  C   UNL     1       5.245  -4.310  -0.902  0.00  0.00    -0.013 A 
ATOM      8  C   UNL     1       4.647  -5.400  -0.273  0.00  0.00    +0.010 A 
ATOM      9  C   UNL     1       3.286  -5.596  -0.384  0.00  0.00    +0.029 A 
BRANCH   7  10
ATOM     10  C   UNL     1       6.709  -4.091  -0.782  0.00  0.00    +0.047 A 
ATOM     11  C   UNL     1       7.650  -4.142  -1.838  0.00  0.00    +0.088 A 
ATOM     12  N   UNL     1       8.827  -3.898  -1.340  0.00  0.00    -0.083 NA
ATOM     13  O   UNL     1       8.683  -3.683   0.051  0.00  0.00    -0.359 OA
ATOM     14  C   UNL     1       7.384  -3.801   0.360  0.00  0.00    +0.142 A 
ATOM     15  C   UNL     1       6.780  -3.643   1.732  0.00  0.00    +0.090 C 
ATOM     16  C   UNL     1       7.342  -4.429  -3.286  0.00  0.00    +0.070 C 
ENDBRANCH   7  10
ENDBRANCH   1   4
BRANCH   1  17
ATOM     17  N   UNL     1       0.058  -4.167  -0.021  0.00  0.00    -0.216 N 
ATOM     18  H   UNL     1      -0.470  -4.653   0.632  0.00  0.00    +0.174 HD
BRANCH  17  23
ATOM     19  C   UNL     1       0.671   1.451   0.442  0.00  0.00    +0.044 C 
ATOM     20  C   UNL     1       0.508  -0.042   0.319  0.00  0.00    -0.050 A 
ATOM     21  C   UNL     1       0.416  -0.625  -0.932  0.00  0.00    +0.005 A 
ATOM     22  C   UNL     1       0.267  -1.993  -1.048  0.00  0.00    +0.025 A 
ATOM     23  C   UNL     1       0.209  -2.784   0.093  0.00  0.00    +0.051 A 
ATOM     24  C   UNL     1       0.302  -2.194   1.347  0.00  0.00    -0.028 A 
ATOM     25  C   UNL     1       0.457  -0.826   1.456  0.00  0.00    +0.008 A 
ATOM     26  C   UNL     1       0.239  -3.048   2.588  0.00  0.00    +0.046 C 
ENDBRANCH  17  23
ENDBRANCH   1  17
TORSDOF 4
