REMARK  Name = ZINC13440598
REMARK  5 active torsions:
REMARK  status: ('A' for Active; 'I' for Inactive)
REMARK    1  A    between atoms: C_5  and  N_6
REMARK    2  A    between atoms: C_16  and  C_18
REMARK    3  A    between atoms: C_23  and  C_24
REMARK    4  A    between atoms: C_23  and  N_60
REMARK    5  A    between atoms: C_24  and  C_25
REMARK                            x       y       z     vdW  Elec       q    Type
REMARK                         _______ _______ _______ _____ _____    ______ ____
ROOT
ATOM      1  N   UNL     1       2.315   3.918   0.025  0.00  0.00    -0.329 N 
ATOM      2  C   UNL     1       3.111   3.618  -1.194  0.00  0.00    +0.106 C 
ATOM      3  C   UNL     1       4.047   4.835  -1.358  0.00  0.00    +0.027 C 
ATOM      4  C   UNL     1       3.335   5.984  -0.622  0.00  0.00    -0.009 C 
ATOM      5  C   UNL     1       2.033   5.375  -0.072  0.00  0.00    +0.112 C 
ATOM      6  C   UNL     1       3.015   7.113  -1.596  0.00  0.00    +0.027 C 
ATOM      7  C   UNL     1       4.319   7.674  -2.173  0.00  0.00    +0.108 C 
ATOM      8  N   UNL     1       5.204   8.049  -1.062  0.00  0.00    -0.301 N 
ATOM      9  C   UNL     1       5.516   7.046  -0.035  0.00  0.00    +0.108 C 
ATOM     10  C   UNL     1       4.202   6.490   0.526  0.00  0.00    +0.027 C 
ATOM     11  C   UNL     1       5.719   9.292  -0.985  0.00  0.00    +0.219 C 
ATOM     12  O   UNL     1       6.367   9.621  -0.014  0.00  0.00    -0.275 OA
ENDROOT
BRANCH   1  17
ATOM     13  C   UNL     1       1.160   1.787   0.033  0.00  0.00    +0.040 A 
ATOM     14  C   UNL     1      -0.032   1.095   0.051  0.00  0.00    +0.084 A 
ATOM     15  C   UNL     1      -1.253   3.053   0.089  0.00  0.00    +0.084 A 
ATOM     16  C   UNL     1      -0.106   3.819   0.072  0.00  0.00    +0.040 A 
ATOM     17  C   UNL     1       1.134   3.182   0.043  0.00  0.00    +0.032 A 
ATOM     18  N   UNL     1      -1.255   1.692   0.074  0.00  0.00    -0.367 N 
ATOM     19  H   UNL     1      -2.126   1.149   0.079  0.00  0.00    +0.165 HD
ENDBRANCH   1  17
BRANCH  11  20
ATOM     20  C   UNL     1       5.490  10.273  -2.106  0.00  0.00    +0.072 C 
ATOM     21  C   UNL     1       6.723  11.168  -2.263  0.00  0.00    -0.006 C 
ATOM     22  C   UNL     1       6.461  12.200  -3.362  0.00  0.00    -0.078 C 
ATOM     23  C   UNL     1       4.084  12.179  -2.895  0.00  0.00    -0.078 C 
ATOM     24  C   UNL     1       4.274  11.146  -1.782  0.00  0.00    -0.006 C 
ATOM     25  N   UNL     1       5.295  13.023  -2.978  0.00  0.00    +0.380 N 
ATOM     26  H   UNL     1       5.472  13.444  -2.058  0.00  0.00    -0.082 HD
BRANCH  25  27
ATOM     27  C   UNL     1       5.091  14.102  -3.967  0.00  0.00    -0.068 C 
BRANCH  27  28
ATOM     28  C   UNL     1       6.429  14.789  -4.243  0.00  0.00    +0.106 C 
BRANCH  28  29
ATOM     29  C   UNL     1       6.226  15.909  -5.230  0.00  0.00    +0.354 C 
ATOM     30  O   UNL     1       5.123  16.134  -5.669  0.00  0.00    -0.246 OA
ATOM     31  O   UNL     1       7.269  16.656  -5.622  0.00  0.00    -0.246 OA
ENDBRANCH  28  29
ENDBRANCH  27  28
ENDBRANCH  25  27
ENDBRANCH  11  20
TORSDOF 5
