REMARK  Name = ZINC58289916
REMARK  5 active torsions:
REMARK  status: ('A' for Active; 'I' for Inactive)
REMARK    1  A    between atoms: C_1  and  C_2
REMARK    2  A    between atoms: C_2  and  C_17
REMARK    3  A    between atoms: N_5  and  C_9
REMARK    4  A    between atoms: C_9  and  C_10
REMARK    5  A    between atoms: C_10  and  C_11
REMARK                            x       y       z     vdW  Elec       q    Type
REMARK                         _______ _______ _______ _____ _____    ______ ____
ROOT
ATOM      1  C   UNL     1      -0.019   1.526   0.010  0.00  0.00    +0.047 C 
ATOM      2  C   UNL     1       0.002  -0.004   0.002  0.00  0.00    +0.135 C 
ATOM      3  C   UNL     1      -1.403  -0.557   0.139  0.00  0.00    +0.251 C 
ATOM      4  O   UNL     1      -2.332  -0.392  -0.621  0.00  0.00    -0.272 OA
ATOM      5  N   UNL     1      -1.403  -1.272   1.282  0.00  0.00    -0.224 N 
ATOM      6  C   UNL     1      -0.206  -1.247   1.879  0.00  0.00    +0.310 C 
ATOM      7  O   UNL     1       0.040  -1.819   2.924  0.00  0.00    -0.252 OA
ATOM      8  N   UNL     1       0.695  -0.520   1.195  0.00  0.00    -0.281 N 
ATOM      9  H   UNL     1       1.621  -0.365   1.440  0.00  0.00    +0.152 HD
ENDROOT
BRANCH   2  10
ATOM     10  C   UNL     1       0.657  -0.517  -1.255  0.00  0.00    -0.014 A 
ATOM     11  C   UNL     1      -0.108  -0.772  -2.378  0.00  0.00    +0.006 A 
ATOM     12  C   UNL     1       0.492  -1.242  -3.531  0.00  0.00    +0.002 A 
ATOM     13  C   UNL     1       1.857  -1.459  -3.561  0.00  0.00    +0.020 A 
ATOM     14  C   UNL     1       2.623  -1.204  -2.438  0.00  0.00    +0.041 A 
ATOM     15  C   UNL     1       2.022  -0.727  -1.286  0.00  0.00    +0.026 A 
ATOM     16 CL   UNL     1       4.337  -1.475  -2.475  0.00  0.00    -0.084 Cl
ENDBRANCH   2  10
BRANCH   5  17
ATOM     17  C   UNL     1      -2.569  -1.986   1.805  0.00  0.00    +0.127 C 
BRANCH  17  18
ATOM     18  C   UNL     1      -2.585  -3.413   1.252  0.00  0.00    +0.115 C 
BRANCH  18  19
ATOM     19  C   UNL     1      -3.785  -4.148   1.790  0.00  0.00    +0.222 C 
ATOM     20  O   UNL     1      -4.552  -3.587   2.542  0.00  0.00    -0.275 OA
ATOM     21  N   UNL     1      -4.005  -5.429   1.435  0.00  0.00    -0.240 N 
ATOM     22  C   UNL     1      -5.079  -6.087   1.917  0.00  0.00    +0.303 C 
ATOM     23  O   UNL     1      -5.848  -5.524   2.671  0.00  0.00    -0.253 OA
ATOM     24  N   UNL     1      -5.299  -7.368   1.562  0.00  0.00    -0.313 N 
ATOM     25  H   UNL     1      -3.392  -5.878   0.833  0.00  0.00    +0.159 HD
ATOM     26  H   UNL     1      -4.686  -7.817   0.960  0.00  0.00    +0.146 HD
ATOM     27  H   UNL     1      -6.072  -7.841   1.909  0.00  0.00    +0.146 HD
ENDBRANCH  18  19
ENDBRANCH  17  18
ENDBRANCH   5  17
TORSDOF 4
