REMARK  Name = ZINC31170287
REMARK  16 active torsions:
REMARK  status: ('A' for Active; 'I' for Inactive)
REMARK    1  A    between atoms: C_1  and  C_2
REMARK    2  A    between atoms: C_2  and  C_9
REMARK    3  A    between atoms: C_3  and  C_4
REMARK    4  A    between atoms: C_4  and  O_5
REMARK    5  A    between atoms: O_5  and  C_6
REMARK    6  A    between atoms: C_6  and  C_8
REMARK    7  A    between atoms: C_9  and  O_11
REMARK    8  A    between atoms: O_11  and  C_12
REMARK    9  A    between atoms: C_15  and  C_32
REMARK   10  A    between atoms: C_15  and  C_33
REMARK   11  A    between atoms: C_16  and  C_28
REMARK   12  A    between atoms: C_18  and  O_27
REMARK   13  A    between atoms: C_20  and  C_22
REMARK   14  A    between atoms: C_22  and  C_24
REMARK   15  A    between atoms: C_28  and  C_30
REMARK   16  A    between atoms: C_30  and  O_31
REMARK                            x       y       z     vdW  Elec       q    Type
REMARK                         _______ _______ _______ _____ _____    ______ ____
ROOT
ATOM      1  C   UNL     1      -3.202  -0.784   1.758  0.00  0.00    +0.188 C 
ATOM      2  C   UNL     1      -2.834  -2.029   0.948  0.00  0.00    +0.056 C 
ATOM      3  C   UNL     1      -4.044  -2.962   0.869  0.00  0.00    -0.002 C 
ATOM      4  C   UNL     1      -5.205  -2.236   0.187  0.00  0.00    +0.056 C 
ATOM      5  C   UNL     1      -5.573  -0.991   0.997  0.00  0.00    +0.134 C 
ATOM      6  C   UNL     1      -4.363  -0.058   1.076  0.00  0.00    +0.095 C 
ATOM      7  C   UNL     1      -4.461  -3.377   2.282  0.00  0.00    +0.016 C 
ENDROOT
BRANCH   6   8
ATOM      8  C   UNL     1      -3.953   0.351  -0.315  0.00  0.00    +0.043 C 
ATOM      9  C   UNL     1      -3.560  -0.571  -1.191  0.00  0.00    +0.020 C 
BRANCH   8  10
ATOM     10  C   UNL     1      -3.986   1.768  -0.705  0.00  0.00    +0.383 C 
ATOM     11  O   UNL     1      -3.746   2.088  -1.852  0.00  0.00    -0.241 OA
ATOM     12  O   UNL     1      -4.282   2.712   0.211  0.00  0.00    -0.241 OA
ENDBRANCH   8  10
ENDBRANCH   6   8
BRANCH   5  13
ATOM     13  O   UNL     1      -5.963  -1.379   2.316  0.00  0.00    -0.390 OA
ATOM     14  H   UNL     1      -6.264  -0.614   3.047  0.00  0.00    +0.210 HD
ENDBRANCH   5  13
BRANCH   4  15
ATOM     15  C   UNL     1      -6.396  -3.155   0.110  0.00  0.00    -0.045 C 
ATOM     16  C   UNL     1      -6.608  -3.863  -0.972  0.00  0.00    +0.010 C 
BRANCH  15  17
ATOM     17  C   UNL     1      -7.344  -3.260   1.276  0.00  0.00    +0.186 C 
BRANCH  17  18
ATOM     18  O   UNL     1      -8.307  -4.285   1.017  0.00  0.00    -0.391 OA
ATOM     19  H   UNL     1      -9.086  -4.508   1.761  0.00  0.00    +0.210 HD
ENDBRANCH  17  18
ENDBRANCH  15  17
ENDBRANCH   4  15
BRANCH   3  20
ATOM     20  C   UNL     1      -3.681  -4.189   0.072  0.00  0.00    -0.027 C 
ATOM     21  C   UNL     1      -2.527  -4.251  -0.546  0.00  0.00    +0.004 C 
ENDBRANCH   3  20
BRANCH   1  22
ATOM     22  O   UNL     1      -2.054   0.102   1.833  0.00  0.00    -0.457 OA
BRANCH  22  23
ATOM     23  C   UNL     1      -1.213  -0.074   2.871  0.00  0.00    +0.335 C 
ATOM     24  O   UNL     1      -1.433  -0.943   3.691  0.00  0.00    -0.245 OA
BRANCH  23  26
ATOM     25  C   UNL     1       1.337   0.243   2.657  0.00  0.00    +0.051 C 
ATOM     26  C   UNL     1      -0.026   0.782   3.008  0.00  0.00    +0.033 C 
ATOM     27  C   UNL     1      -0.155   2.034   3.442  0.00  0.00    +0.024 C 
BRANCH  27  28
ATOM     28  C   UNL     1      -1.497   2.534   3.913  0.00  0.00    +0.260 C 
BRANCH  28  29
ATOM     29  O   UNL     1      -1.418   2.880   5.321  0.00  0.00    -0.461 OA
BRANCH  29  30
ATOM     30  C   UNL     1      -2.537   3.346   5.897  0.00  0.00    +0.304 C 
ATOM     31  O   UNL     1      -3.549   3.459   5.247  0.00  0.00    -0.251 OA
ATOM     32  C   UNL     1      -2.531   3.726   7.356  0.00  0.00    +0.136 C 
ENDBRANCH  29  30
ENDBRANCH  28  29
ENDBRANCH  27  28
ENDBRANCH  23  26
ENDBRANCH  22  23
ENDBRANCH   1  22
TORSDOF 13
