REMARK  Name = ZINC12548243
REMARK  12 active torsions:
REMARK  status: ('A' for Active; 'I' for Inactive)
REMARK    1  A    between atoms: C_4  and  C_7
REMARK    2  A    between atoms: C_7  and  N_8
REMARK    3  A    between atoms: C_9  and  N_35
REMARK    4  A    between atoms: C_10  and  N_17
REMARK    5  A    between atoms: N_17  and  C_18
REMARK    6  A    between atoms: N_17  and  C_21
REMARK    7  A    between atoms: C_18  and  C_19
REMARK    8  A    between atoms: C_19  and  O_20
REMARK    9  A    between atoms: C_21  and  C_22
REMARK   10  A    between atoms: N_30  and  C_31
REMARK   11  A    between atoms: C_31  and  C_32
REMARK   12  A    between atoms: C_32  and  O_33
REMARK                            x       y       z     vdW  Elec       q    Type
REMARK                         _______ _______ _______ _____ _____    ______ ____
ROOT
ATOM      1  N   UNL     1      -0.071  -2.130  -3.003  0.00  0.00    -0.314 N 
ENDROOT
BRANCH   1   4
ATOM      2  N   UNL     1       0.598   0.372  -5.604  0.00  0.00    -0.276 N 
ATOM      3  C   UNL     1       0.592  -0.259  -4.381  0.00  0.00    +0.127 A 
ATOM      4  C   UNL     1      -0.054  -1.458  -4.248  0.00  0.00    +0.134 A 
ATOM      5  C   UNL     1      -0.706  -2.010  -5.365  0.00  0.00    +0.277 A 
ATOM      6  O   UNL     1      -1.292  -3.075  -5.270  0.00  0.00    -0.266 OA
ATOM      7  N   UNL     1      -0.678  -1.355  -6.542  0.00  0.00    -0.273 N 
ATOM      8  H   UNL     1      -1.141  -1.746  -7.338  0.00  0.00    +0.173 HD
ATOM      9  C   UNL     1      -0.034  -0.179  -6.657  0.00  0.00    +0.331 A 
ATOM     10  O   UNL     1      -0.023   0.395  -7.729  0.00  0.00    -0.246 OA
BRANCH   3  11
ATOM     11  N   UNL     1       1.234   0.308  -3.304  0.00  0.00    -0.343 N 
ATOM     12  H   UNL     1       1.230  -0.142  -2.445  0.00  0.00    +0.144 HD
ATOM     13  H   UNL     1       1.690   1.158  -3.404  0.00  0.00    +0.144 HD
ENDBRANCH   3  11
BRANCH   2  14
ATOM     14  C   UNL     1       1.290   1.653  -5.760  0.00  0.00    +0.163 C 
BRANCH  14  18
ATOM     15  C   UNL     1      -1.414   4.848  -4.904  0.00  0.00    +0.000 A 
ATOM     16  C   UNL     1      -0.653   4.295  -3.890  0.00  0.00    +0.000 A 
ATOM     17  C   UNL     1       0.222   3.262  -4.167  0.00  0.00    +0.005 A 
ATOM     18  C   UNL     1       0.336   2.780  -5.458  0.00  0.00    -0.028 A 
ATOM     19  C   UNL     1      -0.421   3.336  -6.473  0.00  0.00    +0.005 A 
ATOM     20  C   UNL     1      -1.300   4.366  -6.195  0.00  0.00    +0.000 A 
ENDBRANCH  14  18
ENDBRANCH   2  14
ENDBRANCH   1   4
BRANCH   1  21
ATOM     21  C   UNL     1       0.628  -3.419  -3.091  0.00  0.00    +0.133 C 
BRANCH  21  22
ATOM     22  C   UNL     1       2.116  -3.176  -3.354  0.00  0.00    +0.174 C 
BRANCH  22  23
ATOM     23  O   UNL     1       2.695  -2.508  -2.231  0.00  0.00    -0.393 OA
ATOM     24  H   UNL     1       3.639  -2.321  -2.328  0.00  0.00    +0.209 HD
ENDBRANCH  22  23
ENDBRANCH  21  22
ENDBRANCH   1  21
BRANCH   1  25
ATOM     25  C   UNL     1      -1.446  -2.308  -2.520  0.00  0.00    +0.179 C 
BRANCH  25  26
ATOM     26  C   UNL     1      -1.418  -2.799  -1.095  0.00  0.00    +0.128 A 
ATOM     27  N   UNL     1      -1.392  -4.050  -0.738  0.00  0.00    -0.231 NA
ATOM     28  C   UNL     1      -1.379  -4.137   0.617  0.00  0.00    +0.089 A 
ATOM     29  C   UNL     1      -1.356  -5.210   1.513  0.00  0.00    +0.031 A 
ATOM     30  C   UNL     1      -1.347  -4.973   2.858  0.00  0.00    +0.022 A 
ATOM     31  C   UNL     1      -1.361  -3.674   3.349  0.00  0.00    +0.043 A 
ATOM     32  C   UNL     1      -1.383  -2.600   2.482  0.00  0.00    +0.048 A 
ATOM     33  C   UNL     1      -1.392  -2.823   1.112  0.00  0.00    +0.070 A 
ATOM     34  N   UNL     1      -1.413  -1.998   0.005  0.00  0.00    -0.324 N 
ATOM     35 CL   UNL     1      -1.350  -3.399   5.063  0.00  0.00    -0.083 Cl
BRANCH  34  36
ATOM     36  C   UNL     1      -1.433  -0.534   0.013  0.00  0.00    +0.151 C 
BRANCH  36  37
ATOM     37  C   UNL     1       0.002  -0.004   0.002  0.00  0.00    +0.177 C 
BRANCH  37  38
ATOM     38  O   UNL     1      -0.017   1.425   0.010  0.00  0.00    -0.393 OA
ATOM     39  H   UNL     1       0.861   1.830   0.004  0.00  0.00    +0.209 HD
ENDBRANCH  37  38
ENDBRANCH  36  37
ENDBRANCH  34  36
ENDBRANCH  25  26
ENDBRANCH   1  25
TORSDOF 12
