REMARK  Name = ZINC45484648
REMARK  9 active torsions:
REMARK  status: ('A' for Active; 'I' for Inactive)
REMARK    1  A    between atoms: C_1  and  C_2
REMARK    2  A    between atoms: C_11  and  N_32
REMARK    3  A    between atoms: C_13  and  S_15
REMARK    4  A    between atoms: S_15  and  C_16
REMARK    5  A    between atoms: C_16  and  C_18
REMARK    6  A    between atoms: C_16  and  C_19
REMARK    7  A    between atoms: N_21  and  C_22
REMARK    8  A    between atoms: C_26  and  S_28
REMARK    9  A    between atoms: S_28  and  N_31
REMARK                            x       y       z     vdW  Elec       q    Type
REMARK                         _______ _______ _______ _____ _____    ______ ____
ROOT
ATOM      1  S   UNL     1      -0.103  -7.523   2.340  0.00  0.00    -0.073 S 
ENDROOT
BRANCH   1  13
ATOM      2  C   UNL     1       0.457   2.417   0.131  0.00  0.00    +0.008 C 
ATOM      3  C   UNL     1       0.444   0.887   0.113  0.00  0.00    -0.009 C 
ATOM      4  C   UNL     1      -1.003   0.386   0.070  0.00  0.00    +0.008 C 
ATOM      5  C   UNL     1      -1.022  -1.119  -0.197  0.00  0.00    +0.037 C 
ATOM      6  C   UNL     1      -0.119  -1.814   0.819  0.00  0.00    -0.025 A 
ATOM      7  C   UNL     1       0.816  -1.113   1.498  0.00  0.00    -0.004 A 
ATOM      8  S   UNL     1       1.618  -2.299   2.549  0.00  0.00    -0.073 S 
ATOM      9  C   UNL     1       0.700  -3.731   2.080  0.00  0.00    +0.115 A 
ATOM     10  C   UNL     1      -0.209  -3.236   1.111  0.00  0.00    +0.051 A 
ATOM     11  C   UNL     1      -1.109  -4.176   0.530  0.00  0.00    +0.129 A 
ATOM     12  N   UNL     1      -1.000  -5.430   0.961  0.00  0.00    -0.207 NA
ATOM     13  C   UNL     1      -0.124  -5.824   1.873  0.00  0.00    +0.192 A 
ATOM     14  N   UNL     1       0.745  -4.993   2.455  0.00  0.00    -0.214 NA
ATOM     15  C   UNL     1       1.116   0.350   1.384  0.00  0.00    +0.046 C 
BRANCH  11  16
ATOM     16  N   UNL     1      -2.039  -3.807  -0.425  0.00  0.00    -0.343 N 
ATOM     17  H   UNL     1      -1.886  -3.022  -0.974  0.00  0.00    +0.144 HD
ATOM     18  H   UNL     1      -2.845  -4.333  -0.546  0.00  0.00    +0.144 HD
ENDBRANCH  11  16
ENDBRANCH   1  13
BRANCH   1  19
ATOM     19  C   UNL     1      -1.412  -8.271   1.331  0.00  0.00    +0.137 C 
ATOM     20  C   UNL     1      -1.027  -8.188  -0.147  0.00  0.00    +0.029 C 
BRANCH  19  21
ATOM     21  C   UNL     1      -1.586  -9.716   1.725  0.00  0.00    +0.230 C 
ATOM     22  O   UNL     1      -0.696 -10.296   2.311  0.00  0.00    -0.274 OA
ATOM     23  N   UNL     1      -2.729 -10.363   1.425  0.00  0.00    -0.285 N 
ATOM     24  H   UNL     1      -3.408  -9.925   0.888  0.00  0.00    +0.155 HD
BRANCH  23  25
ATOM     25  C   UNL     1      -2.938 -11.666   1.889  0.00  0.00    +0.035 A 
ATOM     26  C   UNL     1      -3.630 -12.581   1.106  0.00  0.00    +0.023 A 
ATOM     27  C   UNL     1      -3.834 -13.867   1.567  0.00  0.00    +0.004 A 
ATOM     28  C   UNL     1      -3.350 -14.244   2.806  0.00  0.00    +0.028 A 
ATOM     29  C   UNL     1      -2.660 -13.336   3.588  0.00  0.00    +0.107 A 
ATOM     30  C   UNL     1      -2.447 -12.050   3.130  0.00  0.00    +0.051 A 
BRANCH  29  31
ATOM     31  S   UNL     1      -2.046 -13.821   5.166  0.00  0.00    +0.056 S 
ATOM     32  O   UNL     1      -1.911 -12.632   5.933  0.00  0.00    -0.153 OA
ATOM     33  O   UNL     1      -2.844 -14.916   5.594  0.00  0.00    -0.153 OA
BRANCH  31  34
ATOM     34  N   UNL     1      -0.516 -14.412   4.936  0.00  0.00    -0.204 NA
ATOM     35  H   UNL     1       0.147 -14.329   5.639  0.00  0.00    +0.144 HD
ATOM     36  H   UNL     1      -0.283 -14.840   4.098  0.00  0.00    +0.144 HD
ENDBRANCH  31  34
ENDBRANCH  29  31
ENDBRANCH  23  25
ENDBRANCH  19  21
ENDBRANCH   1  19
TORSDOF 7
