REMARK  Name = ZINC53113400
REMARK  8 active torsions:
REMARK  status: ('A' for Active; 'I' for Inactive)
REMARK    1  A    between atoms: C_1  and  C_2
REMARK    2  A    between atoms: C_6  and  N_22
REMARK    3  A    between atoms: C_7  and  S_8
REMARK    4  A    between atoms: S_8  and  N_11
REMARK    5  A    between atoms: N_11  and  C_12
REMARK    6  A    between atoms: C_12  and  C_20
REMARK    7  A    between atoms: C_16  and  C_19
REMARK    8  A    between atoms: C_20  and  O_21
REMARK                            x       y       z     vdW  Elec       q    Type
REMARK                         _______ _______ _______ _____ _____    ______ ____
ROOT
ATOM      1  S   UNL     1      -1.142  -0.612   2.391  0.00  0.00    +0.061 S 
ATOM      2  O   UNL     1      -0.262  -1.469   3.105  0.00  0.00    -0.153 OA
ATOM      3  O   UNL     1      -1.236   0.780   2.662  0.00  0.00    -0.153 OA
ENDROOT
BRANCH   1  10
ATOM      4  C   UNL     1      -2.726   0.625   0.132  0.00  0.00    +0.046 C 
ATOM      5  C   UNL     1      -1.509  -0.164  -0.276  0.00  0.00    -0.022 A 
ATOM      6  C   UNL     1      -1.177  -0.280  -1.614  0.00  0.00    +0.005 A 
ATOM      7  C   UNL     1      -0.062  -1.004  -1.992  0.00  0.00    +0.002 A 
ATOM      8  C   UNL     1       0.726  -1.613  -1.035  0.00  0.00    +0.025 A 
ATOM      9  C   UNL     1       0.396  -1.498   0.309  0.00  0.00    +0.051 A 
ATOM     10  C   UNL     1      -0.723  -0.766   0.686  0.00  0.00    +0.129 A 
BRANCH   9  11
ATOM     11  N   UNL     1       1.190  -2.113   1.280  0.00  0.00    -0.356 N 
ATOM     12  H   UNL     1       1.629  -2.956   1.084  0.00  0.00    +0.142 HD
ATOM     13  H   UNL     1       1.303  -1.698   2.149  0.00  0.00    +0.142 HD
ENDBRANCH   9  11
ENDBRANCH   1  10
BRANCH   1  14
ATOM     14  N   UNL     1      -2.665  -1.234   2.579  0.00  0.00    -0.182 NA
ATOM     15  H   UNL     1      -3.426  -0.638   2.656  0.00  0.00    +0.149 HD
BRANCH  14  16
ATOM     16  C   UNL     1      -2.863  -2.684   2.629  0.00  0.00    +0.063 C 
ATOM     17  C   UNL     1      -2.159  -3.253   3.863  0.00  0.00    +0.026 C 
ATOM     18  C   UNL     1      -2.747  -2.615   5.123  0.00  0.00    +0.002 C 
ATOM     19  C   UNL     1      -4.243  -2.923   5.202  0.00  0.00    +0.003 C 
ATOM     20  C   UNL     1      -4.946  -2.355   3.967  0.00  0.00    -0.012 C 
ATOM     21  C   UNL     1      -4.359  -2.993   2.707  0.00  0.00    +0.029 C 
ATOM     22  C   UNL     1      -6.443  -2.663   4.046  0.00  0.00    +0.007 C 
BRANCH  16  23
ATOM     23  C   UNL     1      -2.276  -3.323   1.368  0.00  0.00    +0.179 C 
BRANCH  23  24
ATOM     24  O   UNL     1      -0.853  -3.188   1.384  0.00  0.00    -0.393 OA
ATOM     25  H   UNL     1      -0.414  -3.560   0.607  0.00  0.00    +0.209 HD
ENDBRANCH  23  24
ENDBRANCH  16  23
ENDBRANCH  14  16
ENDBRANCH   1  14
TORSDOF 6
