REMARK  Name = ZINC52094658
REMARK  5 active torsions:
REMARK  status: ('A' for Active; 'I' for Inactive)
REMARK    1  A    between atoms: C_1  and  C_2
REMARK    2  A    between atoms: C_2  and  N_3
REMARK    3  A    between atoms: N_3  and  C_4
REMARK    4  A    between atoms: C_4  and  C_6
REMARK    5  A    between atoms: C_4  and  C_19
REMARK                            x       y       z     vdW  Elec       q    Type
REMARK                         _______ _______ _______ _____ _____    ______ ____
ROOT
ATOM      1  C   UNL     1       1.669  -2.553  -2.339  0.00  0.00    -0.043 A 
ATOM      2  C   UNL     1       2.053  -1.830  -3.451  0.00  0.00    +0.031 A 
ATOM      3  C   UNL     1       2.919  -2.393  -4.376  0.00  0.00    +0.067 A 
ATOM      4  C   UNL     1       3.400  -3.689  -4.179  0.00  0.00    +0.068 A 
ATOM      5  C   UNL     1       3.009  -4.408  -3.060  0.00  0.00    +0.043 A 
ATOM      6  C   UNL     1       2.150  -3.837  -2.141  0.00  0.00    +0.022 A 
ATOM      7 BR   UNL     1       1.623  -4.813  -0.610  0.00  0.00    -0.050 Br
ATOM      8  N   UNL     1       4.235  -3.977  -5.256  0.00  0.00    -0.306 N 
ATOM      9  H   UNL     1       4.716  -4.808  -5.396  0.00  0.00    +0.170 HD
ATOM     10  C   UNL     1       4.262  -2.905  -6.070  0.00  0.00    +0.325 A 
ATOM     11  O   UNL     1       4.897  -2.826  -7.105  0.00  0.00    -0.247 OA
ATOM     12  N   UNL     1       3.478  -1.933  -5.566  0.00  0.00    -0.306 N 
ATOM     13  H   UNL     1       3.327  -1.061  -5.965  0.00  0.00    +0.170 HD
ENDROOT
BRANCH   1  14
ATOM     14  C   UNL     1       0.728  -1.941  -1.334  0.00  0.00    -0.010 C 
BRANCH  14  15
ATOM     15  C   UNL     1      -0.688  -2.469  -1.574  0.00  0.00    +0.109 C 
ATOM     16  C   UNL     1      -1.685  -1.801  -0.593  0.00  0.00    +0.032 C 
ATOM     17  C   UNL     1      -3.014  -1.940  -1.383  0.00  0.00    +0.030 C 
ATOM     18  C   UNL     1      -2.543  -1.789  -2.845  0.00  0.00    +0.160 C 
ATOM     19  O   UNL     1      -1.144  -2.097  -2.885  0.00  0.00    -0.378 OA
ENDBRANCH  14  15
BRANCH  14  20
ATOM     20  N   UNL     1       0.737  -0.479  -1.482  0.00  0.00    +0.385 N 
ATOM     21  H   UNL     1       0.037  -0.076  -0.877  0.00  0.00    -0.085 HD
ATOM     22  H   UNL     1       0.534  -0.237  -2.440  0.00  0.00    -0.085 HD
BRANCH  20  24
ATOM     23  C   UNL     1       2.109   1.547  -1.384  0.00  0.00    -0.017 C 
ATOM     24  C   UNL     1       2.060   0.042  -1.114  0.00  0.00    -0.085 C 
ENDBRANCH  20  24
ENDBRANCH  14  20
ENDBRANCH   1  14
TORSDOF 4
