REMARK  Name = ZINC09484434
REMARK  9 active torsions:
REMARK  status: ('A' for Active; 'I' for Inactive)
REMARK    1  A    between atoms: C_1  and  C_2
REMARK    2  A    between atoms: C_5  and  O_25
REMARK    3  A    between atoms: C_6  and  N_8
REMARK    4  A    between atoms: C_9  and  C_11
REMARK    5  A    between atoms: C_12  and  C_24
REMARK    6  A    between atoms: C_17  and  C_22
REMARK    7  A    between atoms: C_17  and  C_23
REMARK    8  A    between atoms: C_19  and  O_21
REMARK    9  A    between atoms: O_25  and  C_26
REMARK                            x       y       z     vdW  Elec       q    Type
REMARK                         _______ _______ _______ _____ _____    ______ ____
ROOT
ATOM      1  C   UNL     1       1.976  -1.648  -2.646  0.00  0.00    +0.193 A 
ATOM      2  C   UNL     1       0.995  -1.723  -1.697  0.00  0.00    +0.006 A 
ATOM      3  C   UNL     1       0.897  -0.453  -1.125  0.00  0.00    +0.025 A 
ATOM      4  C   UNL     1       1.812   0.339  -1.737  0.00  0.00    +0.112 A 
ATOM      5  O   UNL     1       2.458  -0.386  -2.653  0.00  0.00    -0.454 OA
ATOM      6  C   UNL     1       2.024   1.795  -1.396  0.00  0.00    +0.081 C 
ATOM      7  C   UNL     1       1.378   2.073  -0.034  0.00  0.00    -0.025 C 
ATOM      8  C   UNL     1      -0.058   1.540  -0.029  0.00  0.00    +0.043 C 
ATOM      9  C   UNL     1      -0.032   0.006  -0.030  0.00  0.00    +0.149 C 
ATOM     10  C   UNL     1       1.362   3.581   0.224  0.00  0.00    +0.011 C 
ATOM     11  C   UNL     1       2.184   1.377   1.064  0.00  0.00    +0.011 C 
ATOM     12  C   UNL     1       0.178  -2.938  -1.338  0.00  0.00    +0.048 C 
ENDROOT
BRANCH   1  14
ATOM     13  N   UNL     1       3.409  -2.538  -4.406  0.00  0.00    -0.276 N 
ATOM     14  C   UNL     1       2.427  -2.746  -3.507  0.00  0.00    +0.284 C 
ATOM     15  O   UNL     1       1.915  -3.846  -3.409  0.00  0.00    -0.266 OA
ATOM     16  H   UNL     1       3.773  -1.647  -4.530  0.00  0.00    +0.155 HD
BRANCH  13  22
ATOM     17  C   UNL     1       2.619  -6.782  -6.759  0.00  0.00    +0.044 C 
ATOM     18  C   UNL     1       3.545  -5.678  -6.317  0.00  0.00    -0.048 A 
ATOM     19  C   UNL     1       4.884  -5.724  -6.658  0.00  0.00    +0.007 A 
ATOM     20  C   UNL     1       5.739  -4.715  -6.254  0.00  0.00    +0.048 A 
ATOM     21  C   UNL     1       5.254  -3.654  -5.506  0.00  0.00    +0.141 A 
ATOM     22  C   UNL     1       3.905  -3.607  -5.162  0.00  0.00    +0.076 A 
ATOM     23  C   UNL     1       3.054  -4.626  -5.566  0.00  0.00    +0.030 A 
BRANCH  21  24
ATOM     24  O   UNL     1       6.093  -2.661  -5.108  0.00  0.00    -0.493 OA
ATOM     25  C   UNL     1       7.464  -2.775  -5.497  0.00  0.00    +0.277 C 
ENDBRANCH  21  24
ENDBRANCH  13  22
ENDBRANCH   1  14
BRANCH   9  26
ATOM     26  O   UNL     1      -1.347  -0.497  -0.274  0.00  0.00    -0.387 OA
ATOM     27  H   UNL     1      -1.403  -1.462  -0.287  0.00  0.00    +0.210 HD
ENDBRANCH   9  26
TORSDOF 4
