REMARK  Name = ZINC27753440
REMARK  5 active torsions:
REMARK  status: ('A' for Active; 'I' for Inactive)
REMARK    1  A    between atoms: C_4  and  C_7
REMARK    2  A    between atoms: C_7  and  C_19
REMARK    3  A    between atoms: N_8  and  N_9
REMARK    4  A    between atoms: C_10  and  C_12
REMARK    5  A    between atoms: C_17  and  N_18
REMARK                            x       y       z     vdW  Elec       q    Type
REMARK                         _______ _______ _______ _____ _____    ______ ____
ROOT
ATOM      1  C   UNL     1       2.554   3.600   2.001  0.00  0.00    +0.129 C 
ATOM      2  N   UNL     1       3.666   2.986   1.693  0.00  0.00    -0.176 NA
ENDROOT
BRANCH   1   3
ATOM      3  C   UNL     1       2.596   4.956   2.585  0.00  0.00    +0.147 C 
ATOM      4  N   UNL     1       1.490   5.519   2.952  0.00  0.00    -0.323 N 
ATOM      5  C   UNL     1       1.417   6.840   3.559  0.00  0.00    +0.140 C 
ATOM      6  C   UNL     1       2.682   7.621   3.331  0.00  0.00    -0.005 A 
ATOM      7  C   UNL     1       2.697   8.989   3.531  0.00  0.00    +0.007 A 
ATOM      8  C   UNL     1       3.862   9.705   3.332  0.00  0.00    +0.000 A 
ATOM      9  C   UNL     1       5.019   9.059   2.933  0.00  0.00    +0.002 A 
ATOM     10  C   UNL     1       5.011   7.693   2.729  0.00  0.00    +0.028 A 
ATOM     11  C   UNL     1       3.841   6.973   2.926  0.00  0.00    +0.071 A 
ATOM     12  N   UNL     1       3.814   5.590   2.720  0.00  0.00    -0.230 NA
ATOM     13  H   UNL     1       0.570   4.940   2.783  0.00  0.00    +0.148 HD
ENDBRANCH   1   3
BRANCH   1  17
ATOM     14  C   UNL     1      -1.183   1.694   1.322  0.00  0.00    +0.000 A 
ATOM     15  C   UNL     1      -0.980   2.416   2.485  0.00  0.00    +0.001 A 
ATOM     16  C   UNL     1       0.232   3.035   2.712  0.00  0.00    +0.010 A 
ATOM     17  C   UNL     1       1.251   2.937   1.764  0.00  0.00    +0.005 A 
ATOM     18  C   UNL     1       1.037   2.213   0.591  0.00  0.00    +0.010 A 
ATOM     19  C   UNL     1      -0.179   1.598   0.376  0.00  0.00    +0.001 A 
ENDBRANCH   1  17
BRANCH   2  20
ATOM     20  N   UNL     1       3.635   1.647   1.281  0.00  0.00    -0.202 N 
ATOM     21  C   UNL     1       4.762   1.050   0.844  0.00  0.00    +0.265 C 
ATOM     22  O   UNL     1       5.806   1.674   0.807  0.00  0.00    -0.268 OA
ATOM     23  H   UNL     1       2.692   1.083   1.313  0.00  0.00    +0.178 HD
BRANCH  21  24
ATOM     24  C   UNL     1       4.730  -0.357   0.410  0.00  0.00    +0.059 A 
ATOM     25  C   UNL     1       3.515  -1.046   0.346  0.00  0.00    +0.015 A 
ATOM     26  C   UNL     1       3.492  -2.361  -0.065  0.00  0.00    +0.001 A 
ATOM     27  C   UNL     1       4.668  -3.009  -0.406  0.00  0.00    +0.002 A 
ATOM     28  C   UNL     1       5.876  -2.345  -0.343  0.00  0.00    +0.023 A 
ATOM     29  C   UNL     1       5.920  -1.017   0.064  0.00  0.00    +0.037 A 
BRANCH  29  30
ATOM     30  N   UNL     1       7.134  -0.347   0.129  0.00  0.00    -0.357 N 
ATOM     31  H   UNL     1       8.065  -0.867  -0.143  0.00  0.00    +0.142 HD
ATOM     32  H   UNL     1       7.166   0.704   0.452  0.00  0.00    +0.142 HD
ENDBRANCH  29  30
ENDBRANCH  21  24
ENDBRANCH   2  20
TORSDOF 5
