REMARK  Name = ZINC39727085
REMARK  7 active torsions:
REMARK  status: ('A' for Active; 'I' for Inactive)
REMARK    1  A    between atoms: C_1  and  C_2
REMARK    2  A    between atoms: C_4  and  C_12
REMARK    3  A    between atoms: C_12  and  C_14
REMARK    4  A    between atoms: C_14  and  C_16
REMARK    5  A    between atoms: C_14  and  O_17
REMARK    6  A    between atoms: O_17  and  C_18
REMARK    7  A    between atoms: C_18  and  C_20
REMARK                            x       y       z     vdW  Elec       q    Type
REMARK                         _______ _______ _______ _____ _____    ______ ____
ROOT
ATOM      1  C   UNL     1      -3.791  -0.971  -0.729  0.00  0.00    +0.244 C 
ATOM      2  C   UNL     1      -3.736  -2.472  -1.020  0.00  0.00    +0.061 C 
ENDROOT
BRANCH   1   3
ATOM      3  C   UNL     1      -2.427  -0.366  -0.945  0.00  0.00    +0.202 C 
ATOM      4  O   UNL     1      -2.208   0.301  -1.935  0.00  0.00    -0.288 OA
BRANCH   3   7
ATOM      5  C   UNL     1       0.008   1.478  -0.057  0.00  0.00    +0.035 C 
ATOM      6  C   UNL     1       0.013  -0.051  -0.046  0.00  0.00    +0.111 C 
ATOM      7  C   UNL     1      -1.405  -0.577   0.005  0.00  0.00    +0.030 C 
ATOM      8  C   UNL     1      -1.488  -1.306   1.177  0.00  0.00    +0.007 A 
ATOM      9  C   UNL     1      -2.539  -2.034   1.784  0.00  0.00    +0.010 A 
ATOM     10  C   UNL     1      -2.337  -2.667   2.962  0.00  0.00    +0.001 A 
ATOM     11  C   UNL     1      -1.104  -2.636   3.632  0.00  0.00    +0.002 A 
ATOM     12  C   UNL     1      -0.038  -1.971   3.138  0.00  0.00    +0.026 A 
ATOM     13  C   UNL     1      -0.172  -1.254   1.859  0.00  0.00    +0.043 A 
ATOM     14  N   UNL     1       0.675  -0.546   1.165  0.00  0.00    -0.377 N 
ATOM     15  H   UNL     1       1.597  -0.372   1.412  0.00  0.00    +0.160 HD
ENDBRANCH   3   7
ENDBRANCH   1   3
BRANCH   1  16
ATOM     16  O   UNL     1      -4.731  -0.350  -1.609  0.00  0.00    -0.450 OA
BRANCH  16  17
ATOM     17  C   UNL     1      -6.008  -0.271  -1.183  0.00  0.00    +0.337 C 
ATOM     18  O   UNL     1      -6.314  -0.718  -0.096  0.00  0.00    -0.245 OA
BRANCH  17  19
ATOM     19  C   UNL     1      -7.034   0.357  -2.038  0.00  0.00    +0.054 C 
ATOM     20  C   UNL     1      -6.700   0.982  -3.222  0.00  0.00    +0.007 A 
ATOM     21  C   UNL     1      -5.311   1.045  -3.676  0.00  0.00    +0.010 A 
ATOM     22  C   UNL     1      -5.034   1.670  -4.846  0.00  0.00    +0.001 A 
ATOM     23  C   UNL     1      -6.044   2.252  -5.622  0.00  0.00    +0.002 A 
ATOM     24  C   UNL     1      -7.350   2.230  -5.261  0.00  0.00    +0.024 A 
ATOM     25  C   UNL     1      -7.749   1.604  -4.059  0.00  0.00    +0.041 A 
ATOM     26  N   UNL     1      -9.027   1.586  -3.712  0.00  0.00    -0.285 N 
ATOM     27  C   UNL     1      -9.472   1.017  -2.597  0.00  0.00    +0.222 C 
ATOM     28  O   UNL     1     -10.659   1.037  -2.337  0.00  0.00    -0.275 OA
ATOM     29  C   UNL     1      -8.502   0.338  -1.657  0.00  0.00    +0.139 C 
ATOM     30  H   UNL     1      -9.670   2.011  -4.300  0.00  0.00    +0.155 HD
ENDBRANCH  17  19
ENDBRANCH  16  17
ENDBRANCH   1  16
TORSDOF 5
