REMARK  Name = ZINC02203812
REMARK  6 active torsions:
REMARK  status: ('A' for Active; 'I' for Inactive)
REMARK    1  A    between atoms: C_1  and  N_2
REMARK    2  A    between atoms: N_11  and  C_23
REMARK    3  A    between atoms: C_17  and  C_20
REMARK    4  A    between atoms: C_23  and  C_24
REMARK    5  A    between atoms: C_24  and  S_25
REMARK    6  A    between atoms: S_25  and  C_26
REMARK                            x       y       z     vdW  Elec       q    Type
REMARK                         _______ _______ _______ _____ _____    ______ ____
ROOT
ATOM      1  C   UNL     1       3.620  -0.951   3.458  0.00  0.00    +0.155 C 
ATOM      2  N   UNL     1       2.679  -0.179   4.274  0.00  0.00    -0.280 N 
ATOM      3  C   UNL     1       1.574   0.413   3.683  0.00  0.00    +0.170 A 
ATOM      4  C   UNL     1       0.697   1.140   4.481  0.00  0.00    +0.153 A 
ATOM      5  C   UNL     1       0.956   1.254   5.858  0.00  0.00    +0.280 A 
ATOM      6  O   UNL     1       0.201   1.887   6.576  0.00  0.00    -0.265 OA
ATOM      7  N   UNL     1       2.049   0.657   6.376  0.00  0.00    -0.273 N 
ATOM      8  H   UNL     1       2.236   0.737   7.356  0.00  0.00    +0.173 HD
ATOM      9  C   UNL     1       2.890  -0.044   5.597  0.00  0.00    +0.331 A 
ATOM     10  O   UNL     1       3.865  -0.569   6.098  0.00  0.00    -0.246 OA
ATOM     11  N   UNL     1      -0.300   1.610   3.637  0.00  0.00    -0.305 N 
ATOM     12  C   UNL     1      -0.000   1.163   2.389  0.00  0.00    +0.201 A 
ATOM     13  N   UNL     1       1.108   0.452   2.434  0.00  0.00    -0.196 NA
ATOM     14  N   UNL     1      -0.742   1.409   1.256  0.00  0.00    -0.301 N 
ATOM     15  C   UNL     1       0.029   2.194   0.283  0.00  0.00    +0.108 C 
ATOM     16  C   UNL     1      -0.871   2.572  -0.896  0.00  0.00    +0.032 C 
ATOM     17  C   UNL     1      -1.408   1.296  -1.551  0.00  0.00    +0.078 C 
ATOM     18  C   UNL     1      -2.165   0.474  -0.504  0.00  0.00    +0.032 C 
ATOM     19  C   UNL     1      -1.228   0.157   0.663  0.00  0.00    +0.108 C 
ENDROOT
BRANCH  17  20
ATOM     20  C   UNL     1      -2.341   1.663  -2.676  0.00  0.00    +0.214 C 
ATOM     21  O   UNL     1      -2.556   2.829  -2.930  0.00  0.00    -0.276 OA
ATOM     22  N   UNL     1      -2.936   0.695  -3.400  0.00  0.00    -0.329 N 
ATOM     23  H   UNL     1      -2.764  -0.238  -3.197  0.00  0.00    +0.145 HD
ATOM     24  H   UNL     1      -3.537   0.930  -4.125  0.00  0.00    +0.145 HD
ENDBRANCH  17  20
BRANCH  11  25
ATOM     25  C   UNL     1      -1.453   2.431   4.018  0.00  0.00    +0.136 C 
BRANCH  25  26
ATOM     26  C   UNL     1      -2.611   1.521   4.433  0.00  0.00    +0.100 C 
BRANCH  26  27
ATOM     27  S   UNL     1      -4.071   2.530   4.791  0.00  0.00    -0.065 S 
BRANCH  27  28
ATOM     28  C   UNL     1      -5.216   1.264   5.230  0.00  0.00    +0.258 A 
ATOM     29  N   UNL     1      -4.950  -0.018   5.243  0.00  0.00    -0.203 NA
ATOM     30  C   UNL     1      -6.066  -0.691   5.633  0.00  0.00    +0.110 A 
ATOM     31  C   UNL     1      -6.359  -2.042   5.824  0.00  0.00    +0.031 A 
ATOM     32  C   UNL     1      -7.622  -2.418   6.228  0.00  0.00    +0.002 A 
ATOM     33  C   UNL     1      -8.601  -1.462   6.447  0.00  0.00    +0.004 A 
ATOM     34  C   UNL     1      -8.325  -0.122   6.263  0.00  0.00    +0.048 A 
ATOM     35  C   UNL     1      -7.061   0.273   5.856  0.00  0.00    +0.156 A 
ATOM     36  O   UNL     1      -6.494   1.474   5.595  0.00  0.00    -0.431 OA
ENDBRANCH  27  28
ENDBRANCH  26  27
ENDBRANCH  25  26
ENDBRANCH  11  25
TORSDOF 5
