REMARK  Name = ZINC41545887
REMARK  5 active torsions:
REMARK  status: ('A' for Active; 'I' for Inactive)
REMARK    1  A    between atoms: C_1  and  C_2
REMARK    2  A    between atoms: C_2  and  C_13
REMARK    3  A    between atoms: N_15  and  C_16
REMARK    4  A    between atoms: N_19  and  C_21
REMARK    5  A    between atoms: C_21  and  C_22
REMARK                            x       y       z     vdW  Elec       q    Type
REMARK                         _______ _______ _______ _____ _____    ______ ____
ROOT
ATOM      1  C   UNL     1       0.709  -0.489  -1.237  0.00  0.00    +0.270 C 
ATOM      2  O   UNL     1       0.070  -0.781  -2.226  0.00  0.00    -0.271 OA
ATOM      3  N   UNL     1       2.053  -0.599  -1.247  0.00  0.00    -0.279 N 
ATOM      4  H   UNL     1       2.564  -0.366  -0.456  0.00  0.00    +0.155 HD
ENDROOT
BRANCH   1   6
ATOM      5  C   UNL     1      -0.019   1.526   0.010  0.00  0.00    +0.076 C 
ATOM      6  C   UNL     1       0.002  -0.004   0.002  0.00  0.00    +0.258 C 
ATOM      7  C   UNL     1      -1.413  -0.525   0.008  0.00  0.00    +0.270 C 
ATOM      8  O   UNL     1      -2.310   0.144  -0.460  0.00  0.00    -0.271 OA
ATOM      9  N   UNL     1      -1.677  -1.739   0.535  0.00  0.00    -0.279 N 
ATOM     10  C   UNL     1      -0.651  -2.441   1.182  0.00  0.00    +0.076 A 
ATOM     11  C   UNL     1      -0.820  -3.772   1.531  0.00  0.00    +0.027 A 
ATOM     12  C   UNL     1       0.207  -4.454   2.158  0.00  0.00    +0.002 A 
ATOM     13  C   UNL     1       1.400  -3.813   2.436  0.00  0.00    +0.004 A 
ATOM     14  C   UNL     1       1.573  -2.484   2.095  0.00  0.00    +0.047 A 
ATOM     15  C   UNL     1       0.547  -1.792   1.472  0.00  0.00    +0.144 A 
ATOM     16  O   UNL     1       0.694  -0.477   1.160  0.00  0.00    -0.465 OA
ATOM     17  H   UNL     1      -2.566  -2.121   0.467  0.00  0.00    +0.155 HD
ENDBRANCH   1   6
BRANCH   3  18
ATOM     18  C   UNL     1       2.713  -1.052  -2.404  0.00  0.00    +0.071 A 
ATOM     19  C   UNL     1       2.104  -1.416  -3.614  0.00  0.00    +0.157 A 
ATOM     20  N   UNL     1       3.039  -1.782  -4.452  0.00  0.00    -0.177 NA
ATOM     21  N   UNL     1       4.278  -1.666  -3.809  0.00  0.00    -0.265 N 
ATOM     22  C   UNL     1       4.054  -1.209  -2.550  0.00  0.00    +0.132 A 
BRANCH  21  23
ATOM     23  C   UNL     1       5.585  -1.976  -4.394  0.00  0.00    +0.180 C 
BRANCH  23  24
ATOM     24  C   UNL     1       5.579  -3.389  -4.917  0.00  0.00    -0.008 A 
ATOM     25  C   UNL     1       6.050  -4.421  -4.127  0.00  0.00    +0.007 A 
ATOM     26  C   UNL     1       6.044  -5.718  -4.606  0.00  0.00    +0.000 A 
ATOM     27  C   UNL     1       5.567  -5.983  -5.877  0.00  0.00    +0.001 A 
ATOM     28  C   UNL     1       5.096  -4.952  -6.668  0.00  0.00    +0.020 A 
ATOM     29  C   UNL     1       5.097  -3.655  -6.186  0.00  0.00    +0.046 A 
ATOM     30 CL   UNL     1       4.500  -2.360  -7.176  0.00  0.00    -0.083 Cl
ENDBRANCH  23  24
ENDBRANCH  21  23
ENDBRANCH   3  18
TORSDOF 4
