REMARK  Name = ZINC20566231
REMARK  6 active torsions:
REMARK  status: ('A' for Active; 'I' for Inactive)
REMARK    1  A    between atoms: C_1  and  C_2
REMARK    2  A    between atoms: C_2  and  C_3
REMARK    3  A    between atoms: C_2  and  C_4
REMARK    4  A    between atoms: C_2  and  N_5
REMARK    5  A    between atoms: C_10  and  C_28
REMARK    6  A    between atoms: C_28  and  C_29
REMARK                            x       y       z     vdW  Elec       q    Type
REMARK                         _______ _______ _______ _____ _____    ______ ____
ROOT
ATOM      1  N   UNL     1       0.688  -0.476  -1.203  0.00  0.00    -0.236 N 
ATOM      2  C   UNL     1       0.091  -1.247  -2.120  0.00  0.00    +0.228 C 
ATOM      3  O   UNL     1      -1.055  -1.639  -2.067  0.00  0.00    -0.275 OA
ATOM      4  C   UNL     1       1.068  -1.552  -3.233  0.00  0.00    +0.107 C 
ATOM      5  C   UNL     1       1.417  -3.055  -3.208  0.00  0.00    +0.076 C 
ATOM      6  N   UNL     1       2.550  -3.168  -2.251  0.00  0.00    -0.295 NA
ATOM      7  C   UNL     1       3.365  -1.968  -2.514  0.00  0.00    +0.136 C 
ATOM      8  C   UNL     1       2.363  -0.818  -2.785  0.00  0.00    +0.122 C 
ATOM      9  C   UNL     1       1.960  -0.168  -1.480  0.00  0.00    +0.229 C 
ATOM     10  O   UNL     1       2.679   0.522  -0.790  0.00  0.00    -0.275 OA
ATOM     11  C   UNL     1       4.273  -1.651  -1.360  0.00  0.00    +0.005 A 
ATOM     12  C   UNL     1       4.053  -1.363  -0.032  0.00  0.00    +0.027 A 
ATOM     13  C   UNL     1       5.124  -1.108   0.808  0.00  0.00    +0.041 A 
ATOM     14  C   UNL     1       6.414  -1.144   0.309  0.00  0.00    +0.022 A 
ATOM     15  C   UNL     1       6.638  -1.432  -1.021  0.00  0.00    +0.025 A 
ATOM     16  C   UNL     1       5.566  -1.689  -1.873  0.00  0.00    +0.039 A 
ATOM     17  N   UNL     1       5.537  -1.998  -3.235  0.00  0.00    -0.283 N 
ATOM     18  C   UNL     1       4.282  -2.175  -3.689  0.00  0.00    +0.243 C 
ATOM     19  O   UNL     1       3.954  -2.449  -4.824  0.00  0.00    -0.273 OA
ATOM     20 CL   UNL     1       4.848  -0.744   2.483  0.00  0.00    -0.084 Cl
ATOM     21  H   UNL     1       2.218  -3.178  -1.298  0.00  0.00    +0.124 HD
ATOM     22  H   UNL     1       6.330  -2.075  -3.789  0.00  0.00    +0.155 HD
ENDROOT
BRANCH   1  24
ATOM     23  C   UNL     1      -0.019   1.526   0.010  0.00  0.00    +0.031 C 
ATOM     24  C   UNL     1       0.002  -0.004   0.002  0.00  0.00    +0.036 C 
ATOM     25  C   UNL     1       0.742  -0.511   1.242  0.00  0.00    +0.031 C 
ATOM     26  C   UNL     1      -1.433  -0.534   0.013  0.00  0.00    +0.031 C 
ENDBRANCH   1  24
BRANCH   5  27
ATOM     27  C   UNL     1       0.220  -3.871  -2.717  0.00  0.00    +0.115 C 
BRANCH  27  28
ATOM     28  C   UNL     1       0.539  -5.341  -2.817  0.00  0.00    +0.212 C 
ATOM     29  O   UNL     1       1.618  -5.700  -3.238  0.00  0.00    -0.276 OA
ATOM     30  N   UNL     1      -0.375  -6.256  -2.437  0.00  0.00    -0.329 N 
ATOM     31  H   UNL     1      -1.238  -5.969  -2.100  0.00  0.00    +0.145 HD
ATOM     32  H   UNL     1      -0.169  -7.202  -2.501  0.00  0.00    +0.145 HD
ENDBRANCH  27  28
ENDBRANCH   5  27
TORSDOF 3
