REMARK  Name = ZINC41302295
REMARK  5 active torsions:
REMARK  status: ('A' for Active; 'I' for Inactive)
REMARK    1  A    between atoms: C_1  and  C_2
REMARK    2  A    between atoms: C_2  and  C_4
REMARK    3  A    between atoms: C_2  and  N_12
REMARK    4  A    between atoms: C_13  and  C_15
REMARK    5  A    between atoms: C_15  and  N_16
REMARK                            x       y       z     vdW  Elec       q    Type
REMARK                         _______ _______ _______ _____ _____    ______ ____
ROOT
ATOM      1  N   UNL     1       0.688  -0.476  -1.203  0.00  0.00    -0.307 N 
ATOM      2  C   UNL     1       0.006  -0.608  -2.358  0.00  0.00    +0.231 C 
ATOM      3  O   UNL     1      -1.175  -0.336  -2.400  0.00  0.00    -0.274 OA
ATOM      4  H   UNL     1       1.632  -0.695  -1.170  0.00  0.00    +0.149 HD
ENDROOT
BRANCH   1   6
ATOM      5  C   UNL     1      -0.019   1.526   0.010  0.00  0.00    +0.033 C 
ATOM      6  C   UNL     1       0.002  -0.004   0.002  0.00  0.00    +0.103 C 
BRANCH   6   7
ATOM      7  C   UNL     1       0.731  -0.503   1.223  0.00  0.00    +0.008 A 
ATOM      8  C   UNL     1       2.077  -0.808   1.147  0.00  0.00    +0.011 A 
ATOM      9  C   UNL     1       2.747  -1.265   2.266  0.00  0.00    +0.039 A 
ATOM     10  C   UNL     1       2.070  -1.419   3.465  0.00  0.00    +0.126 A 
ATOM     11  C   UNL     1       0.722  -1.115   3.541  0.00  0.00    +0.077 A 
ATOM     12  C   UNL     1       0.053  -0.651   2.421  0.00  0.00    +0.131 A 
ATOM     13  F   UNL     1      -1.261  -0.348   2.496  0.00  0.00    -0.205 F 
ATOM     14  F   UNL     1       2.725  -1.868   4.558  0.00  0.00    -0.205 F 
ENDBRANCH   6   7
ENDBRANCH   1   6
BRANCH   2  15
ATOM     15  C   UNL     1       0.712  -1.094  -3.598  0.00  0.00    +0.201 C 
BRANCH  15  16
ATOM     16  N   UNL     1      -0.240  -1.150  -4.711  0.00  0.00    -0.291 N 
ATOM     17  C   UNL     1       0.170  -1.560  -5.928  0.00  0.00    +0.297 C 
ATOM     18  O   UNL     1       1.329  -1.882  -6.103  0.00  0.00    -0.253 OA
ATOM     19  N   UNL     1      -0.705  -1.611  -6.952  0.00  0.00    -0.313 N 
ATOM     20  H   UNL     1      -1.165  -0.893  -4.572  0.00  0.00    +0.151 HD
ATOM     21  H   UNL     1      -1.630  -1.354  -6.813  0.00  0.00    +0.146 HD
ATOM     22  H   UNL     1      -0.410  -1.906  -7.828  0.00  0.00    +0.146 HD
ENDBRANCH  15  16
ENDBRANCH   2  15
TORSDOF 4
