REMARK  Name = ZINC45793961
REMARK  9 active torsions:
REMARK  status: ('A' for Active; 'I' for Inactive)
REMARK    1  A    between atoms: C_1  and  C_2
REMARK    2  A    between atoms: C_5  and  S_8
REMARK    3  A    between atoms: S_8  and  C_9
REMARK    4  A    between atoms: C_9  and  C_11
REMARK    5  A    between atoms: C_9  and  C_12
REMARK    6  A    between atoms: N_17  and  C_18
REMARK    7  A    between atoms: C_18  and  C_19
REMARK    8  A    between atoms: C_18  and  C_20
REMARK    9  A    between atoms: C_18  and  C_21
REMARK                            x       y       z     vdW  Elec       q    Type
REMARK                         _______ _______ _______ _____ _____    ______ ____
ROOT
ATOM      1  C   UNL     1       0.254  -6.478   1.882  0.00  0.00    +0.233 C 
ATOM      2  O   UNL     1       0.624  -7.176   0.962  0.00  0.00    -0.274 OA
ATOM      3  N   UNL     1      -0.137  -7.042   3.042  0.00  0.00    -0.239 N 
ATOM      4  C   UNL     1      -0.116  -8.383   3.180  0.00  0.00    +0.306 C 
ATOM      5  O   UNL     1       0.255  -9.083   2.258  0.00  0.00    -0.252 OA
ATOM      6  N   UNL     1      -0.507  -8.947   4.340  0.00  0.00    -0.294 N 
ATOM      7  H   UNL     1      -0.433  -6.484   3.777  0.00  0.00    +0.159 HD
ATOM      8  H   UNL     1      -0.803  -8.388   5.075  0.00  0.00    +0.151 HD
ENDROOT
BRANCH   6   9
ATOM      9  C   UNL     1      -0.484 -10.404   4.490  0.00  0.00    +0.028 C 
ATOM     10  C   UNL     1       0.945 -10.915   4.293  0.00  0.00    +0.031 C 
ATOM     11  C   UNL     1      -0.972 -10.780   5.890  0.00  0.00    +0.031 C 
ATOM     12  C   UNL     1      -1.401 -11.039   3.442  0.00  0.00    +0.031 C 
ENDBRANCH   6   9
BRANCH   1  13
ATOM     13  C   UNL     1       0.230  -4.979   1.727  0.00  0.00    +0.134 C 
ATOM     14  C   UNL     1       1.528  -4.389   2.282  0.00  0.00    +0.029 C 
BRANCH  13  15
ATOM     15  S   UNL     1       0.075  -4.554  -0.029  0.00  0.00    -0.113 S 
BRANCH  15  20
ATOM     16  C   UNL     1      -0.708   1.431  -0.024  0.00  0.00    +0.044 C 
ATOM     17  C   UNL     1      -0.513  -0.064  -0.025  0.00  0.00    -0.050 A 
ATOM     18  C   UNL     1       0.752  -0.594  -0.201  0.00  0.00    +0.004 A 
ATOM     19  C   UNL     1       0.935  -1.962  -0.203  0.00  0.00    +0.015 A 
ATOM     20  C   UNL     1      -0.154  -2.807  -0.027  0.00  0.00    +0.009 A 
ATOM     21  C   UNL     1      -1.424  -2.271   0.150  0.00  0.00    +0.015 A 
ATOM     22  C   UNL     1      -1.598  -0.901   0.156  0.00  0.00    +0.004 A 
ENDBRANCH  15  20
ENDBRANCH  13  15
ENDBRANCH   1  13
TORSDOF 4
