REMARK  Name = ZINC06134769
REMARK  14 active torsions:
REMARK  status: ('A' for Active; 'I' for Inactive)
REMARK    1  A    between atoms: C_1  and  C_2
REMARK    2  A    between atoms: C_2  and  C_3
REMARK    3  A    between atoms: C_6  and  N_9
REMARK    4  A    between atoms: N_9  and  C_10
REMARK    5  A    between atoms: C_10  and  C_12
REMARK    6  A    between atoms: C_10  and  C_18
REMARK    7  A    between atoms: N_20  and  C_21
REMARK    8  A    between atoms: C_21  and  C_22
REMARK    9  A    between atoms: C_22  and  C_23
REMARK   10  A    between atoms: C_23  and  C_24
REMARK   11  A    between atoms: C_23  and  C_25
REMARK   12  A    between atoms: C_26  and  C_28
REMARK   13  A    between atoms: C_29  and  N_36
REMARK   14  A    between atoms: C_30  and  C_33
REMARK                            x       y       z     vdW  Elec       q    Type
REMARK                         _______ _______ _______ _____ _____    ______ ____
ROOT
ATOM      1  N   UNL     1      -2.142   2.800   4.331  0.00  0.00    -0.251 N 
ATOM      2  C   UNL     1      -3.476   2.655   4.200  0.00  0.00    +0.262 C 
ATOM      3  O   UNL     1      -3.970   2.534   3.094  0.00  0.00    -0.269 OA
ENDROOT
BRANCH   1   7
ATOM      4  C   UNL     1       0.270   3.019   0.942  0.00  0.00    -0.048 A 
ATOM      5  C   UNL     1       0.816   3.242   2.193  0.00  0.00    +0.005 A 
ATOM      6  C   UNL     1       0.018   3.176   3.318  0.00  0.00    +0.024 A 
ATOM      7  C   UNL     1      -1.333   2.874   3.193  0.00  0.00    +0.038 A 
ATOM      8  C   UNL     1      -1.876   2.645   1.936  0.00  0.00    +0.024 A 
ATOM      9  C   UNL     1      -1.073   2.718   0.814  0.00  0.00    +0.005 A 
BRANCH   4  11
ATOM     10  C   UNL     1       1.136   4.529  -0.824  0.00  0.00    +0.009 C 
ATOM     11  C   UNL     1       1.143   3.098  -0.283  0.00  0.00    +0.032 C 
ENDBRANCH   4  11
ENDBRANCH   1   7
BRANCH   2  12
ATOM     12  C   UNL     1      -4.331   2.642   5.389  0.00  0.00    +0.116 A 
ATOM     13  C   UNL     1      -5.430   1.832   5.680  0.00  0.00    +0.076 A 
ATOM     14  C   UNL     1      -5.992   2.121   6.924  0.00  0.00    +0.155 A 
ATOM     15  N   UNL     1      -5.465   3.072   7.662  0.00  0.00    -0.203 NA
ATOM     16  S   UNL     1      -4.242   3.651   6.854  0.00  0.00    +0.019 S 
BRANCH  14  17
ATOM     17  C   UNL     1      -7.164   1.368   7.405  0.00  0.00    +0.262 C 
ATOM     18  O   UNL     1      -7.647   0.489   6.716  0.00  0.00    -0.269 OA
ATOM     19  N   UNL     1      -7.701   1.652   8.608  0.00  0.00    -0.324 N 
ATOM     20  H   UNL     1      -7.316   2.353   9.157  0.00  0.00    +0.145 HD
ATOM     21  H   UNL     1      -8.473   1.157   8.924  0.00  0.00    +0.145 HD
ENDBRANCH  14  17
BRANCH  13  22
ATOM     22  N   UNL     1      -5.911   0.849   4.826  0.00  0.00    -0.355 N 
ATOM     23  H   UNL     1      -5.478   0.693   3.972  0.00  0.00    +0.142 HD
ATOM     24  H   UNL     1      -6.680   0.317   5.084  0.00  0.00    +0.142 HD
ENDBRANCH  13  22
ENDBRANCH   2  12
BRANCH   1  25
ATOM     25  C   UNL     1      -1.541   2.880   5.664  0.00  0.00    +0.198 C 
BRANCH  25  26
ATOM     26  C   UNL     1      -0.467   1.832   5.795  0.00  0.00    -0.015 A 
ATOM     27  C   UNL     1      -0.120   1.033   4.716  0.00  0.00    +0.025 A 
ATOM     28  C   UNL     1       0.873   0.085   4.873  0.00  0.00    +0.111 A 
ATOM     29  N   UNL     1       1.481  -0.071   6.033  0.00  0.00    -0.263 NA
ATOM     30  C   UNL     1       1.173   0.667   7.081  0.00  0.00    +0.111 A 
ATOM     31  C   UNL     1       0.194   1.639   6.999  0.00  0.00    +0.025 A 
ENDBRANCH  25  26
BRANCH  25  32
ATOM     32  C   UNL     1      -0.936   4.247   5.861  0.00  0.00    +0.238 C 
ATOM     33  O   UNL     1      -1.001   5.072   4.975  0.00  0.00    -0.273 OA
ATOM     34  N   UNL     1      -0.324   4.551   7.022  0.00  0.00    -0.313 N 
ATOM     35  H   UNL     1      -0.272   3.891   7.731  0.00  0.00    +0.149 HD
BRANCH  34  36
ATOM     36  C   UNL     1       0.264   5.880   7.214  0.00  0.00    +0.104 C 
BRANCH  36  37
ATOM     37  C   UNL     1       0.892   5.963   8.606  0.00  0.00    +0.022 C 
BRANCH  37  38
ATOM     38  C   UNL     1       1.506   7.351   8.806  0.00  0.00    -0.016 C 
ATOM     39  C   UNL     1       2.023   7.478  10.241  0.00  0.00    +0.007 C 
ATOM     40  C   UNL     1       2.666   7.540   7.827  0.00  0.00    +0.007 C 
ENDBRANCH  37  38
ENDBRANCH  36  37
ENDBRANCH  34  36
ENDBRANCH  25  32
ENDBRANCH   1  25
TORSDOF 11
