REMARK  Name = ZINC01175688
REMARK  5 active torsions:
REMARK  status: ('A' for Active; 'I' for Inactive)
REMARK    1  A    between atoms: C_10  and  C_11
REMARK    2  A    between atoms: C_18  and  N_34
REMARK    3  A    between atoms: C_19  and  C_32
REMARK    4  A    between atoms: C_20  and  C_22
REMARK    5  A    between atoms: C_26  and  C_28
REMARK                            x       y       z     vdW  Elec       q    Type
REMARK                         _______ _______ _______ _____ _____    ______ ____
ROOT
ATOM      1  C   UNL     1       5.236   0.333  -0.195  0.00  0.00    +0.101 A 
ATOM      2  C   UNL     1       6.431  -0.372  -0.019  0.00  0.00    +0.054 A 
ATOM      3  C   UNL     1       7.456   0.529  -0.013  0.00  0.00    +0.223 A 
ATOM      4  N   UNL     1       6.924   1.758  -0.181  0.00  0.00    -0.246 N 
ATOM      5  H   UNL     1       7.417   2.592  -0.218  0.00  0.00    +0.192 HD
ATOM      6  N   UNL     1       5.532   1.615  -0.298  0.00  0.00    -0.171 NA
ATOM      7  O   UNL     1       8.752   0.162   0.143  0.00  0.00    -0.423 OA
ATOM      8  C   UNL     1       9.000  -1.093   0.568  0.00  0.00    +0.200 C 
ATOM      9  C   UNL     1       8.070  -2.075   0.596  0.00  0.00    +0.098 C 
ATOM     10  C   UNL     1       6.649  -1.854   0.142  0.00  0.00    +0.102 C 
ENDROOT
BRANCH   1  20
ATOM     11  C   UNL     1       1.209   0.803  -3.311  0.00  0.00    +0.001 A 
ATOM     12  C   UNL     1       2.481   1.369  -3.268  0.00  0.00    +0.001 A 
ATOM     13  C   UNL     1       3.363   1.037  -2.284  0.00  0.00    +0.009 A 
ATOM     14  C   UNL     1       2.988   0.112  -1.299  0.00  0.00    -0.009 A 
ATOM     15  C   UNL     1       1.695  -0.464  -1.341  0.00  0.00    -0.017 A 
ATOM     16  C   UNL     1       0.812  -0.098  -2.371  0.00  0.00    +0.008 A 
ATOM     17  C   UNL     1       1.318  -1.391  -0.353  0.00  0.00    +0.008 A 
ATOM     18  C   UNL     1       2.192  -1.728   0.635  0.00  0.00    +0.001 A 
ATOM     19  C   UNL     1       3.465  -1.171   0.691  0.00  0.00    +0.011 A 
ATOM     20  C   UNL     1       3.877  -0.256  -0.262  0.00  0.00    +0.010 A 
ENDBRANCH   1  20
BRANCH  10  21
ATOM     21  C   UNL     1       6.423  -2.548  -1.176  0.00  0.00    -0.034 A 
ATOM     22  C   UNL     1       7.152  -2.173  -2.289  0.00  0.00    +0.004 A 
ATOM     23  C   UNL     1       6.945  -2.809  -3.498  0.00  0.00    +0.001 A 
ATOM     24  C   UNL     1       6.008  -3.821  -3.595  0.00  0.00    +0.012 A 
ATOM     25  C   UNL     1       5.279  -4.197  -2.482  0.00  0.00    +0.055 A 
ATOM     26  C   UNL     1       5.490  -3.564  -1.272  0.00  0.00    +0.017 A 
BRANCH  25  27
ATOM     27  C   UNL     1       4.258  -5.300  -2.588  0.00  0.00    +0.417 C 
ATOM     28  F   UNL     1       4.229  -5.785  -3.900  0.00  0.00    -0.166 F 
ATOM     29  F   UNL     1       4.601  -6.338  -1.715  0.00  0.00    -0.166 F 
ATOM     30  F   UNL     1       2.996  -4.802  -2.247  0.00  0.00    -0.166 F 
ENDBRANCH  25  27
ENDBRANCH  10  21
BRANCH   8  31
ATOM     31  N   UNL     1      10.269  -1.393   0.998  0.00  0.00    -0.328 N 
ATOM     32  H   UNL     1      10.957  -0.709   0.990  0.00  0.00    +0.145 HD
ATOM     33  H   UNL     1      10.477  -2.287   1.310  0.00  0.00    +0.145 HD
ENDBRANCH   8  31
BRANCH   9  34
ATOM     34  C   UNL     1       8.450  -3.370   1.073  0.00  0.00    +0.101 C 
ATOM     35  N   UNL     1       8.750  -4.399   1.452  0.00  0.00    -0.191 NA
ENDBRANCH   9  34
TORSDOF 5
