REMARK  Name = ZINC06506382
REMARK  6 active torsions:
REMARK  status: ('A' for Active; 'I' for Inactive)
REMARK    1  A    between atoms: C_1  and  C_2
REMARK    2  A    between atoms: C_8  and  C_16
REMARK    3  A    between atoms: C_12  and  C_13
REMARK    4  A    between atoms: C_13  and  C_15
REMARK    5  A    between atoms: C_16  and  S_17
REMARK    6  A    between atoms: S_17  and  C_18
REMARK                            x       y       z     vdW  Elec       q    Type
REMARK                         _______ _______ _______ _____ _____    ______ ____
ROOT
ATOM      1  C   UNL     1      -0.018   1.503   0.010  0.00  0.00    +0.046 C 
ATOM      2  C   UNL     1       0.002  -0.004   0.002  0.00  0.00    -0.018 A 
ATOM      3  C   UNL     1       0.005  -0.700  -1.206  0.00  0.00    +0.076 A 
ATOM      4  C   UNL     1      -0.008  -0.169  -2.590  0.00  0.00    +0.260 A 
ATOM      5  O   UNL     1      -0.025   1.031  -2.798  0.00  0.00    -0.267 OA
ATOM      6  N   UNL     1      -0.001  -1.047  -3.611  0.00  0.00    -0.310 N 
ATOM      7  H   UNL     1      -0.010  -0.716  -4.522  0.00  0.00    +0.170 HD
ATOM      8  C   UNL     1       0.018  -2.385  -3.390  0.00  0.00    +0.121 A 
ATOM      9  N   UNL     1       0.030  -2.886  -2.185  0.00  0.00    -0.226 NA
ATOM     10  C   UNL     1       0.025  -2.111  -1.108  0.00  0.00    +0.116 A 
ATOM     11  S   UNL     1       0.037  -2.404   0.642  0.00  0.00    -0.065 S 
ATOM     12  C   UNL     1       0.023  -0.705   1.190  0.00  0.00    +0.060 A 
ENDROOT
BRANCH  12  13
ATOM     13  C   UNL     1       0.030  -0.203   2.510  0.00  0.00    +0.167 C 
ATOM     14  O   UNL     1       0.017   0.995   2.705  0.00  0.00    -0.292 OA
ATOM     15  C   UNL     1       0.055  -1.156   3.678  0.00  0.00    +0.092 C 
ENDBRANCH  12  13
BRANCH   8  16
ATOM     16  C   UNL     1       0.024  -3.320  -4.572  0.00  0.00    +0.151 C 
BRANCH  16  17
ATOM     17  S   UNL     1       0.051  -5.036  -3.984  0.00  0.00    -0.077 S 
BRANCH  17  18
ATOM     18  C   UNL     1       0.056  -5.994  -5.463  0.00  0.00    +0.210 A 
ATOM     19  N   UNL     1       0.073  -7.330  -5.524  0.00  0.00    -0.188 NA
ATOM     20  H   UNL     1       0.047  -6.581  -8.527  0.00  0.00    +0.192 HD
ATOM     21  C   UNL     1       0.072  -7.715  -6.783  0.00  0.00    +0.209 A 
ATOM     22  N   UNL     1       0.052  -6.610  -7.557  0.00  0.00    -0.246 N 
ATOM     23  N   UNL     1       0.037  -5.512  -6.683  0.00  0.00    -0.144 NA
ATOM     24  N   UNL     1       0.087  -9.023  -7.233  0.00  0.00    -0.328 N 
ATOM     25  H   UNL     1       0.101  -9.755  -6.596  0.00  0.00    +0.145 HD
ATOM     26  H   UNL     1       0.085  -9.208  -8.185  0.00  0.00    +0.145 HD
ENDBRANCH  17  18
ENDBRANCH  16  17
ENDBRANCH   8  16
TORSDOF 4
