REMARK  Name = ZINC54156283
REMARK  7 active torsions:
REMARK  status: ('A' for Active; 'I' for Inactive)
REMARK    1  A    between atoms: C_1  and  C_2
REMARK    2  A    between atoms: C_2  and  C_4
REMARK    3  A    between atoms: C_2  and  C_18
REMARK    4  A    between atoms: C_4  and  N_5
REMARK    5  A    between atoms: N_5  and  S_6
REMARK    6  A    between atoms: S_6  and  C_9
REMARK    7  A    between atoms: N_19  and  O_20
REMARK                            x       y       z     vdW  Elec       q    Type
REMARK                         _______ _______ _______ _____ _____    ______ ____
ROOT
ATOM      1  N   UNL     1       2.148  -0.104   1.172  0.00  0.00    -0.189 NA
ATOM      2  H   UNL     1       2.520   0.211   0.333  0.00  0.00    +0.148 HD
ENDROOT
BRANCH   1   3
ATOM      3  S   UNL     1       3.100  -0.181   2.524  0.00  0.00    +0.061 S 
ATOM      4  O   UNL     1       4.397   0.248   2.132  0.00  0.00    -0.153 OA
ATOM      5  O   UNL     1       2.373   0.448   3.570  0.00  0.00    -0.153 OA
BRANCH   3   6
ATOM      6  C   UNL     1       3.244  -1.882   2.963  0.00  0.00    +0.133 A 
ATOM      7  C   UNL     1       4.450  -2.494   2.909  0.00  0.00    +0.031 A 
ATOM      8  C   UNL     1       4.601  -3.838   3.249  0.00  0.00    +0.004 A 
ATOM      9  C   UNL     1       3.548  -4.589   3.649  0.00  0.00    +0.031 A 
ATOM     10  C   UNL     1       2.252  -4.013   3.730  0.00  0.00    +0.102 A 
ATOM     11  C   UNL     1       2.095  -2.606   3.379  0.00  0.00    +0.126 A 
ATOM     12  N   UNL     1       0.839  -2.174   3.497  0.00  0.00    -0.189 NA
ATOM     13  S   UNL     1      -0.012  -3.441   4.006  0.00  0.00    +0.117 S 
ATOM     14  N   UNL     1       1.108  -4.593   4.099  0.00  0.00    -0.191 NA
ENDBRANCH   3   6
ENDBRANCH   1   3
BRANCH   1  15
ATOM     15  C   UNL     1       0.742  -0.511   1.242  0.00  0.00    +0.116 C 
BRANCH  15  17
ATOM     16  C   UNL     1      -0.019   1.526   0.010  0.00  0.00    +0.017 C 
ATOM     17  C   UNL     1       0.002  -0.004   0.002  0.00  0.00    +0.068 C 
BRANCH  17  18
ATOM     18  C   UNL     1      -1.412  -0.526   0.013  0.00  0.00    +0.136 C 
ATOM     19  N   UNL     1      -2.364   0.200   0.498  0.00  0.00    -0.076 NA
ATOM     20  N   UNL     1      -1.688  -1.775  -0.495  0.00  0.00    -0.344 N 
ATOM     21  H   UNL     1      -0.973  -2.320  -0.860  0.00  0.00    +0.144 HD
ATOM     22  H   UNL     1      -2.599  -2.111  -0.489  0.00  0.00    +0.144 HD
BRANCH  19  23
ATOM     23  O   UNL     1      -3.692  -0.291   0.509  0.00  0.00    -0.408 OA
ATOM     24  H   UNL     1      -4.335   0.322   0.891  0.00  0.00    +0.328 HD
ENDBRANCH  19  23
ENDBRANCH  17  18
ENDBRANCH  15  17
ENDBRANCH   1  15
TORSDOF 6
