REMARK  Name = ZINC62320242
REMARK  10 active torsions:
REMARK  status: ('A' for Active; 'I' for Inactive)
REMARK    1  A    between atoms: C_1  and  C_2
REMARK    2  A    between atoms: C_2  and  C_3
REMARK    3  A    between atoms: C_2  and  C_4
REMARK    4  A    between atoms: C_2  and  N_5
REMARK    5  A    between atoms: C_6  and  C_8
REMARK    6  A    between atoms: N_10  and  C_20
REMARK    7  A    between atoms: C_15  and  N_19
REMARK    8  A    between atoms: C_20  and  C_21
REMARK    9  A    between atoms: C_21  and  O_22
REMARK   10  A    between atoms: O_22  and  C_23
REMARK                            x       y       z     vdW  Elec       q    Type
REMARK                         _______ _______ _______ _____ _____    ______ ____
ROOT
ATOM      1  C   UNL     1       2.705  -0.738  -2.551  0.00  0.00    +0.100 A 
ATOM      2  C   UNL     1       4.048  -0.478  -2.731  0.00  0.00    +0.103 A 
ATOM      3  N   UNL     1       4.733  -0.960  -3.777  0.00  0.00    -0.343 N 
ATOM      4  C   UNL     1       4.155  -1.748  -4.749  0.00  0.00    +0.055 A 
ATOM      5  C   UNL     1       4.911  -2.223  -5.816  0.00  0.00    +0.026 A 
ATOM      6  C   UNL     1       4.326  -3.011  -6.785  0.00  0.00    +0.004 A 
ATOM      7  C   UNL     1       2.983  -3.342  -6.715  0.00  0.00    +0.023 A 
ATOM      8  C   UNL     1       2.205  -2.882  -5.663  0.00  0.00    +0.037 A 
ATOM      9  C   UNL     1       2.791  -2.080  -4.673  0.00  0.00    +0.066 A 
ATOM     10  C   UNL     1       2.004  -1.576  -3.537  0.00  0.00    +0.203 A 
ATOM     11  O   UNL     1       0.819  -1.839  -3.419  0.00  0.00    -0.286 OA
ENDROOT
BRANCH   1  13
ATOM     12  N   UNL     1       0.708  -0.546  -1.159  0.00  0.00    -0.306 N 
ATOM     13  C   UNL     1       1.988  -0.190  -1.389  0.00  0.00    +0.250 C 
ATOM     14  O   UNL     1       2.549   0.584  -0.637  0.00  0.00    -0.270 OA
ATOM     15  H   UNL     1       0.238  -1.106  -1.796  0.00  0.00    +0.150 HD
BRANCH  12  17
ATOM     16  C   UNL     1      -0.005   1.443   0.073  0.00  0.00    +0.031 C 
ATOM     17  C   UNL     1       0.028  -0.087   0.055  0.00  0.00    +0.026 C 
ATOM     18  C   UNL     1       0.781  -0.596   1.286  0.00  0.00    +0.031 C 
ATOM     19  C   UNL     1      -1.403  -0.627   0.072  0.00  0.00    +0.031 C 
ENDBRANCH  12  17
ENDBRANCH   1  13
BRANCH   8  20
ATOM     20  N   UNL     1       0.857  -3.212  -5.591  0.00  0.00    -0.357 N 
ATOM     21  H   UNL     1       0.475  -3.834  -6.230  0.00  0.00    +0.142 HD
ATOM     22  H   UNL     1       0.298  -2.821  -4.902  0.00  0.00    +0.142 HD
ENDBRANCH   8  20
BRANCH   3  23
ATOM     23  C   UNL     1       6.157  -0.634  -3.893  0.00  0.00    +0.150 C 
BRANCH  23  24
ATOM     24  C   UNL     1       6.984  -1.701  -3.172  0.00  0.00    +0.181 C 
BRANCH  24  25
ATOM     25  O   UNL     1       6.827  -2.956  -3.839  0.00  0.00    -0.381 OA
ATOM     26  C   UNL     1       7.562  -4.026  -3.243  0.00  0.00    +0.194 C 
ENDBRANCH  24  25
ENDBRANCH  23  24
ENDBRANCH   3  23
TORSDOF 6
