REMARK  Name = ZINC39982705
REMARK  7 active torsions:
REMARK  status: ('A' for Active; 'I' for Inactive)
REMARK    1  A    between atoms: C_1  and  C_2
REMARK    2  A    between atoms: C_2  and  C_4
REMARK    3  A    between atoms: C_2  and  S_19
REMARK    4  A    between atoms: C_16  and  C_17
REMARK    5  A    between atoms: C_16  and  C_18
REMARK    6  A    between atoms: S_19  and  C_20
REMARK    7  A    between atoms: C_24  and  C_26
REMARK                            x       y       z     vdW  Elec       q    Type
REMARK                         _______ _______ _______ _____ _____    ______ ____
ROOT
ATOM      1  C   UNL     1      -0.482   0.339  -0.589  0.00  0.00    +0.029 C 
ATOM      2  C   UNL     1      -0.369  -1.087  -0.045  0.00  0.00    +0.135 C 
ENDROOT
BRANCH   2   3
ATOM      3  C   UNL     1       0.600  -1.109   1.109  0.00  0.00    +0.234 C 
ATOM      4  O   UNL     1       1.794  -1.141   0.898  0.00  0.00    -0.274 OA
ATOM      5  N   UNL     1       0.139  -1.092   2.376  0.00  0.00    -0.255 N 
ATOM      6  C   UNL     1      -1.238  -1.051   2.646  0.00  0.00    +0.059 A 
ATOM      7  C   UNL     1      -2.120  -0.449   1.767  0.00  0.00    +0.025 A 
ATOM      8  C   UNL     1      -3.471  -0.422   2.063  0.00  0.00    +0.002 A 
ATOM      9  C   UNL     1      -3.939  -0.994   3.232  0.00  0.00    +0.002 A 
ATOM     10  C   UNL     1      -3.062  -1.599   4.114  0.00  0.00    +0.025 A 
ATOM     11  C   UNL     1      -1.707  -1.633   3.824  0.00  0.00    +0.055 A 
ATOM     12  N   UNL     1      -0.804  -2.250   4.697  0.00  0.00    -0.282 N 
ATOM     13  C   UNL     1       0.521  -2.051   4.570  0.00  0.00    +0.241 C 
ATOM     14  O   UNL     1       1.288  -2.630   5.309  0.00  0.00    -0.273 OA
ATOM     15  C   UNL     1       1.064  -1.121   3.519  0.00  0.00    +0.113 C 
ATOM     16  C   UNL     1       2.435  -1.617   3.056  0.00  0.00    +0.042 C 
ATOM     17  C   UNL     1       1.197   0.285   4.106  0.00  0.00    +0.042 C 
ATOM     18  H   UNL     1      -1.137  -2.828   5.401  0.00  0.00    +0.155 HD
ENDBRANCH   2   3
BRANCH   2  19
ATOM     19  S   UNL     1       0.227  -2.188  -1.357  0.00  0.00    -0.084 S 
BRANCH  19  20
ATOM     20  C   UNL     1      -1.105  -2.168  -2.587  0.00  0.00    +0.340 C 
ATOM     21  N   UNL     1      -2.370  -2.619  -1.983  0.00  0.00    -0.219 N 
ATOM     22  N   UNL     1      -3.251  -1.534  -2.102  0.00  0.00    -0.145 NA
ATOM     23  C   UNL     1      -2.654  -0.532  -2.691  0.00  0.00    +0.238 C 
ATOM     24  O   UNL     1      -1.369  -0.825  -3.018  0.00  0.00    -0.443 OA
ATOM     25  H   UNL     1      -2.555  -3.484  -1.586  0.00  0.00    +0.173 HD
BRANCH  23  26
ATOM     26  C   UNL     1      -3.268   0.699  -2.958  0.00  0.00    +0.043 C 
ATOM     27  C   UNL     1      -4.577   1.074  -2.650  0.00  0.00    +0.008 A 
ATOM     28  C   UNL     1      -5.639   0.393  -2.018  0.00  0.00    +0.010 A 
ATOM     29  C   UNL     1      -6.833   1.018  -1.847  0.00  0.00    +0.001 A 
ATOM     30  C   UNL     1      -7.042   2.328  -2.284  0.00  0.00    +0.002 A 
ATOM     31  C   UNL     1      -6.066   3.041  -2.899  0.00  0.00    +0.026 A 
ATOM     32  C   UNL     1      -4.792   2.454  -3.112  0.00  0.00    +0.043 A 
ATOM     33  N   UNL     1      -3.697   2.928  -3.675  0.00  0.00    -0.380 N 
ATOM     34  C   UNL     1      -2.649   1.903  -3.633  0.00  0.00    +0.154 C 
ATOM     35  H   UNL     1      -3.599   3.815  -4.054  0.00  0.00    +0.160 HD
ENDBRANCH  23  26
ENDBRANCH  19  20
ENDBRANCH   2  19
TORSDOF 4
