REMARK  Name = ZINC22782017
REMARK  10 active torsions:
REMARK  status: ('A' for Active; 'I' for Inactive)
REMARK    1  A    between atoms: C_1  and  C_2
REMARK    2  A    between atoms: C_2  and  C_3
REMARK    3  A    between atoms: C_2  and  C_4
REMARK    4  A    between atoms: C_2  and  N_5
REMARK    5  A    between atoms: C_6  and  C_8
REMARK    6  A    between atoms: C_8  and  N_9
REMARK    7  A    between atoms: N_13  and  C_16
REMARK    8  A    between atoms: C_16  and  C_17
REMARK    9  A    between atoms: N_19  and  C_20
REMARK   10  A    between atoms: C_21  and  C_29
REMARK                            x       y       z     vdW  Elec       q    Type
REMARK                         _______ _______ _______ _____ _____    ______ ____
ROOT
ATOM      1  C   UNL     1      -3.566   2.790   0.273  0.00  0.00    +0.180 C 
ENDROOT
BRANCH   1   6
ATOM      2  N   UNL     1      -7.687   1.725  -0.820  0.00  0.00    +0.386 N 
ATOM      3  C   UNL     1      -7.219   0.483  -1.476  0.00  0.00    -0.077 C 
ATOM      4  C   UNL     1      -5.737   0.189  -1.188  0.00  0.00    -0.003 C 
ATOM      5  C   UNL     1      -4.890   1.435  -1.248  0.00  0.00    +0.083 C 
ATOM      6  N   UNL     1      -4.798   2.006   0.114  0.00  0.00    -0.296 NA
ATOM      7  C   UNL     1      -5.920   2.750   0.498  0.00  0.00    +0.066 C 
ATOM      8  C   UNL     1      -7.201   1.892   0.532  0.00  0.00    -0.063 C 
ATOM      9  H   UNL     1      -7.247   2.565  -1.377  0.00  0.00    -0.081 HD
BRANCH   2  10
ATOM     10  C   UNL     1      -9.151   1.827  -0.869  0.00  0.00    +0.019 C 
BRANCH  10  12
ATOM     11  N   UNL     1     -11.096   0.519  -0.076  0.00  0.00    -0.312 N 
ATOM     12  C   UNL     1      -9.760   0.696  -0.079  0.00  0.00    +0.197 C 
ATOM     13  O   UNL     1      -9.047  -0.054   0.553  0.00  0.00    -0.278 OA
ATOM     14  H   UNL     1     -11.742   1.199  -0.650  0.00  0.00    +0.149 HD
BRANCH  11  16
ATOM     15  C   UNL     1     -11.332  -0.418   2.170  0.00  0.00    +0.031 C 
ATOM     16  C   UNL     1     -11.687  -0.580   0.691  0.00  0.00    +0.026 C 
ATOM     17  C   UNL     1     -13.208  -0.557   0.525  0.00  0.00    +0.031 C 
ATOM     18  C   UNL     1     -11.139  -1.913   0.178  0.00  0.00    +0.031 C 
ENDBRANCH  11  16
ENDBRANCH  10  12
ENDBRANCH   2  10
ENDBRANCH   1   6
BRANCH   1  19
ATOM     19  C   UNL     1      -2.371   1.891   0.088  0.00  0.00    +0.232 C 
ATOM     20  O   UNL     1      -2.529   0.713  -0.153  0.00  0.00    -0.274 OA
ATOM     21  N   UNL     1      -1.125   2.396   0.191  0.00  0.00    -0.278 N 
ATOM     22  H   UNL     1      -0.982   3.465   0.410  0.00  0.00    +0.155 HD
BRANCH  21  23
ATOM     23  C   UNL     1      -0.025   1.569   0.021  0.00  0.00    +0.084 A 
ATOM     24  C   UNL     1       1.321   1.901   0.083  0.00  0.00    +0.068 A 
ATOM     25  C   UNL     1       2.285   0.838  -0.140  0.00  0.00    -0.023 A 
ATOM     26  C   UNL     1       1.753  -0.379  -0.387  0.00  0.00    -0.004 A 
ATOM     27  S   UNL     1       0.002  -0.128  -0.327  0.00  0.00    -0.077 S 
ATOM     28  C   UNL     1       2.496  -1.652  -0.653  0.00  0.00    +0.043 C 
ATOM     29  C   UNL     1       3.956  -1.303  -0.975  0.00  0.00    +0.005 C 
ATOM     30  C   UNL     1       4.471  -0.318   0.079  0.00  0.00    +0.005 C 
ATOM     31  C   UNL     1       3.795   1.042  -0.105  0.00  0.00    +0.037 C 
BRANCH  24  32
ATOM     32  C   UNL     1       1.753   3.274   0.362  0.00  0.00    +0.244 C 
ATOM     33  O   UNL     1       1.938   3.632   1.510  0.00  0.00    -0.270 OA
ATOM     34  N   UNL     1       1.946   4.139  -0.653  0.00  0.00    -0.325 N 
ATOM     35  H   UNL     1       2.271   5.169  -0.444  0.00  0.00    +0.145 HD
ATOM     36  H   UNL     1       1.779   3.816  -1.691  0.00  0.00    +0.145 HD
ENDBRANCH  24  32
ENDBRANCH  21  23
ENDBRANCH   1  19
TORSDOF 7
