REMARK  Name = ZINC02892730
REMARK  7 active torsions:
REMARK  status: ('A' for Active; 'I' for Inactive)
REMARK    1  A    between atoms: N_4  and  C_7
REMARK    2  A    between atoms: C_7  and  C_8
REMARK    3  A    between atoms: C_8  and  N_9
REMARK    4  A    between atoms: N_9  and  C_10
REMARK    5  A    between atoms: N_16  and  C_19
REMARK    6  A    between atoms: C_19  and  C_20
REMARK    7  A    between atoms: C_20  and  C_21
REMARK                            x       y       z     vdW  Elec       q    Type
REMARK                         _______ _______ _______ _____ _____    ______ ____
ROOT
ATOM      1  C   UNL     1       4.106  -3.929   3.263  0.00  0.00    +0.085 C 
ATOM      2  C   UNL     1       4.935  -4.431   4.249  0.00  0.00    +0.113 C 
ATOM      3  C   UNL     1       5.490  -3.563   5.303  0.00  0.00    +0.258 C 
ATOM      4  N   UNL     1       6.291  -4.122   6.233  0.00  0.00    -0.235 N 
ATOM      5  C   UNL     1       6.584  -5.429   6.211  0.00  0.00    +0.315 C 
ATOM      6  O   UNL     1       7.312  -5.871   7.078  0.00  0.00    -0.252 OA
ATOM      7  N   UNL     1       6.115  -6.276   5.284  0.00  0.00    -0.221 N 
ATOM      8  C   UNL     1       5.297  -5.858   4.296  0.00  0.00    +0.260 C 
ATOM      9  O   UNL     1       4.874  -6.638   3.463  0.00  0.00    -0.269 OA
ATOM     10  O   UNL     1       5.232  -2.374   5.334  0.00  0.00    -0.270 OA
ATOM     11  H   UNL     1       6.665  -3.564   6.934  0.00  0.00    +0.159 HD
ENDROOT
BRANCH   1  12
ATOM     12  N   UNL     1       3.921  -2.598   3.152  0.00  0.00    -0.351 N 
ATOM     13  H   UNL     1       4.430  -1.989   3.709  0.00  0.00    +0.145 HD
BRANCH  12  14
ATOM     14  C   UNL     1       2.950  -2.072   2.189  0.00  0.00    +0.082 C 
BRANCH  14  15
ATOM     15  C   UNL     1       2.935  -0.544   2.263  0.00  0.00    -0.060 C 
BRANCH  15  19
ATOM     16  C   UNL     1      -0.351   1.561   0.551  0.00  0.00    -0.004 C 
ATOM     17  C   UNL     1       1.079   2.001   0.223  0.00  0.00    -0.019 C 
ATOM     18  C   UNL     1       2.033   1.450   1.284  0.00  0.00    -0.079 C 
ATOM     19  N   UNL     1       1.961  -0.016   1.298  0.00  0.00    +0.381 N 
ATOM     20  C   UNL     1       0.611  -0.446   1.682  0.00  0.00    -0.079 C 
ATOM     21  C   UNL     1      -0.398   0.033   0.636  0.00  0.00    -0.019 C 
ATOM     22  H   UNL     1       2.177  -0.371   0.378  0.00  0.00    -0.082 HD
ENDBRANCH  15  19
ENDBRANCH  14  15
ENDBRANCH  12  14
ENDBRANCH   1  12
BRANCH   7  23
ATOM     23  C   UNL     1       6.495  -7.690   5.348  0.00  0.00    +0.122 C 
BRANCH  23  24
ATOM     24  C   UNL     1       5.478  -8.453   6.199  0.00  0.00    +0.050 C 
BRANCH  24  25
ATOM     25  C   UNL     1       5.869  -9.907   6.266  0.00  0.00    -0.072 C 
ATOM     26  C   UNL     1       6.564 -10.303   7.283  0.00  0.00    -0.028 C 
ATOM     27  C   UNL     1       7.035 -11.714   7.482  0.00  0.00    +0.027 C 
ATOM     28  C   UNL     1       6.244 -12.665   6.582  0.00  0.00    +0.004 C 
ATOM     29  C   UNL     1       6.247 -12.098   5.156  0.00  0.00    +0.005 C 
ATOM     30  C   UNL     1       5.423 -10.807   5.151  0.00  0.00    +0.030 C 
ENDBRANCH  24  25
ENDBRANCH  23  24
ENDBRANCH   7  23
TORSDOF 7
