REMARK  Name = ZINC13475849
REMARK  9 active torsions:
REMARK  status: ('A' for Active; 'I' for Inactive)
REMARK    1  A    between atoms: C_1  and  C_2
REMARK    2  A    between atoms: C_2  and  O_3
REMARK    3  A    between atoms: O_3  and  C_4
REMARK    4  A    between atoms: C_7  and  N_10
REMARK    5  A    between atoms: C_14  and  S_18
REMARK    6  A    between atoms: S_18  and  C_19
REMARK    7  A    between atoms: N_21  and  N_22
REMARK    8  A    between atoms: C_23  and  C_24
REMARK    9  A    between atoms: C_33  and  O_34
REMARK                            x       y       z     vdW  Elec       q    Type
REMARK                         _______ _______ _______ _____ _____    ______ ____
ROOT
ATOM      1  C   UNL     1       1.526  -8.533  -5.558  0.00  0.00    +0.146 C 
ATOM      2  N   UNL     1       2.687  -7.939  -5.499  0.00  0.00    -0.380 N 
ATOM      3  N   UNL     1       1.047  -8.990  -6.764  0.00  0.00    -0.217 N 
ATOM      4  H   UNL     1       3.211  -7.819  -6.306  0.00  0.00    +0.158 HD
ATOM      5  H   UNL     1       0.184  -9.432  -6.807  0.00  0.00    +0.176 HD
ATOM      6  H   UNL     1       3.024  -7.617  -4.649  0.00  0.00    +0.158 HD
ENDROOT
BRANCH   3   7
ATOM      7  N   UNL     1       1.805  -8.818  -7.930  0.00  0.00    -0.188 NA
ATOM      8  C   UNL     1       1.353  -9.249  -9.069  0.00  0.00    +0.142 C 
BRANCH   8   9
ATOM      9  C   UNL     1       2.148  -9.068 -10.292  0.00  0.00    +0.044 A 
ATOM     10  C   UNL     1       1.651  -9.542 -11.582  0.00  0.00    -0.006 A 
ATOM     11  C   UNL     1       0.410 -10.180 -11.698  0.00  0.00    +0.009 A 
ATOM     12  C   UNL     1      -0.016 -10.607 -12.921  0.00  0.00    +0.001 A 
ATOM     13  C   UNL     1       0.766 -10.417 -14.057  0.00  0.00    +0.001 A 
ATOM     14  C   UNL     1       1.978  -9.800 -13.980  0.00  0.00    +0.008 A 
ATOM     15  C   UNL     1       2.449  -9.347 -12.736  0.00  0.00    -0.017 A 
ATOM     16  C   UNL     1       3.695  -8.706 -12.618  0.00  0.00    +0.012 A 
ATOM     17  C   UNL     1       4.141  -8.271 -11.409  0.00  0.00    +0.046 A 
ATOM     18  C   UNL     1       3.390  -8.435 -10.247  0.00  0.00    +0.126 A 
BRANCH  18  19
ATOM     19  O   UNL     1       3.873  -7.981  -9.062  0.00  0.00    -0.506 OA
ATOM     20  H   UNL     1       4.404  -8.628  -8.579  0.00  0.00    +0.292 HD
ENDBRANCH  18  19
ENDBRANCH   8   9
ENDBRANCH   3   7
BRANCH   1  21
ATOM     21  S   UNL     1       0.573  -8.750  -4.092  0.00  0.00    -0.078 S 
BRANCH  21  26
ATOM     22  N   UNL     1       1.101  -5.940  -1.835  0.00  0.00    -0.209 N 
ATOM     23  C   UNL     1       0.688  -6.816  -0.911  0.00  0.00    +0.228 C 
ATOM     24  O   UNL     1       0.184  -6.528   0.153  0.00  0.00    -0.275 OA
ATOM     25  C   UNL     1       0.951  -8.222  -1.405  0.00  0.00    +0.120 C 
ATOM     26  C   UNL     1       1.593  -8.004  -2.790  0.00  0.00    +0.149 C 
ATOM     27  C   UNL     1       1.621  -6.498  -2.935  0.00  0.00    +0.240 C 
ATOM     28  O   UNL     1       2.049  -5.893  -3.895  0.00  0.00    -0.274 OA
BRANCH  22  32
ATOM     29  C   UNL     1       0.775  -1.811  -1.336  0.00  0.00    +0.121 A 
ATOM     30  C   UNL     1       0.015  -2.454  -2.301  0.00  0.00    +0.047 A 
ATOM     31  C   UNL     1       0.122  -3.821  -2.467  0.00  0.00    +0.027 A 
ATOM     32  C   UNL     1       0.992  -4.551  -1.668  0.00  0.00    +0.044 A 
ATOM     33  C   UNL     1       1.752  -3.906  -0.702  0.00  0.00    +0.027 A 
ATOM     34  C   UNL     1       1.648  -2.539  -0.540  0.00  0.00    +0.047 A 
BRANCH  29  35
ATOM     35  O   UNL     1       0.669  -0.465  -1.173  0.00  0.00    -0.492 OA
BRANCH  35  37
ATOM     36  C   UNL     1      -0.230   1.716  -1.699  0.00  0.00    +0.048 C 
ATOM     37  C   UNL     1      -0.249   0.221  -2.027  0.00  0.00    +0.225 C 
ENDBRANCH  35  37
ENDBRANCH  29  35
ENDBRANCH  22  32
ENDBRANCH  21  26
ENDBRANCH   1  21
TORSDOF 8
