REMARK  Name = ZINC39277006
REMARK  5 active torsions:
REMARK  status: ('A' for Active; 'I' for Inactive)
REMARK    1  A    between atoms: N_9  and  C_14
REMARK    2  A    between atoms: C_10  and  O_13
REMARK    3  A    between atoms: C_14  and  C_15
REMARK    4  A    between atoms: C_15  and  C_16
REMARK    5  A    between atoms: N_18  and  C_19
REMARK                            x       y       z     vdW  Elec       q    Type
REMARK                         _______ _______ _______ _____ _____    ______ ____
ROOT
ATOM      1  C   UNL     1       2.282  -4.244   0.059  0.00  0.00    +0.121 C 
ENDROOT
BRANCH   1  10
ATOM      2  C   UNL     1      -0.253   1.356  -0.275  0.00  0.00    +0.001 A 
ATOM      3  C   UNL     1       0.927   2.068  -0.130  0.00  0.00    +0.002 A 
ATOM      4  C   UNL     1       2.135   1.407  -0.011  0.00  0.00    +0.024 A 
ATOM      5  C   UNL     1       2.165   0.024  -0.038  0.00  0.00    +0.042 A 
ATOM      6  C   UNL     1       0.969  -0.701  -0.188  0.00  0.00    +0.058 A 
ATOM      7  C   UNL     1      -0.241  -0.023  -0.304  0.00  0.00    +0.015 A 
ATOM      8  C   UNL     1       1.041  -2.173  -0.221  0.00  0.00    +0.251 C 
ATOM      9  O   UNL     1       0.086  -2.827  -0.595  0.00  0.00    -0.270 OA
ATOM     10  N   UNL     1       2.178  -2.787   0.167  0.00  0.00    -0.256 N 
ATOM     11  C   UNL     1       3.309  -2.024   0.694  0.00  0.00    +0.299 C 
ATOM     12  N   UNL     1       3.352  -0.690   0.083  0.00  0.00    -0.303 N 
ATOM     13  H   UNL     1       4.190  -0.314  -0.229  0.00  0.00    +0.150 HD
BRANCH  11  14
ATOM     14  O   UNL     1       3.169  -1.888   2.110  0.00  0.00    -0.359 OA
ATOM     15  H   UNL     1       3.885  -1.392   2.530  0.00  0.00    +0.213 HD
ENDBRANCH  11  14
ENDBRANCH   1  10
BRANCH   1  16
ATOM     16  C   UNL     1       2.847  -4.615  -1.314  0.00  0.00    +0.115 C 
BRANCH  16  17
ATOM     17  C   UNL     1       2.954  -6.114  -1.425  0.00  0.00    +0.219 C 
ATOM     18  O   UNL     1       2.611  -6.817  -0.498  0.00  0.00    -0.275 OA
ATOM     19  N   UNL     1       3.430  -6.673  -2.555  0.00  0.00    -0.285 N 
ATOM     20  H   UNL     1       3.635  -6.117  -3.323  0.00  0.00    +0.155 HD
BRANCH  19  21
ATOM     21  C   UNL     1       3.627  -8.045  -2.620  0.00  0.00    +0.033 C 
ATOM     22  C   UNL     1       3.004  -8.786  -3.601  0.00  0.00    +0.029 C 
ATOM     23  C   UNL     1       3.229 -10.166  -3.536  0.00  0.00    -0.016 C 
ATOM     24  C   UNL     1       3.290 -11.130  -4.477  0.00  0.00    +0.025 C 
ATOM     25  C   UNL     1       3.825 -12.303  -3.910  0.00  0.00    +0.106 C 
ATOM     26  N   UNL     1       4.025 -12.182  -2.626  0.00  0.00    -0.279 NA
ATOM     27  C   UNL     1       3.522 -10.876  -2.224  0.00  0.00    +0.158 C 
ATOM     28  C   UNL     1       4.492 -10.031  -1.455  0.00  0.00    +0.006 C 
ATOM     29  C   UNL     1       4.502  -8.709  -1.650  0.00  0.00    +0.021 C 
ENDBRANCH  19  21
ENDBRANCH  16  17
ENDBRANCH   1  16
TORSDOF 5
