REMARK  Name = ZINC67162857
REMARK  10 active torsions:
REMARK  status: ('A' for Active; 'I' for Inactive)
REMARK    1  A    between atoms: C_1  and  C_2
REMARK    2  A    between atoms: C_2  and  C_3
REMARK    3  A    between atoms: C_10  and  C_12
REMARK    4  A    between atoms: C_12  and  C_14
REMARK    5  A    between atoms: C_12  and  N_15
REMARK    6  A    between atoms: C_16  and  O_18
REMARK    7  A    between atoms: O_18  and  C_19
REMARK    8  A    between atoms: C_19  and  C_20
REMARK    9  A    between atoms: C_19  and  C_21
REMARK   10  A    between atoms: C_19  and  C_22
REMARK                            x       y       z     vdW  Elec       q    Type
REMARK                         _______ _______ _______ _____ _____    ______ ____
ROOT
ATOM      1  C   UNL     1       1.689  -3.670  -4.628  0.00  0.00    +0.159 C 
ATOM      2  C   UNL     1       2.179  -2.401  -5.330  0.00  0.00    +0.038 C 
ENDROOT
BRANCH   1   9
ATOM      3  C   UNL     1       3.723  -3.878  -1.130  0.00  0.00    +0.006 C 
ATOM      4  C   UNL     1       3.175  -3.284   0.170  0.00  0.00    +0.006 C 
ATOM      5  C   UNL     1       1.645  -3.323   0.146  0.00  0.00    +0.019 C 
ATOM      6  C   UNL     1       1.135  -2.478  -1.025  0.00  0.00    +0.108 C 
ATOM      7  N   UNL     1       1.770  -2.951  -2.263  0.00  0.00    -0.300 N 
ATOM      8  C   UNL     1       3.236  -3.040  -2.316  0.00  0.00    +0.111 C 
ATOM      9  C   UNL     1       1.022  -3.299  -3.329  0.00  0.00    +0.236 C 
ATOM     10  O   UNL     1      -0.188  -3.313  -3.242  0.00  0.00    -0.274 OA
BRANCH   3  12
ATOM     11  C   UNL     1       5.740  -4.804   0.017  0.00  0.00    +0.004 C 
ATOM     12  C   UNL     1       5.252  -3.869  -1.091  0.00  0.00    +0.002 C 
ENDBRANCH   3  12
ENDBRANCH   1   9
BRANCH   1  13
ATOM     13  N   UNL     1       0.729  -4.365  -5.489  0.00  0.00    -0.270 N 
ATOM     14  C   UNL     1       1.167  -5.215  -6.439  0.00  0.00    +0.401 C 
ATOM     15  O   UNL     1       2.359  -5.404  -6.581  0.00  0.00    -0.226 OA
ATOM     16  H   UNL     1      -0.222  -4.213  -5.376  0.00  0.00    +0.153 HD
BRANCH  14  17
ATOM     17  O   UNL     1       0.285  -5.854  -7.230  0.00  0.00    -0.445 OA
BRANCH  17  18
ATOM     18  C   UNL     1       0.820  -6.740  -8.215  0.00  0.00    +0.107 C 
ATOM     19  C   UNL     1       1.627  -7.842  -7.525  0.00  0.00    +0.055 C 
ATOM     20  C   UNL     1      -0.325  -7.368  -9.011  0.00  0.00    +0.055 C 
ATOM     21  C   UNL     1       1.732  -5.958  -9.163  0.00  0.00    +0.055 C 
ENDBRANCH  17  18
ENDBRANCH  14  17
ENDBRANCH   1  13
TORSDOF 5
