REMARK  Name = ZINC63375837
REMARK  8 active torsions:
REMARK  status: ('A' for Active; 'I' for Inactive)
REMARK    1  A    between atoms: C_1  and  C_2
REMARK    2  A    between atoms: C_2  and  C_3
REMARK    3  A    between atoms: C_2  and  C_4
REMARK    4  A    between atoms: C_4  and  C_5
REMARK    5  A    between atoms: C_5  and  N_6
REMARK    6  A    between atoms: C_7  and  C_9
REMARK    7  A    between atoms: C_14  and  N_15
REMARK    8  A    between atoms: C_31  and  C_36
REMARK                            x       y       z     vdW  Elec       q    Type
REMARK                         _______ _______ _______ _____ _____    ______ ____
ROOT
ATOM      1  N   UNL     1      -0.853   0.059   7.535  0.00  0.00    -0.192 N 
ATOM      2  C   UNL     1      -2.069  -0.525   7.566  0.00  0.00    +0.248 C 
ATOM      3  O   UNL     1      -2.317  -1.705   7.444  0.00  0.00    -0.273 OA
ATOM      4  C   UNL     1      -3.058   0.599   7.785  0.00  0.00    +0.169 C 
ATOM      5  C   UNL     1      -4.057   0.652   6.616  0.00  0.00    +0.065 C 
ATOM      6  C   UNL     1      -4.578   2.068   6.561  0.00  0.00    -0.034 C 
ATOM      7  C   UNL     1      -5.351   2.673   5.665  0.00  0.00    -0.001 A 
ATOM      8  C   UNL     1      -6.044   2.166   4.470  0.00  0.00    +0.010 A 
ATOM      9  C   UNL     1      -6.752   3.080   3.755  0.00  0.00    +0.001 A 
ATOM     10  C   UNL     1      -6.838   4.431   4.106  0.00  0.00    +0.002 A 
ATOM     11  C   UNL     1      -6.239   4.982   5.191  0.00  0.00    +0.026 A 
ATOM     12  C   UNL     1      -5.470   4.119   6.025  0.00  0.00    +0.043 A 
ATOM     13  N   UNL     1      -4.815   4.370   7.119  0.00  0.00    -0.375 N 
ATOM     14  C   UNL     1      -4.246   3.115   7.617  0.00  0.00    +0.131 C 
ATOM     15  C   UNL     1      -2.716   3.190   7.713  0.00  0.00    +0.135 C 
ATOM     16  N   UNL     1      -2.209   1.808   7.743  0.00  0.00    -0.264 N 
ATOM     17  C   UNL     1      -0.940   1.389   7.672  0.00  0.00    +0.317 C 
ATOM     18  O   UNL     1       0.023   2.130   7.721  0.00  0.00    -0.252 OA
ATOM     19  H   UNL     1      -4.718   5.241   7.535  0.00  0.00    +0.160 HD
ENDROOT
BRANCH  15  20
ATOM     20  C   UNL     1      -2.163   3.934   6.525  0.00  0.00    -0.025 A 
ATOM     21  C   UNL     1      -2.021   3.288   5.311  0.00  0.00    +0.008 A 
ATOM     22  C   UNL     1      -1.514   3.969   4.220  0.00  0.00    +0.038 A 
ATOM     23  C   UNL     1      -1.149   5.299   4.344  0.00  0.00    +0.123 A 
ATOM     24  C   UNL     1      -1.292   5.944   5.560  0.00  0.00    +0.038 A 
ATOM     25  C   UNL     1      -1.804   5.263   6.648  0.00  0.00    +0.008 A 
ATOM     26  F   UNL     1      -0.653   5.965   3.279  0.00  0.00    -0.205 F 
ENDBRANCH  15  20
BRANCH   1  32
ATOM     27  C   UNL     1       0.873  -0.871   6.107  0.00  0.00    +0.059 A 
ATOM     28  C   UNL     1       2.078  -1.564   5.972  0.00  0.00    +0.015 A 
ATOM     29  C   UNL     1       2.740  -2.018   7.092  0.00  0.00    +0.001 A 
ATOM     30  C   UNL     1       2.216  -1.790   8.354  0.00  0.00    +0.002 A 
ATOM     31  C   UNL     1       1.026  -1.106   8.503  0.00  0.00    +0.025 A 
ATOM     32  C   UNL     1       0.348  -0.637   7.386  0.00  0.00    +0.058 A 
BRANCH  27  34
ATOM     33  N   UNL     1       0.667  -0.609   3.684  0.00  0.00    -0.311 N 
ATOM     34  C   UNL     1       0.159  -0.382   4.912  0.00  0.00    +0.246 C 
ATOM     35  O   UNL     1      -0.887   0.225   5.034  0.00  0.00    -0.270 OA
ATOM     36  H   UNL     1       1.502  -1.093   3.586  0.00  0.00    +0.149 HD
BRANCH  33  37
ATOM     37  C   UNL     1      -0.042  -0.124   2.497  0.00  0.00    +0.105 C 
BRANCH  37  38
ATOM     38  C   UNL     1       0.742  -0.511   1.242  0.00  0.00    +0.022 C 
BRANCH  38  40
ATOM     39  C   UNL     1      -0.019   1.526   0.010  0.00  0.00    +0.007 C 
ATOM     40  C   UNL     1       0.002  -0.004   0.002  0.00  0.00    -0.016 C 
ATOM     41  C   UNL     1       0.718  -0.497  -1.257  0.00  0.00    +0.007 C 
ENDBRANCH  38  40
ENDBRANCH  37  38
ENDBRANCH  33  37
ENDBRANCH  27  34
ENDBRANCH   1  32
TORSDOF 6
