REMARK  Name = ZINC40375801
REMARK  4 active torsions:
REMARK  status: ('A' for Active; 'I' for Inactive)
REMARK    1  A    between atoms: C_1  and  C_2
REMARK    2  A    between atoms: C_7  and  N_8
REMARK    3  A    between atoms: C_9  and  C_11
REMARK    4  A    between atoms: N_25  and  C_26
REMARK                            x       y       z     vdW  Elec       q    Type
REMARK                         _______ _______ _______ _____ _____    ______ ____
ROOT
ATOM      1  C   UNL     1       0.000   0.230   4.803  0.00  0.00    +0.122 C 
ATOM      2  C   UNL     1      -1.280   1.066   4.851  0.00  0.00    +0.114 C 
ATOM      3  C   UNL     1      -1.445   1.658   6.226  0.00  0.00    +0.219 C 
ATOM      4  O   UNL     1      -1.895   2.778   6.348  0.00  0.00    -0.275 OA
ATOM      5  N   UNL     1      -1.100   0.958   7.321  0.00  0.00    -0.270 N 
ATOM      6  C   UNL     1      -0.486  -0.278   7.210  0.00  0.00    +0.138 A 
ATOM      7  C   UNL     1       0.053  -0.679   6.001  0.00  0.00    +0.069 A 
ATOM      8  C   UNL     1       0.648  -1.942   5.907  0.00  0.00    +0.258 A 
ATOM      9  O   UNL     1       1.122  -2.329   4.851  0.00  0.00    -0.267 OA
ATOM     10  N   UNL     1       0.687  -2.722   7.008  0.00  0.00    -0.295 N 
ATOM     11  H   UNL     1       1.081  -3.607   6.961  0.00  0.00    +0.172 HD
ATOM     12  C   UNL     1       0.173  -2.268   8.184  0.00  0.00    +0.202 A 
ATOM     13  N   UNL     1      -0.388  -1.081   8.275  0.00  0.00    -0.200 NA
ATOM     14  N   UNL     1       0.244  -3.063   9.298  0.00  0.00    -0.285 N 
ATOM     15  H   UNL     1      -1.282   1.325   8.200  0.00  0.00    +0.156 HD
ATOM     16  H   UNL     1       0.611  -3.959   9.232  0.00  0.00    +0.155 HD
ENDROOT
BRANCH  14  17
ATOM     17  C   UNL     1      -0.211  -2.583  10.530  0.00  0.00    +0.034 A 
ATOM     18  C   UNL     1      -1.323  -1.752  10.586  0.00  0.00    +0.023 A 
ATOM     19  C   UNL     1      -1.770  -1.280  11.804  0.00  0.00    +0.002 A 
ATOM     20  C   UNL     1      -1.112  -1.633  12.968  0.00  0.00    +0.000 A 
ATOM     21  C   UNL     1      -0.005  -2.461  12.916  0.00  0.00    +0.002 A 
ATOM     22  C   UNL     1       0.444  -2.941  11.702  0.00  0.00    +0.023 A 
ENDBRANCH  14  17
BRANCH   1  24
ATOM     23  N   UNL     1       1.054  -0.518   2.693  0.00  0.00    -0.285 N 
ATOM     24  C   UNL     1       0.011  -0.598   3.543  0.00  0.00    +0.225 C 
ATOM     25  O   UNL     1      -0.919  -1.336   3.295  0.00  0.00    -0.275 OA
ATOM     26  H   UNL     1       1.823   0.028   2.919  0.00  0.00    +0.155 HD
BRANCH  23  33
ATOM     27  C   UNL     1       2.292   0.662   0.420  0.00  0.00    +0.045 C 
ATOM     28  C   UNL     1       1.619  -0.684   0.351  0.00  0.00    -0.029 A 
ATOM     29  C   UNL     1       1.597  -1.386  -0.838  0.00  0.00    +0.005 A 
ATOM     30  C   UNL     1       0.980  -2.622  -0.902  0.00  0.00    +0.000 A 
ATOM     31  C   UNL     1       0.385  -3.160   0.224  0.00  0.00    +0.002 A 
ATOM     32  C   UNL     1       0.404  -2.464   1.417  0.00  0.00    +0.023 A 
ATOM     33  C   UNL     1       1.027  -1.224   1.485  0.00  0.00    +0.036 A 
ENDBRANCH  23  33
ENDBRANCH   1  24
TORSDOF 3
