REMARK  Name = ZINC39326859
REMARK  10 active torsions:
REMARK  status: ('A' for Active; 'I' for Inactive)
REMARK    1  A    between atoms: C_1  and  O_2
REMARK    2  A    between atoms: O_2  and  C_3
REMARK    3  A    between atoms: C_3  and  C_5
REMARK    4  A    between atoms: C_8  and  C_11
REMARK    5  A    between atoms: C_19  and  N_35
REMARK    6  A    between atoms: C_20  and  C_33
REMARK    7  A    between atoms: C_21  and  C_23
REMARK    8  A    between atoms: C_26  and  C_29
REMARK    9  A    between atoms: C_29  and  O_31
REMARK   10  A    between atoms: O_31  and  C_32
REMARK                            x       y       z     vdW  Elec       q    Type
REMARK                         _______ _______ _______ _____ _____    ______ ____
ROOT
ATOM      1  C   UNL     1       0.851  -6.315   1.258  0.00  0.00    +0.016 C 
ATOM      2  C   UNL     1       1.550  -6.922   2.236  0.00  0.00    +0.009 C 
ATOM      3  C   UNL     1       2.187  -6.127   3.356  0.00  0.00    +0.120 C 
ATOM      4  N   UNL     1       3.515  -6.718   3.601  0.00  0.00    -0.308 NA
ATOM      5  C   UNL     1       3.389  -8.099   4.070  0.00  0.00    +0.117 C 
ATOM      6  C   UNL     1       2.587  -8.940   3.109  0.00  0.00    -0.001 C 
ATOM      7  C   UNL     1       1.718  -8.389   2.258  0.00  0.00    +0.136 C 
ATOM      8  O   UNL     1       0.982  -9.138   1.401  0.00  0.00    -0.441 OA
ATOM      9  C   UNL     1       0.787 -10.445   1.647  0.00  0.00    +0.199 C 
ATOM     10  C   UNL     1       1.615 -11.128   2.476  0.00  0.00    +0.098 C 
ATOM     11  C   UNL     1       2.784 -10.437   3.135  0.00  0.00    +0.095 C 
ATOM     12  H   UNL     1       4.091  -6.668   2.774  0.00  0.00    +0.123 HD
ENDROOT
BRANCH   1  16
ATOM     13  C   UNL     1       0.003  -2.173   1.522  0.00  0.00    +0.059 A 
ATOM     14  C   UNL     1       0.078  -2.947   2.685  0.00  0.00    +0.015 A 
ATOM     15  C   UNL     1       0.351  -4.282   2.600  0.00  0.00    +0.009 A 
ATOM     16  C   UNL     1       0.556  -4.876   1.350  0.00  0.00    -0.025 A 
ATOM     17  C   UNL     1       0.480  -4.102   0.186  0.00  0.00    +0.009 A 
ATOM     18  C   UNL     1       0.202  -2.768   0.272  0.00  0.00    +0.015 A 
BRANCH  13  19
ATOM     19  C   UNL     1      -0.293  -0.731   1.613  0.00  0.00    +0.339 C 
ATOM     20  O   UNL     1      -0.363  -0.060   0.603  0.00  0.00    -0.245 OA
BRANCH  19  22
ATOM     21  C   UNL     1      -0.767   1.243   2.832  0.00  0.00    +0.280 C 
ATOM     22  O   UNL     1      -0.485  -0.158   2.818  0.00  0.00    -0.464 OA
ENDBRANCH  19  22
ENDBRANCH  13  19
ENDBRANCH   1  16
BRANCH  11  23
ATOM     23  C   UNL     1       4.060 -10.785   2.413  0.00  0.00    -0.035 A 
ATOM     24  C   UNL     1       4.213 -10.441   1.082  0.00  0.00    +0.005 A 
ATOM     25  C   UNL     1       5.379 -10.757   0.415  0.00  0.00    +0.015 A 
ATOM     26  C   UNL     1       6.405 -11.424   1.087  0.00  0.00    +0.059 A 
ATOM     27  C   UNL     1       6.244 -11.768   2.430  0.00  0.00    +0.015 A 
ATOM     28  C   UNL     1       5.075 -11.441   3.087  0.00  0.00    +0.005 A 
BRANCH  26  29
ATOM     29  C   UNL     1       7.656 -11.765   0.379  0.00  0.00    +0.339 C 
ATOM     30  O   UNL     1       7.794 -11.466  -0.790  0.00  0.00    -0.245 OA
BRANCH  29  31
ATOM     31  O   UNL     1       8.644 -12.409   1.030  0.00  0.00    -0.464 OA
ATOM     32  C   UNL     1       9.826 -12.708   0.284  0.00  0.00    +0.280 C 
ENDBRANCH  29  31
ENDBRANCH  26  29
ENDBRANCH  11  23
BRANCH   9  33
ATOM     33  N   UNL     1      -0.264 -11.097   1.052  0.00  0.00    -0.328 N 
ATOM     34  H   UNL     1      -0.861 -10.614   0.458  0.00  0.00    +0.145 HD
ATOM     35  H   UNL     1      -0.411 -12.040   1.225  0.00  0.00    +0.145 HD
ENDBRANCH   9  33
BRANCH  10  36
ATOM     36  C   UNL     1       1.384 -12.520   2.720  0.00  0.00    +0.101 C 
ATOM     37  N   UNL     1       1.200 -13.624   2.914  0.00  0.00    -0.191 NA
ENDBRANCH  10  36
TORSDOF 8
