REMARK  Name = ZINC43407550
REMARK  4 active torsions:
REMARK  status: ('A' for Active; 'I' for Inactive)
REMARK    1  A    between atoms: C_6  and  C_7
REMARK    2  A    between atoms: N_8  and  O_9
REMARK    3  A    between atoms: C_14  and  C_17
REMARK    4  A    between atoms: C_17  and  O_18
REMARK                            x       y       z     vdW  Elec       q    Type
REMARK                         _______ _______ _______ _____ _____    ______ ____
ROOT
ATOM      1  C   UNL     1      -0.370   1.482  -0.112  0.00  0.00    +0.020 A 
ATOM      2  C   UNL     1       0.692   2.297  -0.476  0.00  0.00    -0.027 A 
ATOM      3  C   UNL     1       1.959   1.757  -0.592  0.00  0.00    +0.021 A 
ATOM      4  N   UNL     1       2.167   0.470  -0.359  0.00  0.00    -0.346 N 
ATOM      5  C   UNL     1       1.191  -0.349  -0.010  0.00  0.00    +0.110 A 
ATOM      6  C   UNL     1      -0.122   0.129   0.128  0.00  0.00    +0.056 A 
ATOM      7  N   UNL     1       1.464  -1.687   0.222  0.00  0.00    -0.316 N 
ATOM      8  C   UNL     1       1.527  -2.643  -0.892  0.00  0.00    +0.107 C 
ATOM      9  C   UNL     1       2.865  -3.385  -0.831  0.00  0.00    +0.025 C 
ATOM     10  C   UNL     1       3.028  -4.021   0.552  0.00  0.00    +0.017 C 
ATOM     11  C   UNL     1       3.033  -2.926   1.621  0.00  0.00    +0.025 C 
ATOM     12  C   UNL     1       1.702  -2.177   1.587  0.00  0.00    +0.107 C 
ATOM     13  C   UNL     1       2.937   2.841  -0.998  0.00  0.00    +0.054 C 
ATOM     14  C   UNL     1       2.063   3.992  -1.539  0.00  0.00    +0.011 C 
ATOM     15  C   UNL     1       0.729   3.775  -0.794  0.00  0.00    +0.037 C 
ATOM     16  H   UNL     1       3.066   0.116  -0.449  0.00  0.00    +0.167 HD
ENDROOT
BRANCH   6  17
ATOM     17  C   UNL     1      -1.219  -0.781   0.519  0.00  0.00    +0.166 C 
ATOM     18  N   UNL     1      -1.954  -0.506   1.558  0.00  0.00    -0.071 NA
ATOM     19  N   UNL     1      -1.466  -1.926  -0.220  0.00  0.00    -0.340 N 
ATOM     20  H   UNL     1      -0.918  -2.131  -0.994  0.00  0.00    +0.144 HD
ATOM     21  H   UNL     1      -2.186  -2.523   0.037  0.00  0.00    +0.144 HD
BRANCH  18  22
ATOM     22  O   UNL     1      -1.630   0.600   2.381  0.00  0.00    -0.408 OA
ATOM     23  H   UNL     1      -2.274   0.770   3.083  0.00  0.00    +0.328 HD
ENDBRANCH  18  22
ENDBRANCH   6  17
BRANCH  10  24
ATOM     24  C   UNL     1       4.348  -4.793   0.606  0.00  0.00    +0.159 C 
BRANCH  24  25
ATOM     25  O   UNL     1       4.446  -5.482   1.854  0.00  0.00    -0.395 OA
ATOM     26  H   UNL     1       5.260  -5.993   1.958  0.00  0.00    +0.209 HD
ENDBRANCH  24  25
ENDBRANCH  10  24
TORSDOF 4
