REMARK  Name = ZINC35365939
REMARK  9 active torsions:
REMARK  status: ('A' for Active; 'I' for Inactive)
REMARK    1  A    between atoms: C_1  and  C_2
REMARK    2  A    between atoms: C_7  and  C_8
REMARK    3  A    between atoms: C_13  and  C_27
REMARK    4  A    between atoms: C_16  and  C_19
REMARK    5  A    between atoms: C_19  and  C_20
REMARK    6  A    between atoms: C_23  and  O_26
REMARK    7  A    between atoms: N_29  and  C_30
REMARK    8  A    between atoms: C_33  and  O_36
REMARK    9  A    between atoms: O_36  and  C_37
REMARK                            x       y       z     vdW  Elec       q    Type
REMARK                         _______ _______ _______ _____ _____    ______ ____
ROOT
ATOM      1  C   UNL     1      -0.637   1.498   0.670  0.00  0.00    +0.044 C 
ATOM      2  C   UNL     1      -0.484   0.004   0.537  0.00  0.00    -0.046 A 
ATOM      3  C   UNL     1      -0.302  -0.560  -0.712  0.00  0.00    +0.004 A 
ATOM      4  C   UNL     1      -0.162  -1.931  -0.834  0.00  0.00    +0.008 A 
ATOM      5  C   UNL     1      -0.204  -2.730   0.286  0.00  0.00    +0.004 A 
ATOM      6  C   UNL     1      -0.387  -2.174   1.548  0.00  0.00    +0.042 A 
ATOM      7  C   UNL     1      -0.522  -0.792   1.663  0.00  0.00    -0.026 A 
ATOM      8  C   UNL     1      -0.714  -0.166   3.020  0.00  0.00    +0.046 C 
ATOM      9  N   UNL     1      -0.396  -3.175   2.521  0.00  0.00    -0.283 N 
ATOM     10  C   UNL     1      -0.226  -4.401   1.990  0.00  0.00    +0.243 C 
ATOM     11  O   UNL     1      -0.192  -5.452   2.594  0.00  0.00    -0.273 OA
ATOM     12  C   UNL     1      -0.086  -4.215   0.501  0.00  0.00    +0.135 C 
ATOM     13  C   UNL     1      -1.188  -4.970  -0.252  0.00  0.00    +0.110 C 
ATOM     14  C   UNL     1      -0.434  -5.924  -1.208  0.00  0.00    +0.034 C 
ATOM     15  C   UNL     1       0.958  -5.254  -1.339  0.00  0.00    +0.060 C 
ATOM     16  N   UNL     1       1.212  -4.720   0.025  0.00  0.00    -0.296 NA
ATOM     17  H   UNL     1      -0.512  -3.008   3.469  0.00  0.00    +0.155 HD
ATOM     18  H   UNL     1       1.900  -3.982   0.002  0.00  0.00    +0.123 HD
ENDROOT
BRANCH  13  19
ATOM     19  C   UNL     1      -2.043  -4.006  -1.034  0.00  0.00    +0.223 C 
ATOM     20  O   UNL     1      -1.810  -3.805  -2.208  0.00  0.00    -0.275 OA
ATOM     21  N   UNL     1      -3.066  -3.369  -0.431  0.00  0.00    -0.285 N 
ATOM     22  H   UNL     1      -3.208  -3.474   0.522  0.00  0.00    +0.155 HD
BRANCH  21  23
ATOM     23  C   UNL     1      -3.923  -2.553  -1.181  0.00  0.00    +0.034 A 
ATOM     24  C   UNL     1      -4.475  -1.414  -0.610  0.00  0.00    +0.027 A 
ATOM     25  C   UNL     1      -5.319  -0.611  -1.350  0.00  0.00    +0.047 A 
ATOM     26  C   UNL     1      -5.617  -0.941  -2.664  0.00  0.00    +0.120 A 
ATOM     27  C   UNL     1      -5.066  -2.079  -3.236  0.00  0.00    +0.047 A 
ATOM     28  C   UNL     1      -4.217  -2.880  -2.498  0.00  0.00    +0.027 A 
BRANCH  26  29
ATOM     29  O   UNL     1      -6.449  -0.150  -3.392  0.00  0.00    -0.495 OA
ATOM     30  C   UNL     1      -6.712  -0.550  -4.739  0.00  0.00    +0.277 C 
ENDBRANCH  26  29
ENDBRANCH  21  23
ENDBRANCH  13  19
BRANCH  15  31
ATOM     31  C   UNL     1       2.020  -6.286  -1.724  0.00  0.00    +0.053 C 
BRANCH  31  32
ATOM     32  C   UNL     1       3.334  -5.590  -1.964  0.00  0.00    -0.046 A 
ATOM     33  C   UNL     1       3.649  -5.127  -3.228  0.00  0.00    +0.007 A 
ATOM     34  C   UNL     1       4.854  -4.489  -3.451  0.00  0.00    +0.045 A 
ATOM     35  C   UNL     1       5.747  -4.311  -2.405  0.00  0.00    +0.117 A 
ATOM     36  C   UNL     1       5.429  -4.776  -1.137  0.00  0.00    +0.045 A 
ATOM     37  C   UNL     1       4.221  -5.409  -0.918  0.00  0.00    +0.007 A 
BRANCH  35  38
ATOM     38  O   UNL     1       6.933  -3.684  -2.622  0.00  0.00    -0.507 OA
ATOM     39  H   UNL     1       6.900  -2.726  -2.495  0.00  0.00    +0.292 HD
ENDBRANCH  35  38
ENDBRANCH  31  32
ENDBRANCH  15  31
TORSDOF 6
