REMARK  Name = ZINC39673737
REMARK  9 active torsions:
REMARK  status: ('A' for Active; 'I' for Inactive)
REMARK    1  A    between atoms: C_1  and  C_2
REMARK    2  A    between atoms: C_2  and  C_3
REMARK    3  A    between atoms: C_3  and  C_4
REMARK    4  A    between atoms: C_4  and  C_6
REMARK    5  A    between atoms: C_4  and  N_7
REMARK    6  A    between atoms: C_8  and  C_10
REMARK    7  A    between atoms: C_21  and  C_23
REMARK    8  A    between atoms: C_25  and  O_30
REMARK    9  A    between atoms: O_30  and  C_31
REMARK                            x       y       z     vdW  Elec       q    Type
REMARK                         _______ _______ _______ _____ _____    ______ ____
ROOT
ATOM      1  C   UNL     1       0.158  -4.441   1.974  0.00  0.00    +0.100 C 
ATOM      2  C   UNL     1      -0.740  -4.328   3.226  0.00  0.00    +0.121 C 
ATOM      3  N   UNL     1      -1.215  -5.710   3.473  0.00  0.00    -0.296 N 
ATOM      4  C   UNL     1      -0.036  -6.561   3.184  0.00  0.00    +0.115 C 
ATOM      5  C   UNL     1       0.621  -5.908   1.952  0.00  0.00    -0.004 C 
ATOM      6  C   UNL     1       0.144  -6.593   0.675  0.00  0.00    -0.010 C 
ATOM      7  C   UNL     1       0.664  -8.033   0.649  0.00  0.00    -0.082 C 
ATOM      8  N   UNL     1       2.131  -8.027   0.706  0.00  0.00    +0.379 N 
ATOM      9  C   UNL     1       2.580  -7.449   1.979  0.00  0.00    -0.082 C 
ATOM     10  C   UNL     1       2.140  -5.985   2.061  0.00  0.00    -0.010 C 
ATOM     11  C   UNL     1      -2.441  -6.103   3.871  0.00  0.00    +0.248 C 
ATOM     12  O   UNL     1      -2.651  -7.273   4.125  0.00  0.00    -0.270 OA
ATOM     13  H   UNL     1       2.473  -8.972   0.628  0.00  0.00    -0.086 HD
ATOM     14  H   UNL     1       2.493  -7.476  -0.058  0.00  0.00    -0.086 HD
ENDROOT
BRANCH  11  15
ATOM     15  C   UNL     1      -3.530  -5.112   3.998  0.00  0.00    +0.054 A 
ATOM     16  C   UNL     1      -3.253  -3.821   4.448  0.00  0.00    +0.059 A 
ATOM     17  C   UNL     1      -4.278  -2.898   4.564  0.00  0.00    +0.121 A 
ATOM     18  C   UNL     1      -5.578  -3.257   4.233  0.00  0.00    +0.047 A 
ATOM     19  C   UNL     1      -5.855  -4.536   3.788  0.00  0.00    +0.019 A 
ATOM     20  C   UNL     1      -4.840  -5.463   3.663  0.00  0.00    +0.030 A 
ATOM     21 BR   UNL     1      -5.223  -7.209   3.045  0.00  0.00    -0.050 Br
BRANCH  17  22
ATOM     22  O   UNL     1      -4.012  -1.639   5.002  0.00  0.00    -0.495 OA
ATOM     23  C   UNL     1      -5.117  -0.738   5.098  0.00  0.00    +0.277 C 
ENDBRANCH  17  22
ENDBRANCH  11  15
BRANCH   1  25
ATOM     24  N   UNL     1      -0.008  -3.615  -0.352  0.00  0.00    -0.312 N 
ATOM     25  C   UNL     1      -0.631  -4.122   0.731  0.00  0.00    +0.218 C 
ATOM     26  O   UNL     1      -1.828  -4.320   0.704  0.00  0.00    -0.275 OA
ATOM     27  H   UNL     1       0.949  -3.456  -0.331  0.00  0.00    +0.149 HD
BRANCH  24  28
ATOM     28  C   UNL     1      -0.776  -3.304  -1.560  0.00  0.00    +0.070 C 
ATOM     29  C   UNL     1      -1.380  -1.904  -1.435  0.00  0.00    +0.028 C 
BRANCH  28  30
ATOM     30  C   UNL     1       0.149  -3.353  -2.778  0.00  0.00    +0.022 C 
BRANCH  30  32
ATOM     31  C   UNL     1       1.580  -4.833  -4.195  0.00  0.00    +0.004 C 
ATOM     32  C   UNL     1       0.655  -4.783  -2.977  0.00  0.00    -0.002 C 
ENDBRANCH  30  32
ENDBRANCH  28  30
ENDBRANCH  24  28
ENDBRANCH   1  25
TORSDOF 6
