REMARK  Name = ZINC65409383
REMARK  6 active torsions:
REMARK  status: ('A' for Active; 'I' for Inactive)
REMARK    1  A    between atoms: C_1  and  C_2
REMARK    2  A    between atoms: C_4  and  N_13
REMARK    3  A    between atoms: C_5  and  C_12
REMARK    4  A    between atoms: N_7  and  C_8
REMARK    5  A    between atoms: C_8  and  C_9
REMARK    6  A    between atoms: C_14  and  C_16
REMARK                            x       y       z     vdW  Elec       q    Type
REMARK                         _______ _______ _______ _____ _____    ______ ____
ROOT
ATOM      1  N   UNL     1       0.397  -0.292  -2.552  0.00  0.00    -0.281 N 
ATOM      2  C   UNL     1      -0.795  -0.711  -3.019  0.00  0.00    +0.270 C 
ATOM      3  O   UNL     1      -1.609  -1.199  -2.259  0.00  0.00    -0.268 OA
ATOM      4  H   UNL     1       1.017   0.163  -3.143  0.00  0.00    +0.155 HD
ENDROOT
BRANCH   2   5
ATOM      5  C   UNL     1      -1.115  -0.577  -4.458  0.00  0.00    +0.169 A 
ATOM      6  C   UNL     1      -2.369  -1.012  -4.942  0.00  0.00    +0.299 A 
ATOM      7  O   UNL     1      -3.272  -1.549  -4.087  0.00  0.00    -0.263 OA
ATOM      8  N   UNL     1      -2.667  -0.898  -6.221  0.00  0.00    -0.206 NA
ATOM      9  C   UNL     1      -1.774  -0.367  -7.065  0.00  0.00    +0.091 A 
ATOM     10  C   UNL     1      -2.067  -0.233  -8.433  0.00  0.00    +0.030 A 
ATOM     11  C   UNL     1      -1.142   0.311  -9.271  0.00  0.00    +0.002 A 
ATOM     12  C   UNL     1       0.096   0.740  -8.794  0.00  0.00    +0.002 A 
ATOM     13  C   UNL     1       0.415   0.627  -7.477  0.00  0.00    +0.028 A 
ATOM     14  C   UNL     1      -0.514   0.070  -6.578  0.00  0.00    +0.066 A 
ATOM     15  N   UNL     1      -0.228  -0.046  -5.281  0.00  0.00    -0.345 N 
ATOM     16  H   UNL     1       0.630   0.255  -4.943  0.00  0.00    +0.166 HD
ENDBRANCH   2   5
BRANCH   1  19
ATOM     17  C   UNL     1      -0.136   1.466   0.036  0.00  0.00    +0.032 C 
ATOM     18  C   UNL     1      -0.035  -0.061   0.004  0.00  0.00    +0.119 C 
ATOM     19  C   UNL     1       0.741  -0.513  -1.214  0.00  0.00    +0.047 C 
ATOM     20  C   UNL     1       1.809  -1.158  -0.770  0.00  0.00    +0.034 C 
ATOM     21  N   UNL     1       1.841  -1.193   0.618  0.00  0.00    -0.279 N 
ATOM     22  N   UNL     1       0.756  -0.550   1.150  0.00  0.00    -0.210 NA
ATOM     23  C   UNL     1       2.857  -1.777  -1.659  0.00  0.00    +0.063 C 
ATOM     24  H   UNL     1       2.538  -1.617   1.141  0.00  0.00    +0.166 HD
BRANCH  22  25
ATOM     25  C   UNL     1       1.174   0.562   2.014  0.00  0.00    +0.231 C 
BRANCH  25  26
ATOM     26  C   UNL     1       1.871   0.016   3.233  0.00  0.00    +0.371 C 
ATOM     27  O   UNL     1       2.007  -1.188   3.370  0.00  0.00    -0.245 OA
ATOM     28  O   UNL     1       2.299   0.778   4.083  0.00  0.00    -0.245 OA
ENDBRANCH  25  26
ENDBRANCH  22  25
ENDBRANCH   1  19
TORSDOF 4
