REMARK  Name = ZINC62961260
REMARK  3 active torsions:
REMARK  status: ('A' for Active; 'I' for Inactive)
REMARK    1  A    between atoms: C_3  and  N_12
REMARK    2  A    between atoms: C_6  and  C_7
REMARK    3  A    between atoms: N_12  and  C_13
REMARK                            x       y       z     vdW  Elec       q    Type
REMARK                         _______ _______ _______ _____ _____    ______ ____
ROOT
ATOM      1  C   UNL     1      -0.017   1.392   0.010  0.00  0.00    +0.015 A 
ATOM      2  C   UNL     1       1.167   2.096   0.002  0.00  0.00    +0.023 A 
ATOM      3  C   UNL     1       2.381   1.417  -0.013  0.00  0.00    +0.027 A 
ATOM      4  C   UNL     1       2.403   0.026  -0.021  0.00  0.00    +0.023 A 
ATOM      5  C   UNL     1       1.222  -0.683  -0.014  0.00  0.00    +0.015 A 
ATOM      6  C   UNL     1       0.002  -0.004   0.002  0.00  0.00    +0.039 A 
ENDROOT
BRANCH   6   7
ATOM      7  C   UNL     1      -1.266  -0.762   0.010  0.00  0.00    +0.248 A 
ATOM      8  N   UNL     1      -2.477  -0.254   0.019  0.00  0.00    -0.108 NA
ATOM      9  N   UNL     1      -3.338  -1.210   0.024  0.00  0.00    -0.116 NA
ATOM     10  C   UNL     1      -2.717  -2.356   0.019  0.00  0.00    +0.332 A 
ATOM     11  O   UNL     1      -1.397  -2.103   0.004  0.00  0.00    -0.423 OA
ENDBRANCH   6   7
BRANCH   3  12
ATOM     12  N   UNL     1       3.578   2.132  -0.021  0.00  0.00    -0.339 N 
ATOM     13  H   UNL     1       3.564   3.102  -0.015  0.00  0.00    +0.146 HD
BRANCH  12  14
ATOM     14  C   UNL     1       4.858   1.418  -0.037  0.00  0.00    +0.093 C 
ATOM     15  C   UNL     1       5.234   1.078  -1.488  0.00  0.00    +0.046 C 
ATOM     16  C   UNL     1       6.718   0.612  -1.507  0.00  0.00    +0.168 C 
ATOM     17  S   UNL     1       7.463   1.812  -0.325  0.00  0.00    -0.029 S 
ATOM     18  O   UNL     1       7.953   2.932  -1.050  0.00  0.00    -0.174 OA
ATOM     19  O   UNL     1       8.334   1.114   0.556  0.00  0.00    -0.174 OA
ATOM     20  C   UNL     1       5.952   2.311   0.596  0.00  0.00    +0.188 C 
ENDBRANCH  12  14
ENDBRANCH   3  12
TORSDOF 3
