REMARK  Name = ZINC42063515
REMARK  4 active torsions:
REMARK  status: ('A' for Active; 'I' for Inactive)
REMARK    1  A    between atoms: C_1  and  N_2
REMARK    2  A    between atoms: C_9  and  N_13
REMARK    3  A    between atoms: N_13  and  C_14
REMARK    4  A    between atoms: C_14  and  C_15
REMARK                            x       y       z     vdW  Elec       q    Type
REMARK                         _______ _______ _______ _____ _____    ______ ____
ROOT
ATOM      1  C   UNL     1      -0.018   1.461   0.010  0.00  0.00    +0.138 C 
ATOM      2  N   UNL     1       0.002  -0.004   0.002  0.00  0.00    -0.273 N 
ATOM      3  C   UNL     1      -1.146  -0.797   0.003  0.00  0.00    +0.041 A 
ATOM      4  C   UNL     1      -2.495  -0.448   0.012  0.00  0.00    +0.024 A 
ATOM      5  C   UNL     1      -3.464  -1.429   0.011  0.00  0.00    +0.002 A 
ATOM      6  C   UNL     1      -3.107  -2.765   0.002  0.00  0.00    +0.000 A 
ATOM      7  C   UNL     1      -1.769  -3.120  -0.007  0.00  0.00    +0.007 A 
ATOM      8  C   UNL     1      -0.800  -2.143  -0.007  0.00  0.00    -0.000 A 
ATOM      9  C   UNL     1       0.711  -2.193  -0.015  0.00  0.00    +0.174 C 
ATOM     10  C   UNL     1       1.128  -0.738  -0.013  0.00  0.00    +0.241 C 
ATOM     11  O   UNL     1       2.264  -0.314  -0.022  0.00  0.00    -0.273 OA
ENDROOT
BRANCH   9  12
ATOM     12  N   UNL     1       1.209  -2.880   1.185  0.00  0.00    -0.298 NA
ATOM     13  H   UNL     1       1.224  -2.257   1.978  0.00  0.00    +0.123 HD
BRANCH  12  14
ATOM     14  C   UNL     1       2.538  -3.459   0.946  0.00  0.00    +0.117 C 
BRANCH  14  15
ATOM     15  C   UNL     1       3.015  -4.153   2.195  0.00  0.00    -0.033 A 
ATOM     16  C   UNL     1       3.740  -3.452   3.141  0.00  0.00    +0.008 A 
ATOM     17  C   UNL     1       4.178  -4.087   4.287  0.00  0.00    +0.038 A 
ATOM     18  C   UNL     1       3.891  -5.427   4.488  0.00  0.00    +0.123 A 
ATOM     19  C   UNL     1       3.165  -6.128   3.540  0.00  0.00    +0.038 A 
ATOM     20  C   UNL     1       2.724  -5.489   2.397  0.00  0.00    +0.008 A 
ATOM     21  F   UNL     1       4.319  -6.049   5.609  0.00  0.00    -0.205 F 
ENDBRANCH  14  15
ENDBRANCH  12  14
ENDBRANCH   9  12
TORSDOF 3
