REMARK  Name = ZINC59464619
REMARK  4 active torsions:
REMARK  status: ('A' for Active; 'I' for Inactive)
REMARK    1  A    between atoms: C_1  and  C_2
REMARK    2  A    between atoms: C_2  and  C_3
REMARK    3  A    between atoms: N_9  and  N_10
REMARK    4  A    between atoms: C_11  and  C_12
REMARK                            x       y       z     vdW  Elec       q    Type
REMARK                         _______ _______ _______ _____ _____    ______ ____
ROOT
ATOM      1  C   UNL     1      -2.493  -0.513  -0.386  0.00  0.00    +0.140 C 
ATOM      2  C   UNL     1      -2.340  -2.026  -0.367  0.00  0.00    +0.232 C 
ATOM      3  O   UNL     1      -1.943  -2.645  -1.331  0.00  0.00    -0.274 OA
ATOM      4  N   UNL     1      -2.668  -2.623   0.766  0.00  0.00    -0.263 N 
ATOM      5  C   UNL     1      -3.121  -1.927   1.865  0.00  0.00    +0.183 C 
ATOM      6  N   UNL     1      -3.476  -2.404   3.041  0.00  0.00    -0.127 NA
ATOM      7  S   UNL     1      -3.113  -0.223   1.323  0.00  0.00    -0.076 S 
ATOM      8  H   UNL     1      -2.587  -3.588   0.825  0.00  0.00    +0.157 HD
ENDROOT
BRANCH   1  10
ATOM      9  C   UNL     1      -1.351   1.693  -0.652  0.00  0.00    +0.005 C 
ATOM     10  C   UNL     1      -1.147   0.177  -0.612  0.00  0.00    +0.020 C 
ENDBRANCH   1  10
BRANCH   6  11
ATOM     11  N   UNL     1      -3.420  -3.673   3.265  0.00  0.00    -0.155 NA
ATOM     12  C   UNL     1      -3.772  -4.146   4.430  0.00  0.00    +0.143 C 
BRANCH  12  13
ATOM     13  C   UNL     1      -4.164  -3.227   5.509  0.00  0.00    -0.004 A 
ATOM     14  C   UNL     1      -4.663  -3.731   6.715  0.00  0.00    +0.009 A 
ATOM     15  C   UNL     1      -5.029  -2.863   7.722  0.00  0.00    +0.002 A 
ATOM     16  C   UNL     1      -4.904  -1.496   7.543  0.00  0.00    +0.015 A 
ATOM     17  C   UNL     1      -4.411  -0.989   6.353  0.00  0.00    +0.018 A 
ATOM     18  C   UNL     1      -4.035  -1.845   5.337  0.00  0.00    +0.024 A 
ATOM     19 BR   UNL     1      -4.245   0.880   6.120  0.00  0.00    -0.050 Br
ENDBRANCH  12  13
ENDBRANCH   6  11
TORSDOF 3
