REMARK  Name = ZINC24381619
REMARK  5 active torsions:
REMARK  status: ('A' for Active; 'I' for Inactive)
REMARK    1  A    between atoms: C_10  and  C_13
REMARK    2  A    between atoms: C_13  and  C_14
REMARK    3  A    between atoms: N_16  and  C_17
REMARK    4  A    between atoms: C_17  and  C_18
REMARK    5  A    between atoms: C_18  and  C_19
REMARK                            x       y       z     vdW  Elec       q    Type
REMARK                         _______ _______ _______ _____ _____    ______ ____
ROOT
ATOM      1  C   UNL     1      -1.187   1.624   0.017  0.00  0.00    +0.217 C 
ATOM      2  O   UNL     1      -1.204   2.837   0.023  0.00  0.00    -0.276 OA
ATOM      3  N   UNL     1      -0.011   0.966   0.007  0.00  0.00    -0.315 N 
ATOM      4  H   UNL     1       0.004  -0.134   0.006  0.00  0.00    +0.149 HD
ENDROOT
BRANCH   1   5
ATOM      5  C   UNL     1      -2.482   0.853   0.018  0.00  0.00    +0.150 C 
BRANCH   5  15
ATOM      6  C   UNL     1      -4.955   0.617   4.650  0.00  0.00    +0.002 A 
ATOM      7  C   UNL     1      -3.974   1.586   4.744  0.00  0.00    +0.004 A 
ATOM      8  C   UNL     1      -3.525   2.235   3.608  0.00  0.00    +0.047 A 
ATOM      9  C   UNL     1      -4.058   1.912   2.373  0.00  0.00    +0.143 A 
ATOM     10  C   UNL     1      -5.032   0.919   2.275  0.00  0.00    +0.076 A 
ATOM     11  C   UNL     1      -5.488   0.284   3.418  0.00  0.00    +0.027 A 
ATOM     12  N   UNL     1      -5.554   0.589   1.017  0.00  0.00    -0.280 N 
ATOM     13  C   UNL     1      -4.951   1.064  -0.093  0.00  0.00    +0.259 C 
ATOM     14  O   UNL     1      -5.446   0.874  -1.184  0.00  0.00    -0.271 OA
ATOM     15  C   UNL     1      -3.658   1.831   0.029  0.00  0.00    +0.268 C 
ATOM     16  O   UNL     1      -3.652   2.569   1.253  0.00  0.00    -0.477 OA
ATOM     17  H   UNL     1      -6.446  -0.050   0.943  0.00  0.00    +0.155 HD
ENDBRANCH   5  15
ENDBRANCH   1   5
BRANCH   3  18
ATOM     18  C   UNL     1       1.248   1.716  -0.001  0.00  0.00    +0.109 C 
BRANCH  18  19
ATOM     19  C   UNL     1       2.424   0.737  -0.017  0.00  0.00    +0.054 C 
BRANCH  19  20
ATOM     20  C   UNL     1       3.719   1.508  -0.025  0.00  0.00    -0.042 A 
ATOM     21  C   UNL     1       4.303   1.863  -1.227  0.00  0.00    +0.007 A 
ATOM     22  C   UNL     1       5.487   2.575  -1.240  0.00  0.00    +0.050 A 
ATOM     23  C   UNL     1       6.099   2.925  -0.047  0.00  0.00    +0.166 A 
ATOM     24  C   UNL     1       5.513   2.563   1.164  0.00  0.00    +0.166 A 
ATOM     25  C   UNL     1       4.322   1.855   1.169  0.00  0.00    +0.053 A 
ATOM     26  O   UNL     1       6.299   3.020   2.182  0.00  0.00    -0.453 OA
ATOM     27  C   UNL     1       7.577   3.307   1.583  0.00  0.00    +0.466 C 
ATOM     28  O   UNL     1       7.252   3.608   0.213  0.00  0.00    -0.453 OA
ENDBRANCH  19  20
ENDBRANCH  18  19
ENDBRANCH   3  18
TORSDOF 5
