REMARK  Name = ZINC26273342
REMARK  10 active torsions:
REMARK  status: ('A' for Active; 'I' for Inactive)
REMARK    1  A    between atoms: C_1  and  C_2
REMARK    2  A    between atoms: C_2  and  C_3
REMARK    3  A    between atoms: C_3  and  C_4
REMARK    4  A    between atoms: C_4  and  C_5
REMARK    5  A    between atoms: C_5  and  C_7
REMARK    6  A    between atoms: C_5  and  N_23
REMARK    7  A    between atoms: C_26  and  C_31
REMARK    8  A    between atoms: C_31  and  C_32
REMARK    9  A    between atoms: C_32  and  C_33
REMARK   10  A    between atoms: C_33  and  N_34
REMARK                            x       y       z     vdW  Elec       q    Type
REMARK                         _______ _______ _______ _____ _____    ______ ____
ROOT
ATOM      1  C   UNL     1      -3.123   4.367   1.895  0.00  0.00    +0.171 C 
ENDROOT
BRANCH   1   2
ATOM      2  C   UNL     1      -3.168   5.831   1.540  0.00  0.00    +0.237 C 
ATOM      3  O   UNL     1      -2.307   6.310   0.834  0.00  0.00    -0.274 OA
ATOM      4  N   UNL     1      -4.165   6.607   2.009  0.00  0.00    -0.300 N 
ATOM      5  C   UNL     1      -4.271   8.015   1.602  0.00  0.00    +0.108 C 
ATOM      6  C   UNL     1      -4.332   8.891   2.853  0.00  0.00    +0.030 C 
ATOM      7  C   UNL     1      -5.455   8.401   3.762  0.00  0.00    -0.001 C 
ATOM      8  C   UNL     1      -6.807   8.513   3.034  0.00  0.00    +0.016 C 
ATOM      9  C   UNL     1      -7.770   8.879   4.184  0.00  0.00    +0.036 C 
ATOM     10  C   UNL     1      -6.907   9.566   5.221  0.00  0.00    -0.044 A 
ATOM     11  C   UNL     1      -5.573   9.290   4.977  0.00  0.00    -0.038 A 
ATOM     12  C   UNL     1      -4.598   9.819   5.805  0.00  0.00    +0.004 A 
ATOM     13  C   UNL     1      -4.953  10.620   6.874  0.00  0.00    +0.000 A 
ATOM     14  C   UNL     1      -6.285  10.895   7.118  0.00  0.00    +0.000 A 
ATOM     15  C   UNL     1      -7.259  10.368   6.293  0.00  0.00    +0.004 A 
ATOM     16  C   UNL     1      -5.211   6.955   4.186  0.00  0.00    +0.030 C 
ATOM     17  C   UNL     1      -5.162   6.062   2.941  0.00  0.00    +0.108 C 
ENDBRANCH   1   2
BRANCH   1  18
ATOM     18  N   UNL     1      -1.843   3.799   1.463  0.00  0.00    -0.212 N 
ATOM     19  C   UNL     1      -0.947   3.227   2.297  0.00  0.00    +0.244 C 
ATOM     20  O   UNL     1      -1.044   3.090   3.498  0.00  0.00    -0.273 OA
ATOM     21  C   UNL     1       0.205   2.789   1.415  0.00  0.00    +0.161 C 
ATOM     22  N   UNL     1      -0.210   3.204   0.064  0.00  0.00    -0.288 N 
ATOM     23  C   UNL     1      -1.417   3.784   0.194  0.00  0.00    +0.310 C 
ATOM     24  O   UNL     1      -2.050   4.242  -0.736  0.00  0.00    -0.252 OA
ATOM     25  H   UNL     1       0.447   3.012  -0.797  0.00  0.00    +0.151 HD
BRANCH  21  26
ATOM     26  C   UNL     1       0.386   1.271   1.480  0.00  0.00    +0.033 C 
BRANCH  26  27
ATOM     27  C   UNL     1       1.598   0.865   0.639  0.00  0.00    +0.023 C 
BRANCH  27  28
ATOM     28  C   UNL     1       1.778  -0.653   0.703  0.00  0.00    +0.115 C 
BRANCH  28  29
ATOM     29  N   UNL     1       2.938  -1.041  -0.102  0.00  0.00    -0.358 N 
ATOM     30  C   UNL     1       3.994  -1.543   0.475  0.00  0.00    +0.166 C 
ATOM     31  N   UNL     1       3.973  -1.824   1.821  0.00  0.00    -0.372 N 
ATOM     32  N   UNL     1       5.128  -1.791  -0.261  0.00  0.00    -0.372 N 
ATOM     33  H   UNL     1       4.864  -2.248   2.308  0.00  0.00    +0.159 HD
ATOM     34  H   UNL     1       3.066  -1.626   2.410  0.00  0.00    +0.159 HD
ATOM     35  H   UNL     1       6.019  -2.214   0.226  0.00  0.00    +0.159 HD
ATOM     36  H   UNL     1       5.145  -1.566  -1.338  0.00  0.00    +0.159 HD
ATOM     37  H   UNL     1       2.919  -0.910  -1.194  0.00  0.00    +0.162 HD
ENDBRANCH  28  29
ENDBRANCH  27  28
ENDBRANCH  26  27
ENDBRANCH  21  26
ENDBRANCH   1  18
BRANCH   1  38
ATOM     38  C   UNL     1      -4.268   3.636   1.191  0.00  0.00    +0.032 C 
BRANCH  38  39
ATOM     39  C   UNL     1      -4.319   2.184   1.671  0.00  0.00    +0.002 C 
BRANCH  39  41
ATOM     40  C   UNL     1      -5.515   0.002   1.448  0.00  0.00    +0.004 C 
ATOM     41  C   UNL     1      -5.465   1.454   0.968  0.00  0.00    -0.003 C 
ENDBRANCH  39  41
ENDBRANCH  38  39
ENDBRANCH   1  38
TORSDOF 9
