REMARK  Name = ZINC13521464
REMARK  9 active torsions:
REMARK  status: ('A' for Active; 'I' for Inactive)
REMARK    1  A    between atoms: C_1  and  C_2
REMARK    2  A    between atoms: C_4  and  C_32
REMARK    3  A    between atoms: C_6  and  N_8
REMARK    4  A    between atoms: N_8  and  C_9
REMARK    5  A    between atoms: N_8  and  S_18
REMARK    6  A    between atoms: C_9  and  C_10
REMARK    7  A    between atoms: N_12  and  C_13
REMARK    8  A    between atoms: S_18  and  C_21
REMARK    9  A    between atoms: C_22  and  C_31
REMARK                            x       y       z     vdW  Elec       q    Type
REMARK                         _______ _______ _______ _____ _____    ______ ____
ROOT
ATOM      1  N   UNL     1       0.190  -2.050   2.765  0.00  0.00    -0.194 N 
ENDROOT
BRANCH   1   7
ATOM      2  C   UNL     1      -0.372   0.230  -1.553  0.00  0.00    +0.044 C 
ATOM      3  C   UNL     1       0.088   0.227  -0.118  0.00  0.00    -0.048 A 
ATOM      4  C   UNL     1       0.672   1.358   0.422  0.00  0.00    +0.006 A 
ATOM      5  C   UNL     1       1.097   1.360   1.738  0.00  0.00    -0.048 A 
ATOM      6  C   UNL     1       0.938   0.231   2.518  0.00  0.00    +0.028 A 
ATOM      7  C   UNL     1       0.352  -0.907   1.979  0.00  0.00    +0.052 A 
ATOM      8  C   UNL     1      -0.078  -0.903   0.658  0.00  0.00    +0.028 A 
ATOM      9  C   UNL     1       1.733   2.595   2.322  0.00  0.00    +0.044 C 
ENDBRANCH   1   7
BRANCH   1  10
ATOM     10  S   UNL     1      -0.677  -1.971   4.173  0.00  0.00    +0.082 S 
ATOM     11  O   UNL     1      -0.147  -2.971   5.033  0.00  0.00    -0.150 OA
ATOM     12  O   UNL     1      -0.729  -0.600   4.541  0.00  0.00    -0.150 OA
BRANCH  10  13
ATOM     13  C   UNL     1      -2.329  -2.455   3.796  0.00  0.00    +0.192 A 
ATOM     14  C   UNL     1      -2.742  -3.719   4.030  0.00  0.00    +0.049 A 
ATOM     15  N   UNL     1      -4.028  -4.078   3.732  0.00  0.00    -0.310 N 
ATOM     16  H   UNL     1      -4.325  -4.986   3.900  0.00  0.00    +0.170 HD
ATOM     17  C   UNL     1      -4.885  -3.183   3.207  0.00  0.00    +0.327 A 
ATOM     18  O   UNL     1      -6.023  -3.523   2.950  0.00  0.00    -0.247 OA
ATOM     19  N   UNL     1      -4.500  -1.916   2.964  0.00  0.00    -0.273 N 
ATOM     20  H   UNL     1      -5.130  -1.284   2.586  0.00  0.00    +0.173 HD
ATOM     21  C   UNL     1      -3.242  -1.522   3.249  0.00  0.00    +0.281 A 
ATOM     22  O   UNL     1      -2.894  -0.375   3.034  0.00  0.00    -0.266 OA
ATOM     23  C   UNL     1      -1.791  -4.729   4.618  0.00  0.00    +0.065 C 
ENDBRANCH  10  13
ENDBRANCH   1  10
BRANCH   1  24
ATOM     24  C   UNL     1       0.788  -3.320   2.342  0.00  0.00    +0.227 C 
BRANCH  24  25
ATOM     25  C   UNL     1       2.255  -3.322   2.684  0.00  0.00    +0.232 C 
ATOM     26  O   UNL     1       2.753  -2.359   3.227  0.00  0.00    -0.274 OA
ATOM     27  N   UNL     1       3.015  -4.395   2.387  0.00  0.00    -0.311 N 
ATOM     28  H   UNL     1       2.616  -5.166   1.953  0.00  0.00    +0.149 HD
BRANCH  27  29
ATOM     29  C   UNL     1       4.441  -4.398   2.720  0.00  0.00    +0.073 C 
ATOM     30  C   UNL     1       4.648  -4.922   4.156  0.00  0.00    +0.022 C 
ATOM     31  C   UNL     1       4.966  -6.426   3.969  0.00  0.00    +0.002 C 
ATOM     32  C   UNL     1       5.838  -6.436   2.690  0.00  0.00    +0.002 C 
ATOM     33  C   UNL     1       5.198  -5.360   1.788  0.00  0.00    +0.022 C 
ENDBRANCH  27  29
ENDBRANCH  24  25
ENDBRANCH   1  24
TORSDOF 6
