REMARK  Name = ZINC40372133
REMARK  5 active torsions:
REMARK  status: ('A' for Active; 'I' for Inactive)
REMARK    1  A    between atoms: C_1  and  C_2
REMARK    2  A    between atoms: C_5  and  C_9
REMARK    3  A    between atoms: N_11  and  C_12
REMARK    4  A    between atoms: C_12  and  C_17
REMARK    5  A    between atoms: N_18  and  O_19
REMARK                            x       y       z     vdW  Elec       q    Type
REMARK                         _______ _______ _______ _____ _____    ______ ____
ROOT
ATOM      1  C   UNL     1       1.164  -4.364   1.914  0.00  0.00    +0.245 C 
ATOM      2  O   UNL     1       2.043  -5.048   2.399  0.00  0.00    -0.270 OA
ATOM      3  N   UNL     1       0.141  -4.946   1.257  0.00  0.00    -0.299 N 
ATOM      4  H   UNL     1      -0.597  -4.406   0.933  0.00  0.00    +0.150 HD
ENDROOT
BRANCH   1   9
ATOM      5  C   UNL     1       1.373   1.366   2.425  0.00  0.00    +0.047 C 
ATOM      6  C   UNL     1       1.317  -0.134   2.291  0.00  0.00    -0.015 A 
ATOM      7  C   UNL     1       2.318  -0.912   2.844  0.00  0.00    +0.007 A 
ATOM      8  C   UNL     1       2.274  -2.286   2.725  0.00  0.00    +0.013 A 
ATOM      9  C   UNL     1       1.216  -2.892   2.045  0.00  0.00    +0.039 A 
ATOM     10  C   UNL     1       0.208  -2.103   1.489  0.00  0.00    +0.051 A 
ATOM     11  C   UNL     1       0.261  -0.728   1.619  0.00  0.00    +0.127 A 
ATOM     12  F   UNL     1      -0.716   0.038   1.087  0.00  0.00    -0.205 F 
ENDBRANCH   1   9
BRANCH   3  13
ATOM     13  C   UNL     1       0.145  -6.393   1.031  0.00  0.00    +0.093 C 
ATOM     14  C   UNL     1      -1.126  -6.825   0.259  0.00  0.00    +0.033 C 
ATOM     15  C   UNL     1      -2.198  -6.892   1.375  0.00  0.00    +0.003 C 
ATOM     16  C   UNL     1      -1.443  -7.465   2.591  0.00  0.00    +0.003 C 
ATOM     17  C   UNL     1       0.047  -7.149   2.373  0.00  0.00    +0.033 C 
BRANCH  13  18
ATOM     18  C   UNL     1       1.386  -6.806   0.283  0.00  0.00    +0.155 C 
ATOM     19  N   UNL     1       2.161  -7.718   0.770  0.00  0.00    -0.075 NA
ATOM     20  N   UNL     1       1.694  -6.212  -0.921  0.00  0.00    -0.342 N 
ATOM     21  H   UNL     1       1.076  -5.582  -1.323  0.00  0.00    +0.144 HD
ATOM     22  H   UNL     1       2.529  -6.425  -1.367  0.00  0.00    +0.144 HD
BRANCH  19  23
ATOM     23  O   UNL     1       3.327  -8.106   0.067  0.00  0.00    -0.408 OA
ATOM     24  H   UNL     1       3.843  -8.793   0.510  0.00  0.00    +0.328 HD
ENDBRANCH  19  23
ENDBRANCH  13  18
ENDBRANCH   3  13
TORSDOF 4
