REMARK  Name = ZINC67502157
REMARK  4 active torsions:
REMARK  status: ('A' for Active; 'I' for Inactive)
REMARK    1  A    between atoms: C_4  and  C_7
REMARK    2  A    between atoms: C_10  and  N_12
REMARK    3  A    between atoms: C_13  and  C_15
REMARK    4  A    between atoms: C_18  and  N_22
REMARK                            x       y       z     vdW  Elec       q    Type
REMARK                         _______ _______ _______ _____ _____    ______ ____
ROOT
ATOM      1  N   UNL     1       5.363  -1.736  -1.702  0.00  0.00    -0.308 N 
ATOM      2  C   UNL     1       5.608  -2.099  -2.976  0.00  0.00    +0.246 C 
ATOM      3  O   UNL     1       4.684  -2.347  -3.726  0.00  0.00    -0.270 OA
ATOM      4  H   UNL     1       6.101  -1.538  -1.104  0.00  0.00    +0.149 HD
ENDROOT
BRANCH   2   5
ATOM      5  C   UNL     1       7.000  -2.196  -3.463  0.00  0.00    +0.055 A 
ATOM      6  C   UNL     1       8.064  -1.918  -2.603  0.00  0.00    +0.017 A 
ATOM      7  C   UNL     1       9.361  -2.010  -3.063  0.00  0.00    +0.033 A 
ATOM      8  C   UNL     1       9.610  -2.378  -4.374  0.00  0.00    +0.128 A 
ATOM      9  C   UNL     1       8.561  -2.655  -5.232  0.00  0.00    +0.053 A 
ATOM     10  C   UNL     1       7.257  -2.572  -4.783  0.00  0.00    +0.055 A 
ATOM     11 CL   UNL     1       5.942  -2.926  -5.859  0.00  0.00    -0.083 Cl
BRANCH   8  12
ATOM     12  N   UNL     1      11.004  -2.474  -4.860  0.00  0.00    +0.056 N 
ATOM     13  O   UNL     1      11.923  -2.233  -4.112  0.00  0.00    -0.126 OA
ATOM     14  O   UNL     1      11.225  -2.795  -6.005  0.00  0.00    -0.126 OA
ENDBRANCH   8  12
ENDBRANCH   2   5
BRANCH   1  17
ATOM     15  C   UNL     1       3.711  -0.707  -0.038  0.00  0.00    +0.041 C 
ATOM     16  C   UNL     1       3.675  -2.224   0.162  0.00  0.00    +0.033 C 
ATOM     17  C   UNL     1       3.983  -1.640  -1.219  0.00  0.00    +0.081 C 
BRANCH  15  21
ATOM     18  C   UNL     1      -0.017   1.378   0.010  0.00  0.00    +0.000 A 
ATOM     19  C   UNL     1       1.171   2.086   0.002  0.00  0.00    +0.000 A 
ATOM     20  C   UNL     1       2.377   1.411  -0.013  0.00  0.00    +0.004 A 
ATOM     21  C   UNL     1       2.396   0.029  -0.020  0.00  0.00    -0.042 A 
ATOM     22  C   UNL     1       1.208  -0.679  -0.012  0.00  0.00    +0.004 A 
ATOM     23  C   UNL     1       0.002  -0.004   0.002  0.00  0.00    +0.000 A 
ENDBRANCH  15  21
ENDBRANCH   1  17
TORSDOF 4
