REMARK  Name = ZINC09501502
REMARK  4 active torsions:
REMARK  status: ('A' for Active; 'I' for Inactive)
REMARK    1  A    between atoms: C_1  and  O_2
REMARK    2  A    between atoms: O_2  and  C_3
REMARK    3  A    between atoms: C_8  and  C_14
REMARK    4  A    between atoms: N_15  and  N_16
REMARK                            x       y       z     vdW  Elec       q    Type
REMARK                         _______ _______ _______ _____ _____    ______ ____
ROOT
ATOM      1  C   UNL     1       6.198   6.100   0.161  0.00  0.00    +0.141 C 
ATOM      2  N   UNL     1       6.197   7.398   0.168  0.00  0.00    -0.189 NA
ENDROOT
BRANCH   2   3
ATOM      3  N   UNL     1       7.393   8.101  -0.028  0.00  0.00    -0.220 N 
ATOM      4  C   UNL     1       7.391   9.484  -0.021  0.00  0.00    +0.150 A 
ATOM      5  C   UNL     1       8.497  10.208  -0.548  0.00  0.00    +0.052 A 
ATOM      6  C   UNL     1       9.733   9.694  -1.140  0.00  0.00    -0.025 A 
ATOM      7  C   UNL     1      10.632  10.603  -1.567  0.00  0.00    -0.004 A 
ATOM      8  S   UNL     1       9.900  12.179  -1.212  0.00  0.00    -0.073 S 
ATOM      9  C   UNL     1       8.384  11.612  -0.488  0.00  0.00    +0.114 A 
ATOM     10  N   UNL     1       7.319  12.197   0.024  0.00  0.00    -0.228 NA
ATOM     11  C   UNL     1       6.324  11.471   0.498  0.00  0.00    +0.224 A 
ATOM     12  N   UNL     1       6.359  10.151   0.469  0.00  0.00    -0.219 NA
ATOM     13  C   UNL     1      11.962  10.336  -2.203  0.00  0.00    +0.043 C 
ATOM     14  C   UNL     1      12.326   8.864  -1.964  0.00  0.00    +0.005 C 
ATOM     15  C   UNL     1      11.114   7.995  -2.316  0.00  0.00    +0.005 C 
ATOM     16  C   UNL     1      10.010   8.199  -1.278  0.00  0.00    +0.037 C 
ATOM     17  H   UNL     1       8.222   7.617  -0.168  0.00  0.00    +0.176 HD
ENDBRANCH   2   3
BRANCH   1  23
ATOM     18  C   UNL     1       1.268   2.053   0.958  0.00  0.00    +0.122 A 
ATOM     19  C   UNL     1       2.431   1.300   0.768  0.00  0.00    +0.046 A 
ATOM     20  C   UNL     1       3.629   1.910   0.567  0.00  0.00    +0.013 A 
ATOM     21  C   UNL     1       3.708   3.314   0.561  0.00  0.00    +0.001 A 
ATOM     22  C   UNL     1       4.934   3.970   0.361  0.00  0.00    +0.022 A 
ATOM     23  C   UNL     1       4.939   5.361   0.367  0.00  0.00    +0.032 A 
ATOM     24  C   UNL     1       3.732   6.057   0.571  0.00  0.00    +0.139 A 
ATOM     25  N   UNL     1       2.601   5.423   0.755  0.00  0.00    -0.234 NA
ATOM     26  C   UNL     1       2.535   4.086   0.759  0.00  0.00    +0.076 A 
ATOM     27  C   UNL     1       1.311   3.429   0.959  0.00  0.00    +0.074 A 
ATOM     28 CL   UNL     1       3.744   7.793   0.578  0.00  0.00    -0.061 Cl
BRANCH  18  30
ATOM     29  C   UNL     1       0.101  -0.009   1.141  0.00  0.00    +0.277 C 
ATOM     30  O   UNL     1       0.082   1.419   1.152  0.00  0.00    -0.495 OA
ENDBRANCH  18  30
ENDBRANCH   1  23
TORSDOF 3
