REMARK  Name = ZINC14094206
REMARK  6 active torsions:
REMARK  status: ('A' for Active; 'I' for Inactive)
REMARK    1  A    between atoms: C_1  and  C_2
REMARK    2  A    between atoms: C_2  and  C_4
REMARK    3  A    between atoms: C_2  and  S_13
REMARK    4  A    between atoms: C_4  and  C_6
REMARK    5  A    between atoms: S_13  and  C_14
REMARK    6  A    between atoms: C_18  and  N_20
REMARK                            x       y       z     vdW  Elec       q    Type
REMARK                         _______ _______ _______ _____ _____    ______ ____
ROOT
ATOM      1  S   UNL     1      -0.894   2.102  -1.456  0.00  0.00    -0.075 S 
ENDROOT
BRANCH   1   2
ATOM      2  C   UNL     1      -0.901   3.832  -1.122  0.00  0.00    +0.192 A 
ATOM      3  N   UNL     1      -0.341   4.277  -0.006  0.00  0.00    -0.207 NA
ATOM      4  C   UNL     1      -0.323   5.577   0.277  0.00  0.00    +0.122 A 
ATOM      5  C   UNL     1      -0.913   6.472  -0.612  0.00  0.00    +0.086 A 
ATOM      6  C   UNL     1      -1.496   5.967  -1.771  0.00  0.00    +0.122 A 
ATOM      7  N   UNL     1      -1.472   4.655  -1.990  0.00  0.00    -0.207 NA
ATOM      8  N   UNL     1       0.269   6.034   1.444  0.00  0.00    -0.343 N 
ATOM      9  H   UNL     1       0.275   6.983   1.645  0.00  0.00    +0.144 HD
ATOM     10  H   UNL     1       0.678   5.405   2.058  0.00  0.00    +0.144 HD
BRANCH   6  11
ATOM     11  N   UNL     1      -2.094   6.821  -2.685  0.00  0.00    -0.343 N 
ATOM     12  H   UNL     1      -2.499   6.463  -3.490  0.00  0.00    +0.144 HD
ATOM     13  H   UNL     1      -2.108   7.777  -2.518  0.00  0.00    +0.144 HD
ENDBRANCH   6  11
ENDBRANCH   1   2
BRANCH   1  15
ATOM     14  C   UNL     1       1.417   2.032  -0.001  0.00  0.00    +0.028 C 
ATOM     15  C   UNL     1      -0.018   1.503   0.010  0.00  0.00    +0.122 C 
BRANCH  15  16
ATOM     16  C   UNL     1       0.002  -0.004   0.002  0.00  0.00    +0.176 C 
ATOM     17  O   UNL     1      -0.091  -0.606  -1.046  0.00  0.00    -0.291 OA
BRANCH  16  18
ATOM     18  C   UNL     1       0.135  -0.745   1.266  0.00  0.00    +0.020 A 
ATOM     19  C   UNL     1       0.155  -2.144   1.263  0.00  0.00    +0.011 A 
ATOM     20  C   UNL     1       0.280  -2.831   2.451  0.00  0.00    +0.002 A 
ATOM     21  C   UNL     1       0.387  -2.142   3.646  0.00  0.00    +0.020 A 
ATOM     22  C   UNL     1       0.369  -0.757   3.659  0.00  0.00    +0.042 A 
ATOM     23  C   UNL     1       0.249  -0.055   2.477  0.00  0.00    +0.031 A 
ATOM     24 CL   UNL     1       0.503   0.097   5.164  0.00  0.00    -0.084 Cl
ENDBRANCH  16  18
ENDBRANCH  15  16
ENDBRANCH   1  15
TORSDOF 5
