REMARK  Name = ZINC59011307
REMARK  7 active torsions:
REMARK  status: ('A' for Active; 'I' for Inactive)
REMARK    1  A    between atoms: C_1  and  C_2
REMARK    2  A    between atoms: C_2  and  C_28
REMARK    3  A    between atoms: N_5  and  C_9
REMARK    4  A    between atoms: C_9  and  C_10
REMARK    5  A    between atoms: N_12  and  C_13
REMARK    6  A    between atoms: C_15  and  C_24
REMARK    7  A    between atoms: C_18  and  N_19
REMARK                            x       y       z     vdW  Elec       q    Type
REMARK                         _______ _______ _______ _____ _____    ______ ____
ROOT
ATOM      1  C   UNL     1      -2.601  -3.391   1.226  0.00  0.00    +0.235 C 
ATOM      2  O   UNL     1      -1.708  -3.763   0.494  0.00  0.00    -0.274 OA
ATOM      3  N   UNL     1      -3.595  -4.238   1.559  0.00  0.00    -0.282 N 
ATOM      4  H   UNL     1      -4.265  -3.969   2.207  0.00  0.00    +0.155 HD
ENDROOT
BRANCH   3   5
ATOM      5  C   UNL     1      -3.660  -5.507   0.972  0.00  0.00    +0.060 A 
ATOM      6  C   UNL     1      -3.083  -5.729  -0.270  0.00  0.00    +0.037 A 
ATOM      7  C   UNL     1      -3.148  -6.982  -0.848  0.00  0.00    +0.057 A 
ATOM      8  C   UNL     1      -3.788  -8.019  -0.192  0.00  0.00    +0.014 A 
ATOM      9  C   UNL     1      -4.365  -7.807   1.045  0.00  0.00    +0.030 A 
ATOM     10  C   UNL     1      -4.300  -6.553   1.635  0.00  0.00    +0.088 A 
BRANCH  10  11
ATOM     11  N   UNL     1      -4.881  -6.337   2.893  0.00  0.00    -0.218 N 
ATOM     12  C   UNL     1      -5.442  -7.264   3.694  0.00  0.00    +0.225 A 
ATOM     13  N   UNL     1      -5.866  -6.662   4.776  0.00  0.00    -0.222 NA
ATOM     14  C   UNL     1      -5.596  -5.359   4.704  0.00  0.00    +0.245 A 
ATOM     15  N   UNL     1      -4.988  -5.112   3.573  0.00  0.00    -0.153 NA
ENDBRANCH  10  11
BRANCH   7  16
ATOM     16  C   UNL     1      -2.521  -7.221  -2.198  0.00  0.00    +0.417 C 
ATOM     17  F   UNL     1      -1.192  -7.624  -2.029  0.00  0.00    -0.166 F 
ATOM     18  F   UNL     1      -3.230  -8.221  -2.871  0.00  0.00    -0.166 F 
ATOM     19  F   UNL     1      -2.559  -6.039  -2.945  0.00  0.00    -0.166 F 
ENDBRANCH   7  16
ENDBRANCH   3   5
BRANCH   1  20
ATOM     20  C   UNL     1      -2.599  -1.983   1.763  0.00  0.00    +0.214 C 
BRANCH  20  25
ATOM     21  C   UNL     1      -0.019   1.522  -0.003  0.00  0.00    +0.047 C 
ATOM     22  C   UNL     1       0.004  -0.008  -0.002  0.00  0.00    +0.141 C 
ATOM     23  C   UNL     1      -1.402  -0.562   0.111  0.00  0.00    +0.252 C 
ATOM     24  O   UNL     1      -2.316  -0.404  -0.668  0.00  0.00    -0.272 OA
ATOM     25  N   UNL     1      -1.423  -1.270   1.258  0.00  0.00    -0.215 N 
ATOM     26  C   UNL     1      -0.239  -1.239   1.879  0.00  0.00    +0.310 C 
ATOM     27  O   UNL     1      -0.013  -1.804   2.932  0.00  0.00    -0.252 OA
ATOM     28  N   UNL     1       0.675  -0.514   1.208  0.00  0.00    -0.281 N 
ATOM     29  H   UNL     1       1.595  -0.356   1.470  0.00  0.00    +0.152 HD
BRANCH  22  30
ATOM     30  C   UNL     1       0.685  -0.527  -1.242  0.00  0.00    +0.022 A 
ATOM     31  C   UNL     1       1.997  -0.800  -1.445  0.00  0.00    +0.014 A 
ATOM     32  C   UNL     1       2.400  -1.275  -2.679  0.00  0.00    +0.008 A 
ATOM     33  C   UNL     1       1.471  -1.454  -3.649  0.00  0.00    +0.045 A 
ATOM     34  S   UNL     1      -0.029  -0.951  -2.822  0.00  0.00    -0.099 S 
ENDBRANCH  22  30
ENDBRANCH  20  25
ENDBRANCH   1  20
TORSDOF 6
