REMARK  Name = ZINC15922881
REMARK  8 active torsions:
REMARK  status: ('A' for Active; 'I' for Inactive)
REMARK    1  A    between atoms: C_1  and  C_2
REMARK    2  A    between atoms: C_5  and  N_9
REMARK    3  A    between atoms: C_6  and  O_8
REMARK    4  A    between atoms: C_10  and  C_12
REMARK    5  A    between atoms: C_13  and  C_14
REMARK    6  A    between atoms: C_17  and  O_20
REMARK    7  A    between atoms: O_20  and  C_21
REMARK    8  A    between atoms: C_21  and  C_22
REMARK                            x       y       z     vdW  Elec       q    Type
REMARK                         _______ _______ _______ _____ _____    ______ ____
ROOT
ATOM      1  N   UNL     1      -0.011   0.966   0.007  0.00  0.00    -0.279 N 
ATOM      2  C   UNL     1       1.211   1.534  -0.021  0.00  0.00    +0.241 C 
ATOM      3  O   UNL     1       1.317   2.743  -0.118  0.00  0.00    -0.270 OA
ATOM      4  H   UNL     1      -0.096  -0.000   0.020  0.00  0.00    +0.155 HD
ENDROOT
BRANCH   1   9
ATOM      5  C   UNL     1      -4.657   4.228   0.028  0.00  0.00    +0.044 C 
ATOM      6  C   UNL     1      -3.425   3.361   0.024  0.00  0.00    -0.047 A 
ATOM      7  C   UNL     1      -2.304   3.759  -0.680  0.00  0.00    +0.005 A 
ATOM      8  C   UNL     1      -1.171   2.967  -0.688  0.00  0.00    +0.027 A 
ATOM      9  C   UNL     1      -1.157   1.770   0.013  0.00  0.00    +0.076 A 
ATOM     10  C   UNL     1      -2.290   1.367   0.718  0.00  0.00    +0.138 A 
ATOM     11  C   UNL     1      -3.419   2.169   0.725  0.00  0.00    +0.050 A 
BRANCH  10  12
ATOM     12  O   UNL     1      -2.284   0.192   1.402  0.00  0.00    -0.505 OA
ATOM     13  H   UNL     1      -1.984   0.271   2.318  0.00  0.00    +0.292 HD
ENDBRANCH  10  12
ENDBRANCH   1   9
BRANCH   2  14
ATOM     14  C   UNL     1       2.408   0.699   0.065  0.00  0.00    +0.068 C 
ATOM     15  C   UNL     1       3.631   1.269   0.036  0.00  0.00    +0.013 C 
BRANCH  15  16
ATOM     16  C   UNL     1       4.835   0.429   0.123  0.00  0.00    -0.025 A 
ATOM     17  C   UNL     1       4.715  -0.960   0.240  0.00  0.00    +0.011 A 
ATOM     18  C   UNL     1       5.845  -1.742   0.315  0.00  0.00    +0.046 A 
ATOM     19  C   UNL     1       7.104  -1.154   0.285  0.00  0.00    +0.122 A 
ATOM     20  C   UNL     1       7.229   0.227   0.174  0.00  0.00    +0.046 A 
ATOM     21  C   UNL     1       6.105   1.017   0.093  0.00  0.00    +0.011 A 
BRANCH  19  22
ATOM     22  O   UNL     1       8.216  -1.929   0.364  0.00  0.00    -0.477 OA
BRANCH  22  23
ATOM     23  C   UNL     1       8.016  -3.339   0.476  0.00  0.00    +0.346 C 
BRANCH  23  24
ATOM     24  C   UNL     1       9.322  -4.015   0.550  0.00  0.00    +0.104 C 
ATOM     25  N   UNL     1      10.329  -4.537   0.607  0.00  0.00    -0.193 NA
ENDBRANCH  23  24
ENDBRANCH  22  23
ENDBRANCH  19  22
ENDBRANCH  15  16
ENDBRANCH   2  14
TORSDOF 7
