REMARK  Name = ZINC62462984
REMARK  8 active torsions:
REMARK  status: ('A' for Active; 'I' for Inactive)
REMARK    1  A    between atoms: C_1  and  C_2
REMARK    2  A    between atoms: C_2  and  C_3
REMARK    3  A    between atoms: C_3  and  C_5
REMARK    4  A    between atoms: C_3  and  N_16
REMARK    5  A    between atoms: N_7  and  C_8
REMARK    6  A    between atoms: C_11  and  N_15
REMARK    7  A    between atoms: C_18  and  C_25
REMARK    8  A    between atoms: C_21  and  C_24
REMARK                            x       y       z     vdW  Elec       q    Type
REMARK                         _______ _______ _______ _____ _____    ______ ____
ROOT
ATOM      1  C   UNL     1       0.733  -2.005  -1.427  0.00  0.00    +0.204 C 
ATOM      2  O   UNL     1       0.328  -2.568  -2.423  0.00  0.00    -0.277 OA
ATOM      3  N   UNL     1       1.261  -2.721  -0.415  0.00  0.00    -0.286 N 
ATOM      4  H   UNL     1       1.528  -2.277   0.405  0.00  0.00    +0.155 HD
ENDROOT
BRANCH   3   5
ATOM      5  C   UNL     1       1.425  -4.107  -0.549  0.00  0.00    +0.052 A 
ATOM      6  C   UNL     1       0.571  -4.831  -1.369  0.00  0.00    +0.026 A 
ATOM      7  C   UNL     1       0.732  -6.196  -1.500  0.00  0.00    +0.024 A 
ATOM      8  C   UNL     1       1.749  -6.845  -0.812  0.00  0.00    +0.026 A 
ATOM      9  C   UNL     1       2.604  -6.121   0.008  0.00  0.00    +0.044 A 
ATOM     10  C   UNL     1       2.446  -4.755   0.136  0.00  0.00    +0.064 A 
ATOM     11 CL   UNL     1       3.519  -3.848   1.156  0.00  0.00    -0.082 Cl
BRANCH   8  12
ATOM     12  N   UNL     1       1.911  -8.228  -0.945  0.00  0.00    -0.358 N 
ATOM     13  H   UNL     1       1.314  -8.734  -1.517  0.00  0.00    +0.142 HD
ATOM     14  H   UNL     1       2.622  -8.682  -0.464  0.00  0.00    +0.142 HD
ENDBRANCH   8  12
ENDBRANCH   3   5
BRANCH   1  15
ATOM     15  C   UNL     1       0.644  -0.504  -1.323  0.00  0.00    +0.019 C 
BRANCH  15  16
ATOM     16  N   UNL     1       0.079   0.042  -2.564  0.00  0.00    +0.388 N 
ATOM     17  C   UNL     1      -1.256  -0.528  -2.784  0.00  0.00    -0.075 C 
ATOM     18  C   UNL     1      -1.882   0.098  -4.032  0.00  0.00    -0.031 C 
ATOM     19  C   UNL     1      -0.994  -0.197  -5.244  0.00  0.00    +0.003 C 
ATOM     20  C   UNL     1       0.416   0.336  -4.973  0.00  0.00    -0.031 C 
ATOM     21  C   UNL     1       0.957  -0.298  -3.690  0.00  0.00    -0.075 C 
ATOM     22  C   UNL     1       1.332  -0.021  -6.146  0.00  0.00    +0.005 C 
ATOM     23  C   UNL     1      -3.272  -0.499  -4.260  0.00  0.00    +0.005 C 
ATOM     24  H   UNL     1       0.006   1.045  -2.487  0.00  0.00    -0.081 HD
ENDBRANCH  15  16
BRANCH  15  26
ATOM     25  C   UNL     1      -0.222   1.389   0.059  0.00  0.00    +0.002 C 
ATOM     26  C   UNL     1      -0.256  -0.127  -0.144  0.00  0.00    -0.010 C 
ENDBRANCH  15  26
ENDBRANCH   1  15
TORSDOF 5
