REMARK  Name = ZINC20834814
REMARK  8 active torsions:
REMARK  status: ('A' for Active; 'I' for Inactive)
REMARK    1  A    between atoms: C_1  and  C_2
REMARK    2  A    between atoms: C_2  and  C_3
REMARK    3  A    between atoms: C_3  and  C_5
REMARK    4  A    between atoms: C_3  and  S_6
REMARK    5  A    between atoms: S_6  and  C_7
REMARK    6  A    between atoms: N_13  and  N_14
REMARK    7  A    between atoms: C_15  and  C_16
REMARK    8  A    between atoms: C_21  and  O_22
REMARK                            x       y       z     vdW  Elec       q    Type
REMARK                         _______ _______ _______ _____ _____    ______ ____
ROOT
ATOM      1  C   UNL     1      -3.926  -0.602  -1.300  0.00  0.00    +0.191 A 
ATOM      2  N   UNL     1      -4.944  -0.470  -2.202  0.00  0.00    -0.303 N 
ATOM      3  H   UNL     1      -4.880  -0.060  -3.079  0.00  0.00    +0.171 HD
ATOM      4  C   UNL     1      -6.069  -1.018  -1.651  0.00  0.00    +0.235 A 
ATOM      5  N   UNL     1      -5.758  -1.470  -0.460  0.00  0.00    -0.111 NA
ATOM      6  N   UNL     1      -4.400  -1.210  -0.239  0.00  0.00    -0.121 NA
ATOM      7  N   UNL     1      -7.319  -1.085  -2.248  0.00  0.00    -0.205 N 
ATOM      8  H   UNL     1      -7.452  -0.721  -3.137  0.00  0.00    +0.177 HD
ENDROOT
BRANCH   7   9
ATOM      9  N   UNL     1      -8.390  -1.678  -1.567  0.00  0.00    -0.187 NA
ATOM     10  C   UNL     1      -9.561  -1.740  -2.125  0.00  0.00    +0.142 C 
BRANCH  10  11
ATOM     11  C   UNL     1     -10.688  -2.363  -1.408  0.00  0.00    +0.037 A 
ATOM     12  C   UNL     1     -11.947  -2.438  -2.008  0.00  0.00    +0.033 A 
ATOM     13  C   UNL     1     -12.997  -3.023  -1.331  0.00  0.00    +0.042 A 
ATOM     14  C   UNL     1     -12.808  -3.538  -0.059  0.00  0.00    +0.023 A 
ATOM     15  C   UNL     1     -11.566  -3.469   0.545  0.00  0.00    +0.047 A 
ATOM     16  C   UNL     1     -10.500  -2.890  -0.123  0.00  0.00    +0.126 A 
ATOM     17 CL   UNL     1     -14.562  -3.115  -2.076  0.00  0.00    -0.084 Cl
BRANCH  16  18
ATOM     18  O   UNL     1      -9.278  -2.829   0.467  0.00  0.00    -0.506 OA
ATOM     19  H   UNL     1      -9.133  -2.028   0.990  0.00  0.00    +0.292 HD
ENDBRANCH  16  18
ENDBRANCH  10  11
ENDBRANCH   7   9
BRANCH   1  20
ATOM     20  S   UNL     1      -2.265  -0.057  -1.527  0.00  0.00    -0.083 S 
BRANCH  20  21
ATOM     21  C   UNL     1      -1.433  -0.534   0.013  0.00  0.00    +0.051 C 
ATOM     22  C   UNL     1      -1.413  -2.059   0.130  0.00  0.00    +0.019 C 
BRANCH  21  24
ATOM     23  C   UNL     1      -0.019   1.526   0.010  0.00  0.00    +0.005 C 
ATOM     24  C   UNL     1       0.002  -0.004   0.002  0.00  0.00    +0.011 C 
ENDBRANCH  21  24
ENDBRANCH  20  21
ENDBRANCH   1  20
TORSDOF 6
