REMARK  Name = ZINC44221097
REMARK  4 active torsions:
REMARK  status: ('A' for Active; 'I' for Inactive)
REMARK    1  A    between atoms: C_9  and  O_14
REMARK    2  A    between atoms: C_11  and  O_13
REMARK    3  A    between atoms: O_14  and  C_15
REMARK    4  A    between atoms: C_15  and  C_16
REMARK                            x       y       z     vdW  Elec       q    Type
REMARK                         _______ _______ _______ _____ _____    ______ ____
ROOT
ATOM      1  C   UNL     1      -0.017   1.375   0.010  0.00  0.00    +0.000 A 
ATOM      2  C   UNL     1       1.174   2.078   0.002  0.00  0.00    +0.000 A 
ATOM      3  C   UNL     1       2.372   1.395  -0.016  0.00  0.00    +0.006 A 
ATOM      4  C   UNL     1       2.393   0.006  -0.025  0.00  0.00    -0.014 A 
ATOM      5  C   UNL     1       1.208  -0.694  -0.013  0.00  0.00    -0.042 A 
ATOM      6  C   UNL     1       0.002  -0.004   0.002  0.00  0.00    +0.004 A 
ATOM      7  C   UNL     1       1.155  -2.199  -0.005  0.00  0.00    +0.038 C 
ATOM      8  C   UNL     1       2.493  -2.786  -0.452  0.00  0.00    +0.039 C 
ATOM      9  C   UNL     1       3.607  -2.135   0.376  0.00  0.00    +0.152 C 
ATOM     10  C   UNL     1       3.736  -0.675  -0.053  0.00  0.00    +0.173 C 
ENDROOT
BRANCH  10  11
ATOM     11  O   UNL     1       4.266  -0.619  -1.379  0.00  0.00    -0.385 OA
ATOM     12  H   UNL     1       4.392   0.279  -1.714  0.00  0.00    +0.210 HD
ENDBRANCH  10  11
BRANCH   9  13
ATOM     13  O   UNL     1       4.841  -2.817   0.143  0.00  0.00    -0.371 OA
BRANCH  13  14
ATOM     14  C   UNL     1       5.082  -3.905   1.037  0.00  0.00    +0.191 C 
BRANCH  14  15
ATOM     15  C   UNL     1       6.423  -4.559   0.697  0.00  0.00    +0.144 C 
ATOM     16  C   UNL     1       6.623  -5.799   1.571  0.00  0.00    +0.034 C 
ATOM     17  C   UNL     1       7.994  -6.412   1.267  0.00  0.00    +0.005 C 
ATOM     18  C   UNL     1       9.077  -5.355   1.501  0.00  0.00    +0.028 C 
ATOM     19  C   UNL     1       8.782  -4.132   0.629  0.00  0.00    +0.160 C 
ATOM     20  O   UNL     1       7.481  -3.629   0.940  0.00  0.00    -0.374 OA
ENDBRANCH  14  15
ENDBRANCH  13  14
ENDBRANCH   9  13
TORSDOF 4
