REMARK  Name = ZINC08791308
REMARK  6 active torsions:
REMARK  status: ('A' for Active; 'I' for Inactive)
REMARK    1  A    between atoms: C_1  and  C_2
REMARK    2  A    between atoms: C_17  and  C_19
REMARK    3  A    between atoms: C_19  and  C_20
REMARK    4  A    between atoms: N_25  and  C_28
REMARK    5  A    between atoms: C_28  and  C_29
REMARK    6  A    between atoms: C_29  and  C_30
REMARK                            x       y       z     vdW  Elec       q    Type
REMARK                         _______ _______ _______ _____ _____    ______ ____
ROOT
ATOM      1  C   UNL     1       4.303   0.723  -3.196  0.00  0.00    +0.044 C 
ATOM      2  C   UNL     1       3.926   2.129  -2.805  0.00  0.00    -0.049 A 
ATOM      3  C   UNL     1       2.671   2.390  -2.284  0.00  0.00    +0.008 A 
ATOM      4  C   UNL     1       2.327   3.675  -1.927  0.00  0.00    -0.026 A 
ATOM      5  C   UNL     1       3.230   4.722  -2.087  0.00  0.00    +0.054 A 
ATOM      6  C   UNL     1       4.492   4.450  -2.612  0.00  0.00    +0.063 A 
ATOM      7  C   UNL     1       4.832   3.160  -2.967  0.00  0.00    +0.025 A 
ATOM      8 CL   UNL     1       5.638   5.737  -2.820  0.00  0.00    -0.082 Cl
ATOM      9  N   UNL     1       2.657   5.923  -1.661  0.00  0.00    -0.285 N 
ATOM     10  C   UNL     1       1.399   5.755  -1.212  0.00  0.00    +0.211 C 
ATOM     11  O   UNL     1       0.662   6.617  -0.783  0.00  0.00    -0.277 OA
ATOM     12  C   UNL     1       1.085   4.290  -1.347  0.00  0.00    +0.050 C 
ATOM     13  C   UNL     1       0.729   3.667   0.009  0.00  0.00    +0.088 C 
ATOM     14  C   UNL     1      -0.825   3.644   0.033  0.00  0.00    +0.073 C 
ATOM     15  C   UNL     1      -1.252   4.285  -1.304  0.00  0.00    -0.049 C 
ATOM     16  C   UNL     1      -1.153   2.169   0.019  0.00  0.00    +0.224 C 
ATOM     17  O   UNL     1      -2.271   1.700   0.019  0.00  0.00    -0.275 OA
ATOM     18  N   UNL     1      -0.018   1.461   0.010  0.00  0.00    -0.241 N 
ATOM     19  C   UNL     1       1.098   2.200   0.003  0.00  0.00    +0.225 C 
ATOM     20  O   UNL     1       2.228   1.761  -0.006  0.00  0.00    -0.275 OA
ATOM     21  H   UNL     1       3.114   6.779  -1.685  0.00  0.00    +0.155 HD
ATOM     22  N   UNL     1      -0.087   4.099  -2.176  0.00  0.00    +0.394 N 
ATOM     23  H   UNL     1      -0.090   3.153  -2.573  0.00  0.00    -0.083 HD
ATOM     24  H   UNL     1      -0.100   4.790  -2.936  0.00  0.00    -0.083 HD
ENDROOT
BRANCH  15  25
ATOM     25  C   UNL     1      -2.487   3.576  -1.864  0.00  0.00    +0.080 C 
BRANCH  25  26
ATOM     26  C   UNL     1      -2.959   4.293  -3.103  0.00  0.00    +0.209 C 
ATOM     27  O   UNL     1      -2.366   5.273  -3.499  0.00  0.00    -0.276 OA
ATOM     28  N   UNL     1      -4.040   3.843  -3.770  0.00  0.00    -0.329 N 
ATOM     29  H   UNL     1      -4.515   3.059  -3.453  0.00  0.00    +0.145 HD
ATOM     30  H   UNL     1      -4.344   4.304  -4.567  0.00  0.00    +0.145 HD
ENDBRANCH  25  26
ENDBRANCH  15  25
BRANCH  18  31
ATOM     31  C   UNL     1       0.002  -0.004   0.002  0.00  0.00    +0.121 C 
BRANCH  31  32
ATOM     32  C   UNL     1       0.023  -0.522   1.442  0.00  0.00    +0.054 C 
BRANCH  32  33
ATOM     33  C   UNL     1       0.043  -2.029   1.433  0.00  0.00    -0.046 A 
ATOM     34  C   UNL     1      -1.144  -2.736   1.447  0.00  0.00    +0.004 A 
ATOM     35  C   UNL     1      -1.126  -4.118   1.434  0.00  0.00    +0.000 A 
ATOM     36  C   UNL     1       0.081  -4.793   1.419  0.00  0.00    +0.000 A 
ATOM     37  C   UNL     1       1.268  -4.086   1.411  0.00  0.00    +0.000 A 
ATOM     38  C   UNL     1       1.250  -2.703   1.418  0.00  0.00    +0.004 A 
ENDBRANCH  32  33
ENDBRANCH  31  32
ENDBRANCH  18  31
TORSDOF 5
