REMARK  Name = ZINC59293337
REMARK  8 active torsions:
REMARK  status: ('A' for Active; 'I' for Inactive)
REMARK    1  A    between atoms: C_4  and  C_7
REMARK    2  A    between atoms: C_13  and  C_27
REMARK    3  A    between atoms: C_14  and  C_21
REMARK    4  A    between atoms: C_16  and  C_19
REMARK    5  A    between atoms: C_17  and  N_18
REMARK    6  A    between atoms: N_29  and  C_30
REMARK    7  A    between atoms: C_30  and  C_31
REMARK    8  A    between atoms: C_31  and  N_32
REMARK                            x       y       z     vdW  Elec       q    Type
REMARK                         _______ _______ _______ _____ _____    ______ ____
ROOT
ATOM      1  C   UNL     1       3.679  -0.678   0.694  0.00  0.00    +0.028 C 
ATOM      2  C   UNL     1       3.708  -2.031   0.598  0.00  0.00    +0.079 A 
ATOM      3  C   UNL     1       4.862  -2.937   0.525  0.00  0.00    +0.271 A 
ATOM      4  O   UNL     1       5.997  -2.501   0.547  0.00  0.00    -0.266 OA
ATOM      5  N   UNL     1       4.632  -4.262   0.433  0.00  0.00    -0.257 N 
ATOM      6  C   UNL     1       3.319  -4.685   0.414  0.00  0.00    +0.099 A 
ATOM      7  C   UNL     1       2.934  -5.985   0.325  0.00  0.00    +0.057 C 
ATOM      8  C   UNL     1       4.010  -7.049   0.240  0.00  0.00    +0.100 C 
ATOM      9  C   UNL     1       5.438  -6.544   0.265  0.00  0.00    +0.079 C 
ATOM     10  C   UNL     1       5.656  -5.214   0.357  0.00  0.00    +0.118 C 
ATOM     11  S   UNL     1       2.353  -3.193   0.533  0.00  0.00    -0.065 S 
ENDROOT
BRANCH   1  15
ATOM     12  C   UNL     1      -0.001   1.322   1.358  0.00  0.00    +0.000 A 
ATOM     13  C   UNL     1       0.057  -0.059   1.440  0.00  0.00    +0.001 A 
ATOM     14  C   UNL     1       1.249  -0.717   1.226  0.00  0.00    +0.008 A 
ATOM     15  C   UNL     1       2.403   0.015   0.924  0.00  0.00    -0.024 A 
ATOM     16  C   UNL     1       2.337   1.410   0.843  0.00  0.00    +0.008 A 
ATOM     17  C   UNL     1       1.136   2.053   1.061  0.00  0.00    +0.001 A 
ENDBRANCH   1  15
BRANCH   8  18
ATOM     18  C   UNL     1       3.829  -7.995   1.399  0.00  0.00    -0.035 A 
ATOM     19  C   UNL     1       3.896  -7.521   2.696  0.00  0.00    +0.004 A 
ATOM     20  C   UNL     1       3.730  -8.389   3.759  0.00  0.00    +0.000 A 
ATOM     21  C   UNL     1       3.496  -9.731   3.525  0.00  0.00    +0.000 A 
ATOM     22  C   UNL     1       3.428 -10.205   2.229  0.00  0.00    +0.000 A 
ATOM     23  C   UNL     1       3.590  -9.337   1.166  0.00  0.00    +0.004 A 
ENDBRANCH   8  18
BRANCH   7  24
ATOM     24  C   UNL     1       1.574  -6.334   0.311  0.00  0.00    +0.244 C 
ATOM     25  O   UNL     1       0.721  -5.465   0.380  0.00  0.00    -0.270 OA
ATOM     26  N   UNL     1       1.211  -7.629   0.222  0.00  0.00    -0.310 N 
ATOM     27  H   UNL     1       1.889  -8.320   0.167  0.00  0.00    +0.149 HD
BRANCH  26  28
ATOM     28  C   UNL     1      -0.208  -7.993   0.208  0.00  0.00    +0.120 C 
BRANCH  28  29
ATOM     29  C   UNL     1      -0.344  -9.513   0.101  0.00  0.00    +0.103 C 
BRANCH  29  30
ATOM     30  N   UNL     1      -1.766  -9.878   0.087  0.00  0.00    -0.304 NA
ATOM     31  C   UNL     1      -2.424  -9.387  -1.132  0.00  0.00    +0.065 C 
ATOM     32  C   UNL     1      -3.913  -9.735  -1.080  0.00  0.00    -0.067 C 
ATOM     33  N   UNL     1      -4.073 -11.191  -0.970  0.00  0.00    +0.381 N 
ATOM     34  C   UNL     1      -3.432 -11.663   0.265  0.00  0.00    -0.067 C 
ATOM     35  C   UNL     1      -1.939 -11.331   0.224  0.00  0.00    +0.065 C 
ATOM     36  H   UNL     1      -5.055 -11.421  -0.948  0.00  0.00    -0.086 HD
ATOM     37  H   UNL     1      -3.641 -11.638  -1.765  0.00  0.00    -0.086 HD
ENDBRANCH  29  30
ENDBRANCH  28  29
ENDBRANCH  26  28
ENDBRANCH   7  24
BRANCH  10  38
ATOM     38  N   UNL     1       6.956  -4.770   0.378  0.00  0.00    -0.343 N 
ATOM     39  H   UNL     1       7.175  -3.930   0.812  0.00  0.00    +0.144 HD
ATOM     40  H   UNL     1       7.655  -5.296  -0.041  0.00  0.00    +0.144 HD
ENDBRANCH  10  38
BRANCH   9  41
ATOM     41  C   UNL     1       6.537  -7.459   0.191  0.00  0.00    +0.099 C 
ATOM     42  N   UNL     1       7.409  -8.185   0.133  0.00  0.00    -0.191 NA
ENDBRANCH   9  41
TORSDOF 8
