REMARK  Name = ZINC65534765
REMARK  9 active torsions:
REMARK  status: ('A' for Active; 'I' for Inactive)
REMARK    1  A    between atoms: C_1  and  C_2
REMARK    2  A    between atoms: C_4  and  C_8
REMARK    3  A    between atoms: C_8  and  C_9
REMARK    4  A    between atoms: C_9  and  C_11
REMARK    5  A    between atoms: C_9  and  N_12
REMARK    6  A    between atoms: C_13  and  C_15
REMARK    7  A    between atoms: N_20  and  C_26
REMARK    8  A    between atoms: C_26  and  C_27
REMARK    9  A    between atoms: C_26  and  C_28
REMARK                            x       y       z     vdW  Elec       q    Type
REMARK                         _______ _______ _______ _____ _____    ______ ____
ROOT
ATOM      1  C   UNL     1       4.255  -0.456  -3.016  0.00  0.00    +0.101 C 
ATOM      2  C   UNL     1       5.544  -0.315  -3.377  0.00  0.00    +0.021 C 
ATOM      3  C   UNL     1       5.550   0.742  -4.446  0.00  0.00    +0.084 C 
ATOM      4  C   UNL     1       6.366   0.456  -5.661  0.00  0.00    -0.053 C 
ATOM      5  N   UNL     1       6.160   1.420  -6.740  0.00  0.00    +0.382 N 
ATOM      6  C   UNL     1       5.008   1.106  -7.564  0.00  0.00    -0.077 C 
ATOM      7  C   UNL     1       3.739   1.843  -7.026  0.00  0.00    -0.002 C 
ATOM      8  C   UNL     1       3.885   2.030  -5.509  0.00  0.00    +0.104 C 
ATOM      9  N   UNL     1       4.113   0.722  -4.900  0.00  0.00    -0.224 NA
ATOM     10  N   UNL     1       3.451   0.434  -3.753  0.00  0.00    -0.273 N 
ATOM     11  H   UNL     1       2.584   0.779  -3.489  0.00  0.00    +0.167 HD
ATOM     12  H   UNL     1       6.032   2.336  -6.338  0.00  0.00    -0.081 HD
ENDROOT
BRANCH   1  14
ATOM     13  N   UNL     1       2.441  -1.466  -1.723  0.00  0.00    -0.307 N 
ATOM     14  C   UNL     1       3.758  -1.406  -2.002  0.00  0.00    +0.259 C 
ATOM     15  O   UNL     1       4.537  -2.135  -1.418  0.00  0.00    -0.269 OA
ATOM     16  H   UNL     1       1.820  -0.885  -2.188  0.00  0.00    +0.149 HD
BRANCH  13  17
ATOM     17  C   UNL     1       1.948  -2.410  -0.716  0.00  0.00    +0.076 C 
ATOM     18  C   UNL     1       1.723  -3.777  -1.366  0.00  0.00    +0.028 C 
BRANCH  17  19
ATOM     19  C   UNL     1       0.627  -1.896  -0.139  0.00  0.00    +0.076 C 
BRANCH  19  23
ATOM     20  C   UNL     1       1.292   3.035   0.945  0.00  0.00    +0.067 C 
ATOM     21  C   UNL     1       1.164   1.542   1.097  0.00  0.00    +0.060 A 
ATOM     22  C   UNL     1       0.914   0.631   0.066  0.00  0.00    +0.047 A 
ATOM     23  C   UNL     1       0.872  -0.609   0.606  0.00  0.00    +0.038 A 
ATOM     24  N   UNL     1       1.087  -0.487   1.933  0.00  0.00    -0.281 N 
ATOM     25  H   UNL     1       1.113  -1.212   2.576  0.00  0.00    +0.189 HD
ATOM     26  N   UNL     1       1.273   0.872   2.216  0.00  0.00    -0.179 NA
ENDBRANCH  19  23
ENDBRANCH  17  19
ENDBRANCH  13  17
ENDBRANCH   1  14
BRANCH   5  27
ATOM     27  C   UNL     1       7.358   1.442  -7.590  0.00  0.00    -0.075 C 
ATOM     28  C   UNL     1       7.523   0.084  -8.275  0.00  0.00    -0.014 C 
ATOM     29  C   UNL     1       7.211   2.534  -8.651  0.00  0.00    -0.014 C 
ENDBRANCH   5  27
TORSDOF 5
