REMARK  Name = ZINC39980712
REMARK  7 active torsions:
REMARK  status: ('A' for Active; 'I' for Inactive)
REMARK    1  A    between atoms: C_1  and  C_2
REMARK    2  A    between atoms: C_5  and  C_19
REMARK    3  A    between atoms: C_6  and  N_12
REMARK    4  A    between atoms: N_12  and  C_13
REMARK    5  A    between atoms: C_13  and  C_14
REMARK    6  A    between atoms: C_25  and  O_31
REMARK    7  A    between atoms: O_31  and  C_32
REMARK                            x       y       z     vdW  Elec       q    Type
REMARK                         _______ _______ _______ _____ _____    ______ ____
ROOT
ATOM      1  C   UNL     1      -0.018   1.503   0.010  0.00  0.00    +0.047 C 
ATOM      2  C   UNL     1       0.002  -0.004   0.002  0.00  0.00    -0.011 C 
ATOM      3  C   UNL     1      -1.180  -0.674   0.004  0.00  0.00    +0.126 C 
ATOM      4  N   UNL     1      -2.458  -0.207   0.013  0.00  0.00    -0.237 NA
ATOM      5  C   UNL     1      -3.342  -1.145   0.013  0.00  0.00    +0.071 C 
ATOM      6  C   UNL     1      -2.600  -2.465   0.002  0.00  0.00    +0.190 C 
ATOM      7  N   UNL     1      -1.188  -2.065  -0.003  0.00  0.00    -0.290 N 
ATOM      8  C   UNL     1       0.070  -2.811  -0.014  0.00  0.00    +0.135 C 
ATOM      9  C   UNL     1       1.362  -2.021  -0.017  0.00  0.00    -0.008 C 
ATOM     10  C   UNL     1       1.287  -0.687  -0.014  0.00  0.00    +0.004 C 
ENDROOT
BRANCH   5  11
ATOM     11  C   UNL     1      -4.838  -0.962   0.022  0.00  0.00    +0.146 C 
ATOM     12  C   UNL     1      -5.127   0.511  -0.190  0.00  0.00    +0.001 C 
ATOM     13  C   UNL     1      -5.850   1.151   0.768  0.00  0.00    -0.006 A 
ATOM     14  C   UNL     1      -6.173   2.574   0.637  0.00  0.00    +0.013 A 
ATOM     15  C   UNL     1      -6.895   3.177   1.611  0.00  0.00    +0.046 A 
ATOM     16  C   UNL     1      -7.337   2.467   2.737  0.00  0.00    +0.122 A 
ATOM     17  C   UNL     1      -7.065   1.128   2.915  0.00  0.00    +0.069 A 
ATOM     18  C   UNL     1      -6.324   0.421   1.959  0.00  0.00    +0.044 A 
ATOM     19  N   UNL     1      -6.066  -0.876   2.143  0.00  0.00    -0.284 N 
ATOM     20  C   UNL     1      -5.375  -1.601   1.282  0.00  0.00    +0.230 C 
ATOM     21  O   UNL     1      -5.173  -2.781   1.503  0.00  0.00    -0.274 OA
ATOM     22  H   UNL     1      -6.402  -1.305   2.945  0.00  0.00    +0.155 HD
BRANCH  16  23
ATOM     23  O   UNL     1      -8.056   3.120   3.681  0.00  0.00    -0.495 OA
ATOM     24  C   UNL     1      -8.314   4.507   3.456  0.00  0.00    +0.277 C 
ENDBRANCH  16  23
ENDBRANCH   5  11
BRANCH   6  25
ATOM     25  N   UNL     1      -2.927  -3.233  -1.207  0.00  0.00    -0.287 NA
ATOM     26  H   UNL     1      -3.722  -2.834  -1.684  0.00  0.00    +0.124 HD
BRANCH  25  27
ATOM     27  C   UNL     1      -3.161  -4.647  -0.886  0.00  0.00    +0.157 C 
BRANCH  27  28
ATOM     28  C   UNL     1      -3.494  -5.400  -2.148  0.00  0.00    +0.119 A 
ATOM     29  C   UNL     1      -2.608  -6.008  -2.957  0.00  0.00    +0.046 A 
ATOM     30  C   UNL     1      -3.349  -6.587  -4.014  0.00  0.00    +0.041 A 
ATOM     31  C   UNL     1      -4.643  -6.298  -3.786  0.00  0.00    +0.195 A 
ATOM     32  O   UNL     1      -4.725  -5.584  -2.651  0.00  0.00    -0.467 OA
ENDBRANCH  27  28
ENDBRANCH  25  27
ENDBRANCH   6  25
TORSDOF 5
