REMARK  Name = ZINC50834170
REMARK  6 active torsions:
REMARK  status: ('A' for Active; 'I' for Inactive)
REMARK    1  A    between atoms: C_1  and  C_2
REMARK    2  A    between atoms: C_2  and  N_3
REMARK    3  A    between atoms: N_3  and  C_4
REMARK    4  A    between atoms: C_5  and  C_9
REMARK    5  A    between atoms: C_9  and  S_10
REMARK    6  A    between atoms: S_10  and  C_11
REMARK                            x       y       z     vdW  Elec       q    Type
REMARK                         _______ _______ _______ _____ _____    ______ ____
ROOT
ATOM      1  S   UNL     1       0.907  -1.483   4.886  0.00  0.00    -0.080 S 
ENDROOT
BRANCH   1   2
ATOM      2  C   UNL     1       1.808  -0.609   6.123  0.00  0.00    +0.192 A 
ATOM      3  N   UNL     1       3.072  -0.251   6.065  0.00  0.00    -0.122 NA
ATOM      4  N   UNL     1       3.398   0.378   7.139  0.00  0.00    -0.134 NA
ATOM      5  C   UNL     1       2.373   0.459   7.935  0.00  0.00    +0.134 A 
ATOM      6  N   UNL     1       1.329  -0.171   7.319  0.00  0.00    -0.306 N 
ATOM      7  C   UNL     1      -0.020  -0.348   7.855  0.00  0.00    +0.125 C 
ATOM      8  C   UNL     1      -0.337   0.801   8.817  0.00  0.00    +0.022 C 
ATOM      9  C   UNL     1       0.110   0.429  10.230  0.00  0.00    +0.002 C 
ATOM     10  C   UNL     1       1.617   0.197  10.274  0.00  0.00    +0.008 C 
ATOM     11  C   UNL     1       2.314   1.126   9.284  0.00  0.00    +0.076 C 
ENDBRANCH   1   2
BRANCH   1  12
ATOM     12  C   UNL     1       2.123  -1.758   3.569  0.00  0.00    +0.137 C 
BRANCH  12  14
ATOM     13  C   UNL     1       0.859  -1.858   1.401  0.00  0.00    +0.110 A 
ATOM     14  C   UNL     1       1.473  -2.507   2.434  0.00  0.00    +0.103 A 
ATOM     15  N   UNL     1       1.466  -3.820   2.383  0.00  0.00    -0.143 NA
ATOM     16  N   UNL     1       0.894  -4.408   1.387  0.00  0.00    -0.108 NA
ATOM     17  S   UNL     1       0.321  -3.139   0.454  0.00  0.00    +0.052 S 
BRANCH  13  18
ATOM     18  N   UNL     1       0.711  -0.489   1.189  0.00  0.00    -0.336 N 
ATOM     19  H   UNL     1       1.077   0.142   1.827  0.00  0.00    +0.147 HD
BRANCH  18  21
ATOM     20  C   UNL     1      -0.019   1.526   0.010  0.00  0.00    +0.024 C 
ATOM     21  C   UNL     1       0.002  -0.004   0.002  0.00  0.00    +0.099 C 
ENDBRANCH  18  21
ENDBRANCH  13  18
ENDBRANCH  12  14
ENDBRANCH   1  12
TORSDOF 5
