REMARK  Name = ZINC34988152
REMARK  9 active torsions:
REMARK  status: ('A' for Active; 'I' for Inactive)
REMARK    1  A    between atoms: C_13  and  S_23
REMARK    2  A    between atoms: C_14  and  N_15
REMARK    3  A    between atoms: N_16  and  C_17
REMARK    4  A    between atoms: C_17  and  C_18
REMARK    5  A    between atoms: C_18  and  O_19
REMARK    6  A    between atoms: O_19  and  C_20
REMARK    7  A    between atoms: C_20  and  C_21
REMARK    8  A    between atoms: C_21  and  O_22
REMARK    9  A    between atoms: S_23  and  C_26
REMARK                            x       y       z     vdW  Elec       q    Type
REMARK                         _______ _______ _______ _____ _____    ______ ____
ROOT
ATOM      1  C   UNL     1       0.272   1.597  -0.063  0.00  0.00    +0.005 A 
ATOM      2  C   UNL     1       1.509   2.251  -0.179  0.00  0.00    +0.018 A 
ATOM      3  C   UNL     1       2.652   1.535  -0.218  0.00  0.00    +0.096 A 
ATOM      4  N   UNL     1       2.627   0.172  -0.146  0.00  0.00    -0.268 N 
ATOM      5  C   UNL     1       1.437  -0.497  -0.032  0.00  0.00    +0.143 A 
ATOM      6  C   UNL     1       0.232   0.240   0.011  0.00  0.00    +0.047 A 
ATOM      7  N   UNL     1       1.373  -1.821   0.040  0.00  0.00    -0.211 NA
ATOM      8  C   UNL     1       2.469  -2.589   0.006  0.00  0.00    +0.150 A 
ATOM      9  C   UNL     1       3.739  -1.969  -0.110  0.00  0.00    +0.084 A 
ATOM     10  C   UNL     1       3.796  -0.510  -0.189  0.00  0.00    +0.268 A 
ATOM     11  O   UNL     1       4.860   0.072  -0.290  0.00  0.00    -0.267 OA
ATOM     12  C   UNL     1       4.893  -2.759  -0.147  0.00  0.00    +0.047 A 
ATOM     13  C   UNL     1       4.749  -4.117  -0.069  0.00  0.00    +0.132 A 
ATOM     14  C   UNL     1       3.472  -4.673   0.044  0.00  0.00    +0.124 A 
ATOM     15  N   UNL     1       2.387  -3.918   0.079  0.00  0.00    -0.310 N 
ENDROOT
BRANCH  14  16
ATOM     16  N   UNL     1       3.339  -6.049   0.123  0.00  0.00    -0.343 N 
ATOM     17  H   UNL     1       4.128  -6.610   0.176  0.00  0.00    +0.144 HD
ATOM     18  H   UNL     1       2.456  -6.452   0.124  0.00  0.00    +0.144 HD
ENDBRANCH  14  16
BRANCH  13  19
ATOM     19  S   UNL     1       6.168  -5.161  -0.112  0.00  0.00    +0.028 S 
ATOM     20  O   UNL     1       5.882  -6.197  -1.042  0.00  0.00    -0.164 OA
ATOM     21  O   UNL     1       7.296  -4.307  -0.246  0.00  0.00    -0.164 OA
BRANCH  19  22
ATOM     22  C   UNL     1       6.300  -5.926   1.470  0.00  0.00    +0.094 A 
ATOM     23  C   UNL     1       6.898  -5.250   2.517  0.00  0.00    +0.029 A 
ATOM     24  C   UNL     1       7.002  -5.849   3.758  0.00  0.00    +0.022 A 
ATOM     25  C   UNL     1       6.507  -7.126   3.952  0.00  0.00    +0.041 A 
ATOM     26  C   UNL     1       5.908  -7.802   2.904  0.00  0.00    +0.022 A 
ATOM     27  C   UNL     1       5.800  -7.200   1.665  0.00  0.00    +0.029 A 
ATOM     28 CL   UNL     1       6.637  -7.880   5.511  0.00  0.00    -0.084 Cl
ENDBRANCH  19  22
ENDBRANCH  13  19
BRANCH  15  29
ATOM     29  C   UNL     1       1.072  -4.552   0.198  0.00  0.00    +0.153 C 
BRANCH  29  30
ATOM     30  C   UNL     1       0.519  -4.846  -1.197  0.00  0.00    +0.181 C 
BRANCH  30  31
ATOM     31  O   UNL     1      -0.764  -5.465  -1.080  0.00  0.00    -0.376 OA
BRANCH  31  32
ATOM     32  C   UNL     1      -1.373  -5.782  -2.334  0.00  0.00    +0.187 C 
BRANCH  32  33
ATOM     33  C   UNL     1      -2.734  -6.436  -2.089  0.00  0.00    +0.184 C 
BRANCH  33  34
ATOM     34  O   UNL     1      -3.611  -5.493  -1.470  0.00  0.00    -0.393 OA
ATOM     35  H   UNL     1      -4.495  -5.840  -1.285  0.00  0.00    +0.209 HD
ENDBRANCH  33  34
ENDBRANCH  32  33
ENDBRANCH  31  32
ENDBRANCH  30  31
ENDBRANCH  29  30
ENDBRANCH  15  29
TORSDOF 9
