REMARK  Name = ZINC04713774
REMARK  7 active torsions:
REMARK  status: ('A' for Active; 'I' for Inactive)
REMARK    1  A    between atoms: C_1  and  C_2
REMARK    2  A    between atoms: C_2  and  N_3
REMARK    3  A    between atoms: N_3  and  N_4
REMARK    4  A    between atoms: C_5  and  C_7
REMARK    5  A    between atoms: C_12  and  O_13
REMARK    6  A    between atoms: C_15  and  C_16
REMARK    7  A    between atoms: N_18  and  C_19
REMARK                            x       y       z     vdW  Elec       q    Type
REMARK                         _______ _______ _______ _____ _____    ______ ____
ROOT
ATOM      1  C   UNL     1       0.001   1.054   0.130  0.00  0.00    +0.062 C 
ATOM      2  C   UNL     1      -0.674   1.498  -1.142  0.00  0.00    +0.024 C 
ATOM      3  C   UNL     1      -2.004   1.726  -1.155  0.00  0.00    +0.087 C 
ENDROOT
BRANCH   3   4
ATOM      4  C   UNL     1      -2.619   2.256  -2.313  0.00  0.00    +0.239 C 
ATOM      5  O   UNL     1      -1.972   2.402  -3.334  0.00  0.00    -0.271 OA
ATOM      6  N   UNL     1      -3.922   2.599  -2.287  0.00  0.00    -0.306 N 
ATOM      7  H   UNL     1      -4.423   2.541  -1.458  0.00  0.00    +0.150 HD
BRANCH   6   8
ATOM      8  C   UNL     1      -4.583   3.062  -3.510  0.00  0.00    +0.036 C 
ATOM      9  C   UNL     1      -3.838   4.278  -4.064  0.00  0.00    +0.029 C 
ATOM     10  C   UNL     1      -4.528   4.760  -5.341  0.00  0.00    -0.008 C 
ATOM     11  C   UNL     1      -5.974   5.149  -5.024  0.00  0.00    +0.007 C 
ATOM     12  C   UNL     1      -6.719   3.933  -4.471  0.00  0.00    -0.008 C 
ATOM     13  C   UNL     1      -6.029   3.450  -3.193  0.00  0.00    +0.029 C 
ATOM     14  C   UNL     1      -6.708   2.811  -5.511  0.00  0.00    +0.007 C 
ATOM     15  C   UNL     1      -5.263   2.422  -5.828  0.00  0.00    -0.008 C 
ATOM     16  C   UNL     1      -4.517   3.639  -6.382  0.00  0.00    +0.007 C 
ATOM     17  C   UNL     1      -4.572   1.940  -4.550  0.00  0.00    +0.029 C 
ENDBRANCH   6   8
ENDBRANCH   3   4
BRANCH   2  18
ATOM     18  N   UNL     1       0.060   1.671  -2.282  0.00  0.00    -0.268 N 
ATOM     19  H   UNL     1      -0.357   2.041  -3.076  0.00  0.00    +0.170 HD
BRANCH  18  20
ATOM     20  N   UNL     1       1.414   1.313  -2.304  0.00  0.00    -0.233 N 
ATOM     21  C   UNL     1       2.164   1.578  -3.392  0.00  0.00    +0.264 C 
ATOM     22  O   UNL     1       1.645   2.043  -4.388  0.00  0.00    -0.269 OA
ATOM     23  H   UNL     1       1.812   0.875  -1.535  0.00  0.00    +0.173 HD
BRANCH  21  24
ATOM     24  C   UNL     1       3.613   1.303  -3.374  0.00  0.00    +0.081 A 
ATOM     25  C   UNL     1       4.194   0.666  -2.274  0.00  0.00    +0.036 A 
ATOM     26  C   UNL     1       5.549   0.411  -2.264  0.00  0.00    +0.042 A 
ATOM     27  C   UNL     1       6.338   0.786  -3.341  0.00  0.00    +0.023 A 
ATOM     28  C   UNL     1       5.777   1.416  -4.433  0.00  0.00    +0.047 A 
ATOM     29  C   UNL     1       4.414   1.674  -4.462  0.00  0.00    +0.129 A 
ATOM     30 CL   UNL     1       6.270  -0.380  -0.897  0.00  0.00    -0.084 Cl
BRANCH  29  31
ATOM     31  O   UNL     1       3.860   2.289  -5.537  0.00  0.00    -0.506 OA
ATOM     32  H   UNL     1       3.845   3.254  -5.474  0.00  0.00    +0.292 HD
ENDBRANCH  29  31
ENDBRANCH  21  24
ENDBRANCH  18  20
ENDBRANCH   2  18
TORSDOF 6
