REMARK  Name = ZINC14459581
REMARK  5 active torsions:
REMARK  status: ('A' for Active; 'I' for Inactive)
REMARK    1  A    between atoms: C_1  and  O_2
REMARK    2  A    between atoms: O_2  and  C_3
REMARK    3  A    between atoms: C_7  and  C_10
REMARK    4  A    between atoms: C_8  and  O_9
REMARK    5  A    between atoms: C_21  and  C_26
REMARK                            x       y       z     vdW  Elec       q    Type
REMARK                         _______ _______ _______ _____ _____    ______ ____
ROOT
ATOM      1  C   UNL     1       2.460   3.930  -0.000  0.00  0.00    +0.109 C 
ATOM      2  C   UNL     1       2.910   4.215   1.421  0.00  0.00    +0.029 C 
ATOM      3  C   UNL     1       1.902   4.904   2.350  0.00  0.00    +0.033 C 
ATOM      4  C   UNL     1       2.323   4.364   3.718  0.00  0.00    -0.030 C 
ATOM      5  C   UNL     1       2.925   3.189   3.576  0.00  0.00    -0.023 C 
ATOM      6  C   UNL     1       2.930   2.830   2.135  0.00  0.00    +0.049 C 
ATOM      7  C   UNL     1       4.013   2.024   1.531  0.00  0.00    -0.018 A 
ATOM      8  C   UNL     1       4.757   1.129   2.261  0.00  0.00    +0.025 A 
ATOM      9  C   UNL     1       5.756   0.374   1.640  0.00  0.00    +0.052 A 
ATOM     10  C   UNL     1       5.995   0.534   0.272  0.00  0.00    +0.020 A 
ATOM     11  C   UNL     1       5.253   1.436  -0.454  0.00  0.00    +0.024 A 
ATOM     12  C   UNL     1       4.260   2.194   0.161  0.00  0.00    +0.031 A 
ATOM     13  N   UNL     1       3.534   3.110  -0.602  0.00  0.00    -0.336 N 
ATOM     14  H   UNL     1       3.737   3.210  -1.545  0.00  0.00    +0.147 HD
ENDROOT
BRANCH   1  19
ATOM     15  C   UNL     1      -1.240   3.135   0.030  0.00  0.00    +0.162 A 
ATOM     16  C   UNL     1      -1.220   1.749   0.017  0.00  0.00    +0.049 A 
ATOM     17  C   UNL     1      -0.013   1.076   0.008  0.00  0.00    +0.004 A 
ATOM     18  C   UNL     1       1.176   1.782   0.000  0.00  0.00    +0.009 A 
ATOM     19  C   UNL     1       1.163   3.164   0.008  0.00  0.00    +0.018 A 
ATOM     20  C   UNL     1      -0.044   3.845   0.023  0.00  0.00    +0.163 A 
BRANCH  15  22
ATOM     21  C   UNL     1      -3.615   3.004   0.051  0.00  0.00    +0.277 C 
ATOM     22  O   UNL     1      -2.427   3.799   0.044  0.00  0.00    -0.491 OA
ENDBRANCH  15  22
BRANCH  20  23
ATOM     23  O   UNL     1      -0.059   5.205   0.030  0.00  0.00    -0.503 OA
ATOM     24  H   UNL     1      -0.072   5.603  -0.852  0.00  0.00    +0.292 HD
ENDBRANCH  20  23
ENDBRANCH   1  19
BRANCH   9  25
ATOM     25  C   UNL     1       6.531  -0.559   2.401  0.00  0.00    +0.099 C 
ATOM     26  N   UNL     1       7.146  -1.299   3.005  0.00  0.00    -0.191 NA
ENDBRANCH   9  25
TORSDOF 4
