REMARK  Name = ZINC54947075
REMARK  11 active torsions:
REMARK  status: ('A' for Active; 'I' for Inactive)
REMARK    1  A    between atoms: C_1  and  C_2
REMARK    2  A    between atoms: C_2  and  C_3
REMARK    3  A    between atoms: C_3  and  C_4
REMARK    4  A    between atoms: C_10  and  C_12
REMARK    5  A    between atoms: N_14  and  C_15
REMARK    6  A    between atoms: C_15  and  C_16
REMARK    7  A    between atoms: C_16  and  C_17
REMARK    8  A    between atoms: C_16  and  C_18
REMARK    9  A    between atoms: C_16  and  N_19
REMARK   10  A    between atoms: C_21  and  C_28
REMARK   11  A    between atoms: C_24  and  C_27
REMARK                            x       y       z     vdW  Elec       q    Type
REMARK                         _______ _______ _______ _____ _____    ______ ____
ROOT
ATOM      1  C   UNL     1       1.029  -8.377  -1.186  0.00  0.00    +0.299 C 
ATOM      2  O   UNL     1       2.055  -8.660  -0.603  0.00  0.00    -0.265 OA
ATOM      3  N   UNL     1       0.230  -9.356  -1.657  0.00  0.00    -0.309 N 
ATOM      4  H   UNL     1      -0.590  -9.130  -2.123  0.00  0.00    +0.149 HD
ENDROOT
BRANCH   1  11
ATOM      5  C   UNL     1       0.739  -2.004  -1.265  0.00  0.00    +0.104 A 
ATOM      6  N   UNL     1      -0.127  -2.861  -1.772  0.00  0.00    -0.145 NA
ATOM      7  N   UNL     1       0.039  -4.109  -1.694  0.00  0.00    -0.126 NA
ATOM      8  C   UNL     1       1.098  -4.637  -1.095  0.00  0.00    +0.188 A 
ATOM      9  S   UNL     1       1.949  -3.142  -0.597  0.00  0.00    -0.035 S 
ATOM     10  N   UNL     1       1.450  -5.968  -0.912  0.00  0.00    -0.255 N 
ATOM     11  C   UNL     1       0.651  -6.946  -1.383  0.00  0.00    +0.305 C 
ATOM     12  O   UNL     1      -0.375  -6.664  -1.967  0.00  0.00    -0.265 OA
ATOM     13  H   UNL     1       2.269  -6.193  -0.446  0.00  0.00    +0.157 HD
BRANCH   5  14
ATOM     14  C   UNL     1       0.718  -0.497  -1.257  0.00  0.00    +0.064 C 
BRANCH  14  16
ATOM     15  C   UNL     1      -0.019   1.526   0.010  0.00  0.00    +0.004 C 
ATOM     16  C   UNL     1       0.002  -0.004   0.002  0.00  0.00    +0.003 C 
ENDBRANCH  14  16
ENDBRANCH   5  14
ENDBRANCH   1  11
BRANCH   3  17
ATOM     17  C   UNL     1       0.601 -10.760  -1.464  0.00  0.00    +0.092 C 
BRANCH  17  18
ATOM     18  C   UNL     1      -0.468 -11.660  -2.088  0.00  0.00    -0.055 C 
ATOM     19  C   UNL     1      -0.081 -13.126  -1.887  0.00  0.00    -0.008 C 
ATOM     20  C   UNL     1      -1.816 -11.392  -1.417  0.00  0.00    -0.008 C 
BRANCH  18  21
ATOM     21  N   UNL     1      -0.570 -11.374  -3.526  0.00  0.00    +0.384 N 
ATOM     22  C   UNL     1       0.726 -11.623  -4.167  0.00  0.00    -0.075 C 
ATOM     23  C   UNL     1       0.647 -11.249  -5.648  0.00  0.00    -0.031 C 
ATOM     24  C   UNL     1      -0.431 -12.099  -6.327  0.00  0.00    +0.003 C 
ATOM     25  C   UNL     1      -1.764 -11.887  -5.603  0.00  0.00    -0.031 C 
ATOM     26  C   UNL     1      -1.596 -12.238  -4.123  0.00  0.00    -0.075 C 
ATOM     27  C   UNL     1      -2.192 -10.425  -5.737  0.00  0.00    +0.005 C 
ATOM     28  C   UNL     1       2.000 -11.511  -6.314  0.00  0.00    +0.005 C 
ATOM     29  H   UNL     1      -0.828 -10.407  -3.657  0.00  0.00    -0.081 HD
ENDBRANCH  18  21
ENDBRANCH  17  18
ENDBRANCH   3  17
TORSDOF 6
