REMARK  Name = ZINC45166514
REMARK  10 active torsions:
REMARK  status: ('A' for Active; 'I' for Inactive)
REMARK    1  A    between atoms: C_1  and  C_2
REMARK    2  A    between atoms: C_2  and  C_3
REMARK    3  A    between atoms: C_2  and  C_4
REMARK    4  A    between atoms: C_2  and  N_5
REMARK    5  A    between atoms: C_6  and  C_8
REMARK    6  A    between atoms: C_8  and  N_9
REMARK    7  A    between atoms: N_9  and  C_10
REMARK    8  A    between atoms: N_9  and  S_11
REMARK    9  A    between atoms: S_11  and  C_14
REMARK   10  A    between atoms: C_15  and  N_21
REMARK                            x       y       z     vdW  Elec       q    Type
REMARK                         _______ _______ _______ _____ _____    ______ ____
ROOT
ATOM      1  S   UNL     1       4.589   1.738  -3.903  0.00  0.00    +0.064 S 
ATOM      2  O   UNL     1       5.986   1.787  -4.156  0.00  0.00    -0.153 OA
ATOM      3  O   UNL     1       3.623   2.051  -4.897  0.00  0.00    -0.153 OA
ENDROOT
BRANCH   1   4
ATOM      4  C   UNL     1       4.284   2.819  -2.546  0.00  0.00    +0.144 A 
ATOM      5  C   UNL     1       3.005   3.313  -2.324  0.00  0.00    +0.053 A 
ATOM      6  C   UNL     1       2.768   4.166  -1.253  0.00  0.00    +0.025 A 
ATOM      7  C   UNL     1       3.805   4.520  -0.412  0.00  0.00    +0.003 A 
ATOM      8  C   UNL     1       5.078   4.028  -0.635  0.00  0.00    +0.022 A 
ATOM      9  C   UNL     1       5.316   3.173  -1.697  0.00  0.00    +0.069 A 
ATOM     10 CL   UNL     1       6.913   2.550  -1.968  0.00  0.00    -0.081 Cl
BRANCH   5  11
ATOM     11  N   UNL     1       1.958   2.954  -3.176  0.00  0.00    -0.356 N 
ATOM     12  H   UNL     1       2.043   2.174  -3.747  0.00  0.00    +0.142 HD
ATOM     13  H   UNL     1       1.146   3.484  -3.198  0.00  0.00    +0.142 HD
ENDBRANCH   5  11
ENDBRANCH   1   4
BRANCH   1  14
ATOM     14  N   UNL     1       4.255   0.200  -3.388  0.00  0.00    -0.171 NA
ATOM     15  C   UNL     1       5.311  -0.615  -2.782  0.00  0.00    +0.132 C 
BRANCH  14  16
ATOM     16  C   UNL     1       2.904  -0.346  -3.537  0.00  0.00    +0.204 C 
BRANCH  16  18
ATOM     17  N   UNL     1       0.858  -0.562  -2.164  0.00  0.00    -0.309 N 
ATOM     18  C   UNL     1       2.133  -0.137  -2.259  0.00  0.00    +0.229 C 
ATOM     19  O   UNL     1       2.660   0.414  -1.316  0.00  0.00    -0.274 OA
ATOM     20  H   UNL     1       0.436  -1.002  -2.918  0.00  0.00    +0.149 HD
BRANCH  17  22
ATOM     21  C   UNL     1       0.023   1.139  -0.618  0.00  0.00    +0.031 C 
ATOM     22  C   UNL     1       0.108  -0.358  -0.922  0.00  0.00    +0.026 C 
ATOM     23  C   UNL     1       0.822  -1.073   0.227  0.00  0.00    +0.031 C 
ATOM     24  C   UNL     1      -1.303  -0.928  -1.078  0.00  0.00    +0.031 C 
ENDBRANCH  17  22
ENDBRANCH  16  18
ENDBRANCH  14  16
ENDBRANCH   1  14
TORSDOF 6
