REMARK  Name = ZINC07780328
REMARK  5 active torsions:
REMARK  status: ('A' for Active; 'I' for Inactive)
REMARK    1  A    between atoms: C_1  and  C_2
REMARK    2  A    between atoms: C_3  and  C_7
REMARK    3  A    between atoms: N_9  and  N_10
REMARK    4  A    between atoms: C_11  and  C_13
REMARK    5  A    between atoms: C_14  and  C_15
REMARK                            x       y       z     vdW  Elec       q    Type
REMARK                         _______ _______ _______ _____ _____    ______ ____
ROOT
ATOM      1  N   UNL     1       2.345   8.413  -5.636  0.00  0.00    -0.231 N 
ATOM      2  C   UNL     1       1.677   8.240  -4.478  0.00  0.00    +0.253 C 
ATOM      3  O   UNL     1       1.367   9.205  -3.804  0.00  0.00    -0.269 OA
ATOM      4  H   UNL     1       2.592   7.644  -6.173  0.00  0.00    +0.173 HD
ENDROOT
BRANCH   1   7
ATOM      5  C   UNL     1       3.349   9.877  -7.222  0.00  0.00    +0.263 C 
ATOM      6  O   UNL     1       3.659   8.913  -7.895  0.00  0.00    -0.269 OA
ATOM      7  N   UNL     1       2.682   9.704  -6.064  0.00  0.00    -0.230 N 
ATOM      8  H   UNL     1       2.434  10.473  -5.527  0.00  0.00    +0.173 HD
BRANCH   5  11
ATOM      9  C   UNL     1       4.890  10.619  -9.851  0.00  0.00    +0.087 C 
ATOM     10  C   UNL     1       4.372  11.578  -8.810  0.00  0.00    +0.114 A 
ATOM     11  C   UNL     1       3.703  11.235  -7.672  0.00  0.00    +0.079 A 
ATOM     12  C   UNL     1       3.404  12.503  -6.991  0.00  0.00    +0.054 A 
ATOM     13  C   UNL     1       3.921  13.469  -7.766  0.00  0.00    +0.196 A 
ATOM     14  O   UNL     1       4.490  12.909  -8.845  0.00  0.00    -0.467 OA
ENDBRANCH   5  11
ENDBRANCH   1   7
BRANCH   2  15
ATOM     15  C   UNL     1       1.325   6.892  -4.031  0.00  0.00    +0.069 C 
ATOM     16  C   UNL     1       0.657   6.719  -2.871  0.00  0.00    +0.013 C 
BRANCH  16  17
ATOM     17  C   UNL     1       0.303   5.364  -2.422  0.00  0.00    -0.020 A 
ATOM     18  C   UNL     1      -0.390   5.182  -1.219  0.00  0.00    +0.057 A 
ATOM     19  C   UNL     1      -0.717   3.907  -0.806  0.00  0.00    +0.164 A 
ATOM     20  C   UNL     1      -0.361   2.807  -1.580  0.00  0.00    +0.180 A 
ATOM     21  C   UNL     1       0.327   2.983  -2.774  0.00  0.00    +0.087 A 
ATOM     22  C   UNL     1       0.659   4.254  -3.196  0.00  0.00    +0.031 A 
ATOM     23 CL   UNL     1       0.767   1.606  -3.734  0.00  0.00    -0.080 Cl
ATOM     24  O   UNL     1      -0.692   1.553  -1.159  0.00  0.00    -0.487 OA
ATOM     25  C   UNL     1      -0.013   1.086   0.008  0.00  0.00    +0.232 C 
ATOM     26  C   UNL     1      -0.712   1.570   1.269  0.00  0.00    +0.082 C 
ATOM     27  C   UNL     1      -0.661   3.083   1.414  0.00  0.00    +0.232 C 
ATOM     28  O   UNL     1      -1.394   3.716   0.364  0.00  0.00    -0.488 OA
ENDBRANCH  16  17
ENDBRANCH   2  15
TORSDOF 4
