REMARK  Name = ZINC37144347
REMARK  7 active torsions:
REMARK  status: ('A' for Active; 'I' for Inactive)
REMARK    1  A    between atoms: C_3  and  C_20
REMARK    2  A    between atoms: C_6  and  C_7
REMARK    3  A    between atoms: C_7  and  C_9
REMARK    4  A    between atoms: C_7  and  O_19
REMARK    5  A    between atoms: C_9  and  N_10
REMARK    6  A    between atoms: C_14  and  C_16
REMARK    7  A    between atoms: C_20  and  N_22
REMARK                            x       y       z     vdW  Elec       q    Type
REMARK                         _______ _______ _______ _____ _____    ______ ____
ROOT
ATOM      1  C   UNL     1      -1.627  -0.248   0.176  0.00  0.00    +0.128 C 
ENDROOT
BRANCH   1   7
ATOM      2  C   UNL     1      -0.546   1.994   0.438  0.00  0.00    +0.007 A 
ATOM      3  C   UNL     1       0.567   2.808   0.470  0.00  0.00    +0.010 A 
ATOM      4  C   UNL     1       1.836   2.260   0.272  0.00  0.00    +0.003 A 
ATOM      5  C   UNL     1       1.968   0.888   0.042  0.00  0.00    +0.010 A 
ATOM      6  C   UNL     1       0.847   0.086   0.012  0.00  0.00    +0.007 A 
ATOM      7  C   UNL     1      -0.407   0.636   0.209  0.00  0.00    -0.021 A 
BRANCH   4   8
ATOM      8  C   UNL     1       3.031   3.125   0.304  0.00  0.00    +0.077 C 
ATOM      9  S   UNL     1       3.093   4.459   1.375  0.00  0.00    -0.035 S 
BRANCH   8  10
ATOM     10  N   UNL     1       4.074   2.865  -0.509  0.00  0.00    -0.352 N 
ATOM     11  H   UNL     1       4.039   2.109  -1.116  0.00  0.00    +0.143 HD
ATOM     12  H   UNL     1       4.860   3.433  -0.488  0.00  0.00    +0.143 HD
ENDBRANCH   8  10
ENDBRANCH   4   8
ENDBRANCH   1   7
BRANCH   1  13
ATOM     13  O   UNL     1      -1.440  -1.283  -0.791  0.00  0.00    -0.389 OA
ATOM     14  H   UNL     1      -0.679  -1.853  -0.613  0.00  0.00    +0.210 HD
ENDBRANCH   1  13
BRANCH   1  15
ATOM     15  C   UNL     1      -1.843  -0.872   1.556  0.00  0.00    -0.041 C 
BRANCH  15  16
ATOM     16  N   UNL     1      -3.033  -1.733   1.524  0.00  0.00    +0.389 N 
ATOM     17  C   UNL     1      -4.243  -0.903   1.345  0.00  0.00    -0.078 C 
ATOM     18  C   UNL     1      -5.332  -1.602   2.197  0.00  0.00    -0.020 C 
ATOM     19  C   UNL     1      -4.510  -2.084   3.421  0.00  0.00    -0.008 C 
ATOM     20  C   UNL     1      -3.150  -2.465   2.798  0.00  0.00    +0.019 C 
ATOM     21  H   UNL     1      -2.957  -2.389   0.761  0.00  0.00    -0.081 HD
BRANCH  20  22
ATOM     22  C   UNL     1      -2.032  -2.063   3.725  0.00  0.00    +0.197 C 
ATOM     23  O   UNL     1      -1.874  -0.896   4.016  0.00  0.00    -0.278 OA
ATOM     24  N   UNL     1      -1.206  -3.001   4.231  0.00  0.00    -0.331 N 
ATOM     25  H   UNL     1      -1.332  -3.934   3.999  0.00  0.00    +0.145 HD
ATOM     26  H   UNL     1      -0.487  -2.743   4.828  0.00  0.00    +0.145 HD
ENDBRANCH  20  22
ENDBRANCH  15  16
ENDBRANCH   1  15
TORSDOF 7
