REMARK  Name = ZINC19961959
REMARK  5 active torsions:
REMARK  status: ('A' for Active; 'I' for Inactive)
REMARK    1  A    between atoms: C_2  and  N_9
REMARK    2  A    between atoms: C_10  and  C_12
REMARK    3  A    between atoms: C_12  and  C_13
REMARK    4  A    between atoms: C_21  and  C_23
REMARK    5  A    between atoms: C_23  and  N_24
REMARK                            x       y       z     vdW  Elec       q    Type
REMARK                         _______ _______ _______ _____ _____    ______ ____
ROOT
ATOM      1  C   UNL     1      -0.705   1.457   3.510  0.00  0.00    +0.170 C 
ATOM      2  C   UNL     1       0.350   1.935   4.470  0.00  0.00    +0.234 C 
ATOM      3  O   UNL     1       0.023   2.697   5.356  0.00  0.00    -0.274 OA
ATOM      4  N   UNL     1       1.627   1.560   4.393  0.00  0.00    -0.312 N 
ATOM      5  C   UNL     1       2.182   0.725   3.336  0.00  0.00    +0.123 C 
ATOM      6  C   UNL     1       1.077  -0.098   2.658  0.00  0.00    +0.127 C 
ATOM      7  N   UNL     1      -0.047   0.807   2.366  0.00  0.00    -0.289 N 
ATOM      8  C   UNL     1      -0.461   1.026   1.102  0.00  0.00    +0.200 C 
ATOM      9  O   UNL     1      -1.394   1.772   0.890  0.00  0.00    -0.278 OA
ATOM     10  H   UNL     1       2.276   1.926   5.202  0.00  0.00    +0.149 HD
ENDROOT
BRANCH   1  11
ATOM     11  C   UNL     1      -1.620   0.453   4.213  0.00  0.00    +0.128 C 
BRANCH  11  13
ATOM     12  N   UNL     1      -3.674  -0.824   3.692  0.00  0.00    -0.285 N 
ATOM     13  C   UNL     1      -2.739   0.057   3.284  0.00  0.00    +0.219 C 
ATOM     14  O   UNL     1      -2.798   0.531   2.169  0.00  0.00    -0.275 OA
ATOM     15  H   UNL     1      -3.573  -1.320   4.668  0.00  0.00    +0.155 HD
BRANCH  12  17
ATOM     16  C   UNL     1      -5.330  -2.380   2.874  0.00  0.00    +0.043 A 
ATOM     17  C   UNL     1      -4.772  -1.108   2.873  0.00  0.00    +0.036 A 
ATOM     18  C   UNL     1      -5.309  -0.117   2.061  0.00  0.00    +0.043 A 
ATOM     19  C   UNL     1      -6.391  -0.402   1.249  0.00  0.00    +0.044 A 
ATOM     20  C   UNL     1      -6.945  -1.670   1.252  0.00  0.00    +0.040 A 
ATOM     21  C   UNL     1      -6.415  -2.658   2.063  0.00  0.00    +0.044 A 
ATOM     22 CL   UNL     1      -7.113  -4.247   2.064  0.00  0.00    -0.083 Cl
ATOM     23 CL   UNL     1      -7.059   0.834   0.229  0.00  0.00    -0.083 Cl
ENDBRANCH  12  17
ENDBRANCH  11  13
ENDBRANCH   1  11
BRANCH   8  24
ATOM     24  C   UNL     1       0.235   0.344  -0.047  0.00  0.00    +0.019 C 
BRANCH  24  25
ATOM     25  N   UNL     1      -0.400   0.745  -1.310  0.00  0.00    +0.387 N 
ATOM     26  C   UNL     1      -1.781   0.250  -1.386  0.00  0.00    -0.059 C 
ATOM     27  C   UNL     1      -2.463   0.837  -2.626  0.00  0.00    +0.089 C 
ATOM     28  N   UNL     1      -1.631   0.540  -3.802  0.00  0.00    -0.308 N 
ATOM     29  C   UNL     1      -0.201   0.882  -3.748  0.00  0.00    +0.089 C 
ATOM     30  C   UNL     1       0.392   0.293  -2.463  0.00  0.00    -0.059 C 
ATOM     31  C   UNL     1      -2.164  -0.032  -4.900  0.00  0.00    +0.328 C 
ATOM     32  O   UNL     1      -3.345  -0.308  -4.927  0.00  0.00    -0.279 OA
ATOM     33  H   UNL     1      -0.435   1.844  -1.339  0.00  0.00    -0.081 HD
ENDBRANCH  24  25
ENDBRANCH   8  24
TORSDOF 5
