REMARK  Name = ZINC08472956
REMARK  5 active torsions:
REMARK  status: ('A' for Active; 'I' for Inactive)
REMARK    1  A    between atoms: C_1  and  O_2
REMARK    2  A    between atoms: O_2  and  C_3
REMARK    3  A    between atoms: C_6  and  C_10
REMARK    4  A    between atoms: C_7  and  O_9
REMARK    5  A    between atoms: C_13  and  C_16
REMARK                            x       y       z     vdW  Elec       q    Type
REMARK                         _______ _______ _______ _____ _____    ______ ____
ROOT
ATOM      1  C   UNL     1      -4.965  -2.608   0.037  0.00  0.00    +0.072 C 
ATOM      2  N   UNL     1      -5.135  -3.884   0.042  0.00  0.00    -0.190 NA
ATOM      3  N   UNL     1      -6.471  -4.280   0.052  0.00  0.00    -0.261 N 
ATOM      4  C   UNL     1      -7.323  -3.080   0.053  0.00  0.00    +0.125 C 
ATOM      5  C   UNL     1      -6.310  -1.918   0.049  0.00  0.00    +0.086 C 
ATOM      6  H   UNL     1      -6.788  -5.197   0.057  0.00  0.00    +0.169 HD
ENDROOT
BRANCH   4   7
ATOM      7  C   UNL     1      -8.190  -3.043  -1.179  0.00  0.00    -0.025 A 
ATOM      8  C   UNL     1      -7.680  -3.462  -2.394  0.00  0.00    +0.008 A 
ATOM      9  C   UNL     1      -8.474  -3.429  -3.525  0.00  0.00    +0.038 A 
ATOM     10  C   UNL     1      -9.780  -2.977  -3.440  0.00  0.00    +0.123 A 
ATOM     11  C   UNL     1     -10.289  -2.558  -2.223  0.00  0.00    +0.038 A 
ATOM     12  C   UNL     1      -9.495  -2.596  -1.093  0.00  0.00    +0.008 A 
ATOM     13  F   UNL     1     -10.557  -2.944  -4.545  0.00  0.00    -0.205 F 
ENDBRANCH   4   7
BRANCH   1  17
ATOM     14  C   UNL     1      -1.200  -0.637   0.010  0.00  0.00    +0.124 A 
ATOM     15  C   UNL     1      -2.374   0.106   0.020  0.00  0.00    +0.046 A 
ATOM     16  C   UNL     1      -3.597  -0.529   0.028  0.00  0.00    +0.017 A 
ATOM     17  C   UNL     1      -3.658  -1.924   0.027  0.00  0.00    +0.039 A 
ATOM     18  C   UNL     1      -2.473  -2.672   0.017  0.00  0.00    +0.129 A 
ATOM     19  C   UNL     1      -1.251  -2.024   0.003  0.00  0.00    +0.091 A 
BRANCH  14  21
ATOM     20  C   UNL     1      -0.017   1.425   0.010  0.00  0.00    +0.277 C 
ATOM     21  O   UNL     1       0.002  -0.004   0.002  0.00  0.00    -0.495 OA
ENDBRANCH  14  21
BRANCH  18  22
ATOM     22  O   UNL     1      -2.524  -4.030   0.016  0.00  0.00    -0.506 OA
ATOM     23  H   UNL     1      -2.546  -4.422  -0.867  0.00  0.00    +0.292 HD
ENDBRANCH  18  22
ENDBRANCH   1  17
TORSDOF 4
