REMARK  Name = ZINC48849581
REMARK  3 active torsions:
REMARK  status: ('A' for Active; 'I' for Inactive)
REMARK    1  A    between atoms: C_1  and  C_2
REMARK    2  A    between atoms: C_8  and  N_10
REMARK    3  A    between atoms: N_13  and  N_14
REMARK                            x       y       z     vdW  Elec       q    Type
REMARK                         _______ _______ _______ _____ _____    ______ ____
ROOT
ATOM      1  N   UNL     1       0.056  -0.038   2.447  0.00  0.00    -0.295 N 
ATOM      2  C   UNL     1       0.738   0.093   3.602  0.00  0.00    +0.316 C 
ATOM      3  O   UNL     1       1.922  -0.180   3.644  0.00  0.00    -0.251 OA
ATOM      4  N   UNL     1       0.107   0.528   4.711  0.00  0.00    -0.219 N 
ATOM      5  H   UNL     1      -0.888   0.180   2.413  0.00  0.00    +0.151 HD
ATOM      6  H   UNL     1       0.598   0.623   5.542  0.00  0.00    +0.174 HD
ENDROOT
BRANCH   4   7
ATOM      7  N   UNL     1      -1.257   0.843   4.663  0.00  0.00    -0.246 N 
ATOM      8  C   UNL     1      -1.908   1.292   5.807  0.00  0.00    +0.157 A 
ATOM      9  C   UNL     1      -3.268   1.601   5.764  0.00  0.00    +0.050 A 
ATOM     10  C   UNL     1      -3.870   2.043   6.931  0.00  0.00    +0.045 A 
ATOM     11  C   UNL     1      -3.083   2.152   8.071  0.00  0.00    +0.152 A 
ATOM     12  N   UNL     1      -1.803   1.838   8.021  0.00  0.00    -0.136 NA
ATOM     13  N   UNL     1      -1.241   1.422   6.944  0.00  0.00    -0.132 NA
ATOM     14 CL   UNL     1      -3.784   2.702   9.560  0.00  0.00    -0.060 Cl
ATOM     15  H   UNL     1      -1.748   0.748   3.831  0.00  0.00    +0.172 HD
ENDBRANCH   4   7
BRANCH   1  22
ATOM     16  C   UNL     1      -0.019   1.526   0.010  0.00  0.00    +0.009 C 
ATOM     17  C   UNL     1       0.002  -0.004   0.002  0.00  0.00    +0.006 C 
ATOM     18  C   UNL     1      -1.433  -0.534   0.013  0.00  0.00    +0.005 C 
ATOM     19  C   UNL     1      -1.413  -2.063   0.004  0.00  0.00    +0.000 C 
ATOM     20  C   UNL     1      -0.673  -2.570   1.244  0.00  0.00    +0.002 C 
ATOM     21  C   UNL     1       0.763  -2.041   1.233  0.00  0.00    +0.022 C 
ATOM     22  C   UNL     1       0.742  -0.511   1.242  0.00  0.00    +0.077 C 
ENDBRANCH   1  22
TORSDOF 2
