REMARK  Name = ZINC56056142
REMARK  3 active torsions:
REMARK  status: ('A' for Active; 'I' for Inactive)
REMARK    1  A    between atoms: C_11  and  C_13
REMARK    2  A    between atoms: C_16  and  S_18
REMARK    3  A    between atoms: S_18  and  N_21
REMARK                            x       y       z     vdW  Elec       q    Type
REMARK                         _______ _______ _______ _____ _____    ______ ____
ROOT
ATOM      1  C   UNL     1      -0.066   1.226  -0.326  0.00  0.00    +0.000 A 
ATOM      2  C   UNL     1       1.090   1.926  -0.029  0.00  0.00    +0.002 A 
ATOM      3  C   UNL     1       2.310   1.281  -0.056  0.00  0.00    +0.024 A 
ATOM      4  C   UNL     1       2.377  -0.069  -0.382  0.00  0.00    +0.040 A 
ATOM      5  C   UNL     1       1.218  -0.770  -0.677  0.00  0.00    -0.026 A 
ATOM      6  C   UNL     1      -0.002  -0.115  -0.648  0.00  0.00    +0.005 A 
ATOM      7  C   UNL     1       1.251  -2.235  -1.023  0.00  0.00    +0.038 C 
ATOM      8  C   UNL     1       2.648  -2.643  -1.491  0.00  0.00    +0.024 C 
ATOM      9  C   UNL     1       3.676  -2.171  -0.454  0.00  0.00    +0.114 C 
ATOM     10  N   UNL     1       3.626  -0.703  -0.409  0.00  0.00    -0.265 N 
ATOM     11  C   UNL     1       4.762   0.021  -0.395  0.00  0.00    +0.286 C 
ATOM     12  O   UNL     1       4.712   1.234  -0.484  0.00  0.00    -0.266 OA
ENDROOT
BRANCH  11  13
ATOM     13  C   UNL     1       6.059  -0.652  -0.271  0.00  0.00    +0.192 A 
ATOM     14  C   UNL     1       7.285  -0.059  -0.377  0.00  0.00    +0.057 A 
ATOM     15  C   UNL     1       8.240  -1.070  -0.192  0.00  0.00    +0.072 A 
ATOM     16  C   UNL     1       7.564  -2.222   0.015  0.00  0.00    +0.258 A 
ATOM     17  O   UNL     1       6.251  -1.965  -0.028  0.00  0.00    -0.432 OA
BRANCH  16  18
ATOM     18  S   UNL     1       8.292  -3.801   0.303  0.00  0.00    +0.089 S 
ATOM     19  O   UNL     1       7.351  -4.769  -0.141  0.00  0.00    -0.150 OA
ATOM     20  O   UNL     1       9.617  -3.736  -0.207  0.00  0.00    -0.150 OA
BRANCH  18  21
ATOM     21  N   UNL     1       8.425  -3.988   1.943  0.00  0.00    -0.201 NA
ATOM     22  H   UNL     1       8.379  -4.873   2.336  0.00  0.00    +0.144 HD
ATOM     23  H   UNL     1       8.550  -3.211   2.511  0.00  0.00    +0.144 HD
ENDBRANCH  18  21
ENDBRANCH  16  18
ENDBRANCH  11  13
TORSDOF 3
