REMARK  Name = ZINC15945435
REMARK  6 active torsions:
REMARK  status: ('A' for Active; 'I' for Inactive)
REMARK    1  A    between atoms: C_1  and  C_2
REMARK    2  A    between atoms: C_2  and  C_3
REMARK    3  A    between atoms: C_12  and  O_26
REMARK    4  A    between atoms: C_14  and  C_17
REMARK    5  A    between atoms: C_20  and  O_24
REMARK    6  A    between atoms: O_24  and  C_25
REMARK                            x       y       z     vdW  Elec       q    Type
REMARK                         _______ _______ _______ _____ _____    ______ ____
ROOT
ATOM      1  C   UNL     1       0.718  -0.497  -1.257  0.00  0.00    -0.006 C 
ATOM      2  C   UNL     1       0.845  -2.023  -1.210  0.00  0.00    +0.008 C 
ATOM      3  C   UNL     1       1.769  -2.503  -2.332  0.00  0.00    +0.037 C 
ATOM      4  C   UNL     1       1.284  -1.916  -3.650  0.00  0.00    -0.023 A 
ATOM      5  C   UNL     1       0.454  -0.848  -3.676  0.00  0.00    -0.004 A 
ATOM      6  S   UNL     1       0.174  -0.536  -5.398  0.00  0.00    -0.078 S 
ATOM      7  C   UNL     1       1.103  -1.744  -6.050  0.00  0.00    +0.080 A 
ATOM      8  C   UNL     1       1.650  -2.427  -4.958  0.00  0.00    +0.068 A 
ATOM      9  C   UNL     1       2.530  -3.589  -5.247  0.00  0.00    +0.220 C 
ATOM     10  N   UNL     1       2.937  -3.750  -6.477  0.00  0.00    -0.223 NA
ATOM     11  C   UNL     1       2.641  -2.834  -7.571  0.00  0.00    +0.224 C 
ATOM     12  N   UNL     1       1.375  -2.112  -7.349  0.00  0.00    -0.313 N 
ATOM     13  C   UNL     1      -0.094  -0.102  -2.499  0.00  0.00    +0.046 C 
ATOM     14  H   UNL     1       0.768  -1.907  -8.077  0.00  0.00    +0.149 HD
ENDROOT
BRANCH  11  15
ATOM     15  C   UNL     1       3.762  -1.833  -7.691  0.00  0.00    -0.004 A 
ATOM     16  C   UNL     1       3.501  -0.557  -8.155  0.00  0.00    +0.011 A 
ATOM     17  C   UNL     1       4.526   0.362  -8.266  0.00  0.00    +0.047 A 
ATOM     18  C   UNL     1       5.819   0.004  -7.912  0.00  0.00    +0.134 A 
ATOM     19  C   UNL     1       6.078  -1.277  -7.446  0.00  0.00    +0.060 A 
ATOM     20  C   UNL     1       5.048  -2.191  -7.332  0.00  0.00    +0.026 A 
ATOM     21 BR   UNL     1       7.839  -1.769  -6.963  0.00  0.00    -0.047 Br
BRANCH  18  22
ATOM     22  O   UNL     1       6.829   0.907  -8.021  0.00  0.00    -0.494 OA
ATOM     23  C   UNL     1       6.488   2.207  -8.508  0.00  0.00    +0.277 C 
ENDBRANCH  18  22
ENDBRANCH  11  15
BRANCH   1  25
ATOM     24  C   UNL     1      -0.019   1.526   0.010  0.00  0.00    +0.004 C 
ATOM     25  C   UNL     1       0.002  -0.004   0.002  0.00  0.00    +0.000 C 
ENDBRANCH   1  25
BRANCH   9  26
ATOM     26  O   UNL     1       2.896  -4.451  -4.270  0.00  0.00    -0.492 OA
ATOM     27  H   UNL     1       3.468  -5.169  -4.572  0.00  0.00    +0.294 HD
ENDBRANCH   9  26
TORSDOF 4
