REMARK  Name = ZINC42147025
REMARK  3 active torsions:
REMARK  status: ('A' for Active; 'I' for Inactive)
REMARK    1  A    between atoms: C_1  and  C_2
REMARK    2  A    between atoms: N_6  and  C_13
REMARK    3  A    between atoms: C_13  and  C_14
REMARK                            x       y       z     vdW  Elec       q    Type
REMARK                         _______ _______ _______ _____ _____    ______ ____
ROOT
ATOM      1  C   UNL     1      -1.448  -3.293   2.429  0.00  0.00    +0.181 C 
ENDROOT
BRANCH   1   2
ATOM      2  C   UNL     1      -0.843  -4.651   2.179  0.00  0.00    +0.153 A 
ATOM      3  N   UNL     1      -1.380  -5.456   1.280  0.00  0.00    -0.198 NA
ATOM      4  C   UNL     1      -0.849  -6.656   1.056  0.00  0.00    +0.217 A 
ATOM      5  N   UNL     1       0.223  -7.043   1.739  0.00  0.00    -0.181 NA
ATOM      6  C   UNL     1       0.760  -6.231   2.643  0.00  0.00    +0.217 A 
ATOM      7  N   UNL     1       0.226  -5.031   2.857  0.00  0.00    -0.198 NA
ATOM      8  N   UNL     1       1.874  -6.629   3.354  0.00  0.00    -0.327 N 
ATOM      9  N   UNL     1      -1.411  -7.497   0.117  0.00  0.00    -0.327 N 
ATOM     10  H   UNL     1       2.264  -7.502   3.195  0.00  0.00    +0.145 HD
ATOM     11  H   UNL     1       2.265  -6.035   4.014  0.00  0.00    +0.145 HD
ATOM     12  H   UNL     1      -2.193  -7.213  -0.381  0.00  0.00    +0.145 HD
ATOM     13  H   UNL     1      -1.023  -8.371  -0.045  0.00  0.00    +0.145 HD
ENDBRANCH   1   2
BRANCH   1  18
ATOM     14  C   UNL     1      -0.019   1.526   0.010  0.00  0.00    +0.012 C 
ATOM     15  C   UNL     1       0.002  -0.004   0.002  0.00  0.00    +0.019 C 
ATOM     16  C   UNL     1      -1.434  -0.528   0.001  0.00  0.00    +0.027 C 
ATOM     17  C   UNL     1      -1.407  -2.048   0.206  0.00  0.00    +0.106 C 
ATOM     18  N   UNL     1      -0.832  -2.312   1.532  0.00  0.00    -0.322 N 
ATOM     19  C   UNL     1       0.314  -1.611   1.924  0.00  0.00    +0.034 A 
ATOM     20  C   UNL     1       0.742  -0.498   1.217  0.00  0.00    -0.023 A 
ATOM     21  C   UNL     1       1.876   0.179   1.632  0.00  0.00    +0.006 A 
ATOM     22  C   UNL     1       2.578  -0.251   2.741  0.00  0.00    +0.000 A 
ATOM     23  C   UNL     1       2.153  -1.363   3.445  0.00  0.00    +0.002 A 
ATOM     24  C   UNL     1       1.023  -2.042   3.039  0.00  0.00    +0.023 A 
ENDBRANCH   1  18
TORSDOF 2
