REMARK  Name = ZINC39694919
REMARK  7 active torsions:
REMARK  status: ('A' for Active; 'I' for Inactive)
REMARK    1  A    between atoms: C_1  and  C_2
REMARK    2  A    between atoms: C_4  and  C_31
REMARK    3  A    between atoms: C_6  and  C_8
REMARK    4  A    between atoms: C_8  and  N_9
REMARK    5  A    between atoms: C_10  and  C_12
REMARK    6  A    between atoms: C_23  and  C_25
REMARK    7  A    between atoms: N_29  and  C_30
REMARK                            x       y       z     vdW  Elec       q    Type
REMARK                         _______ _______ _______ _____ _____    ______ ____
ROOT
ATOM      1  C   UNL     1       4.062  -3.813   4.276  0.00  0.00    +0.100 C 
ATOM      2  C   UNL     1       4.590  -2.415   4.667  0.00  0.00    +0.121 C 
ATOM      3  N   UNL     1       4.106  -2.205   6.052  0.00  0.00    -0.295 N 
ATOM      4  C   UNL     1       4.259  -3.529   6.700  0.00  0.00    +0.115 C 
ATOM      5  C   UNL     1       3.849  -4.543   5.613  0.00  0.00    -0.004 C 
ATOM      6  C   UNL     1       2.382  -4.927   5.778  0.00  0.00    -0.010 C 
ATOM      7  C   UNL     1       2.205  -5.701   7.088  0.00  0.00    -0.082 C 
ATOM      8  N   UNL     1       3.047  -6.903   7.065  0.00  0.00    +0.379 N 
ATOM      9  C   UNL     1       4.463  -6.522   6.999  0.00  0.00    -0.082 C 
ATOM     10  C   UNL     1       4.735  -5.783   5.686  0.00  0.00    -0.010 C 
ATOM     11  C   UNL     1       3.633  -1.067   6.598  0.00  0.00    +0.265 C 
ATOM     12  O   UNL     1       3.453  -0.998   7.800  0.00  0.00    -0.268 OA
ATOM     13  H   UNL     1       2.884  -7.442   7.902  0.00  0.00    -0.086 HD
ATOM     14  H   UNL     1       2.813  -7.461   6.257  0.00  0.00    -0.086 HD
ENDROOT
BRANCH  11  15
ATOM     15  C   UNL     1       3.334   0.088   5.744  0.00  0.00    +0.124 A 
ATOM     16  C   UNL     1       3.170   0.084   4.388  0.00  0.00    +0.143 A 
ATOM     17  N   UNL     1       2.912   1.334   4.004  0.00  0.00    -0.243 NA
ATOM     18  C   UNL     1       2.906   2.123   5.049  0.00  0.00    +0.199 A 
ATOM     19  N   UNL     1       3.158   1.396   6.152  0.00  0.00    -0.330 N 
ATOM     20  C   UNL     1       3.234   1.898   7.526  0.00  0.00    +0.150 C 
ENDBRANCH  11  15
BRANCH   1  22
ATOM     21  N   UNL     1       2.424  -4.611   2.603  0.00  0.00    -0.311 N 
ATOM     22  C   UNL     1       2.757  -3.692   3.531  0.00  0.00    +0.218 C 
ATOM     23  O   UNL     1       2.008  -2.768   3.767  0.00  0.00    -0.275 OA
ATOM     24  H   UNL     1       3.024  -5.349   2.414  0.00  0.00    +0.149 HD
BRANCH  21  25
ATOM     25  C   UNL     1       1.156  -4.493   1.878  0.00  0.00    +0.139 C 
BRANCH  25  31
ATOM     26  C   UNL     1       1.911  -6.411  -2.682  0.00  0.00    +0.044 C 
ATOM     27  C   UNL     1       1.386  -6.553  -1.277  0.00  0.00    -0.050 A 
ATOM     28  C   UNL     1       0.785  -7.733  -0.880  0.00  0.00    +0.006 A 
ATOM     29  C   UNL     1       0.303  -7.864   0.409  0.00  0.00    -0.050 A 
ATOM     30  C   UNL     1       0.424  -6.816   1.302  0.00  0.00    +0.008 A 
ATOM     31  C   UNL     1       1.026  -5.636   0.905  0.00  0.00    -0.030 A 
ATOM     32  C   UNL     1       1.511  -5.507  -0.383  0.00  0.00    +0.008 A 
ATOM     33  C   UNL     1      -0.353  -9.150   0.841  0.00  0.00    +0.044 C 
ENDBRANCH  25  31
ENDBRANCH  21  25
ENDBRANCH   1  22
TORSDOF 4
