REMARK  Name = ZINC40729959
REMARK  7 active torsions:
REMARK  status: ('A' for Active; 'I' for Inactive)
REMARK    1  A    between atoms: C_4  and  C_7
REMARK    2  A    between atoms: C_7  and  C_8
REMARK    3  A    between atoms: C_7  and  N_14
REMARK    4  A    between atoms: C_21  and  N_35
REMARK    5  A    between atoms: C_22  and  N_26
REMARK    6  A    between atoms: N_26  and  N_27
REMARK    7  A    between atoms: C_28  and  C_30
REMARK                            x       y       z     vdW  Elec       q    Type
REMARK                         _______ _______ _______ _____ _____    ______ ____
ROOT
ATOM      1  N   UNL     1       3.674  -1.901  -0.890  0.00  0.00    -0.289 NA
ATOM      2  C   UNL     1       3.220  -1.493  -2.226  0.00  0.00    +0.104 C 
ATOM      3  C   UNL     1       2.949  -2.740  -3.074  0.00  0.00    +0.122 C 
ATOM      4  N   UNL     1       4.152  -3.586  -3.058  0.00  0.00    -0.311 N 
ATOM      5  C   UNL     1       4.748  -3.925  -1.756  0.00  0.00    +0.122 C 
ATOM      6  C   UNL     1       4.948  -2.631  -0.961  0.00  0.00    +0.104 C 
ATOM      7  C   UNL     1       4.711  -4.053  -4.242  0.00  0.00    +0.147 A 
ATOM      8  C   UNL     1       4.361  -5.307  -4.745  0.00  0.00    +0.107 A 
ATOM      9  C   UNL     1       4.952  -5.727  -5.938  0.00  0.00    +0.161 A 
ATOM     10  N   UNL     1       5.820  -4.922  -6.545  0.00  0.00    -0.217 NA
ATOM     11  C   UNL     1       6.124  -3.745  -6.036  0.00  0.00    +0.225 A 
ATOM     12  N   UNL     1       5.585  -3.309  -4.915  0.00  0.00    -0.219 NA
ENDROOT
BRANCH   8  13
ATOM     13  N   UNL     1       3.439  -6.123  -4.069  0.00  0.00    -0.353 N 
ATOM     14  H   UNL     1       2.970  -5.784  -3.292  0.00  0.00    +0.143 HD
ATOM     15  H   UNL     1       3.272  -7.027  -4.381  0.00  0.00    +0.143 HD
ENDBRANCH   8  13
BRANCH   9  16
ATOM     16  N   UNL     1       4.638  -6.967  -6.482  0.00  0.00    -0.246 N 
ATOM     17  H   UNL     1       4.004  -7.547  -6.033  0.00  0.00    +0.172 HD
BRANCH  16  18
ATOM     18  N   UNL     1       5.238  -7.378  -7.680  0.00  0.00    -0.229 N 
ATOM     19  C   UNL     1       4.934  -8.580  -8.208  0.00  0.00    +0.295 C 
ATOM     20  O   UNL     1       4.138  -9.308  -7.644  0.00  0.00    -0.265 OA
ATOM     21  H   UNL     1       5.872  -6.797  -8.129  0.00  0.00    +0.173 HD
BRANCH  19  22
ATOM     22  C   UNL     1       5.561  -9.010  -9.462  0.00  0.00    +0.190 A 
ATOM     23  C   UNL     1       5.340 -10.194 -10.105  0.00  0.00    +0.054 A 
ATOM     24  C   UNL     1       6.144 -10.184 -11.255  0.00  0.00    +0.042 A 
ATOM     25  C   UNL     1       6.812  -9.010 -11.264  0.00  0.00    +0.196 A 
ATOM     26  O   UNL     1       6.454  -8.303 -10.185  0.00  0.00    -0.458 OA
ENDBRANCH  19  22
ENDBRANCH  16  18
ENDBRANCH   9  16
BRANCH   1  27
ATOM     27  C   UNL     1       3.780  -0.743   0.007  0.00  0.00    +0.117 C 
BRANCH  27  31
ATOM     28  C   UNL     1       0.033   1.303   0.137  0.00  0.00    +0.000 A 
ATOM     29  C   UNL     1       1.212   2.023   0.108  0.00  0.00    +0.000 A 
ATOM     30  C   UNL     1       2.425   1.361   0.066  0.00  0.00    +0.005 A 
ATOM     31  C   UNL     1       2.458  -0.021   0.054  0.00  0.00    -0.026 A 
ATOM     32  C   UNL     1       1.278  -0.741   0.084  0.00  0.00    +0.005 A 
ATOM     33  C   UNL     1       0.066  -0.079   0.124  0.00  0.00    +0.000 A 
ENDBRANCH  27  31
BRANCH  27  34
ATOM     34  C   UNL     1       4.146  -1.212   1.392  0.00  0.00    -0.026 A 
ATOM     35  C   UNL     1       3.580  -2.365   1.903  0.00  0.00    +0.005 A 
ATOM     36  C   UNL     1       3.915  -2.795   3.173  0.00  0.00    +0.000 A 
ATOM     37  C   UNL     1       4.817  -2.072   3.932  0.00  0.00    +0.000 A 
ATOM     38  C   UNL     1       5.384  -0.920   3.420  0.00  0.00    +0.000 A 
ATOM     39  C   UNL     1       5.051  -0.492   2.148  0.00  0.00    +0.005 A 
ENDBRANCH  27  34
ENDBRANCH   1  27
TORSDOF 7
