REMARK  Name = ZINC35252189
REMARK  5 active torsions:
REMARK  status: ('A' for Active; 'I' for Inactive)
REMARK    1  A    between atoms: C_1  and  C_2
REMARK    2  A    between atoms: C_2  and  C_4
REMARK    3  A    between atoms: C_2  and  N_10
REMARK    4  A    between atoms: N_10  and  C_11
REMARK    5  A    between atoms: C_14  and  N_18
REMARK                            x       y       z     vdW  Elec       q    Type
REMARK                         _______ _______ _______ _____ _____    ______ ____
ROOT
ATOM      1  N   UNL     1       0.711  -0.489   1.189  0.00  0.00    -0.336 N 
ATOM      2  H   UNL     1       0.213  -0.731   1.986  0.00  0.00    +0.147 HD
ENDROOT
BRANCH   1   3
ATOM      3  C   UNL     1       2.103  -0.604   1.173  0.00  0.00    +0.046 A 
ATOM      4  C   UNL     1       2.818  -0.253   0.035  0.00  0.00    +0.026 A 
ATOM      5  C   UNL     1       4.194  -0.366   0.023  0.00  0.00    +0.034 A 
ATOM      6  C   UNL     1       4.862  -0.830   1.142  0.00  0.00    +0.128 A 
ATOM      7  C   UNL     1       4.154  -1.181   2.277  0.00  0.00    +0.054 A 
ATOM      8  C   UNL     1       2.777  -1.064   2.298  0.00  0.00    +0.064 A 
ATOM      9 CL   UNL     1       1.890  -1.498   3.726  0.00  0.00    -0.082 Cl
BRANCH   6  10
ATOM     10  N   UNL     1       6.337  -0.952   1.124  0.00  0.00    +0.056 N 
ATOM     11  O   UNL     1       6.957  -0.645   0.132  0.00  0.00    -0.126 OA
ATOM     12  O   UNL     1       6.921  -1.357   2.102  0.00  0.00    -0.126 OA
ENDBRANCH   6  10
ENDBRANCH   1   3
BRANCH   1  14
ATOM     13  C   UNL     1      -0.019   1.526   0.010  0.00  0.00    +0.033 C 
ATOM     14  C   UNL     1       0.002  -0.004   0.002  0.00  0.00    +0.104 C 
BRANCH  14  15
ATOM     15  C   UNL     1      -1.412  -0.526   0.013  0.00  0.00    +0.011 A 
ATOM     16  C   UNL     1      -2.157  -0.992  -1.019  0.00  0.00    +0.014 A 
ATOM     17  C   UNL     1      -3.447  -1.424  -0.772  0.00  0.00    +0.028 A 
ATOM     18  C   UNL     1      -3.928  -1.369   0.495  0.00  0.00    +0.078 A 
ATOM     19  S   UNL     1      -2.536  -0.697   1.389  0.00  0.00    -0.080 S 
ATOM     20 CL   UNL     1      -5.489  -1.836   1.093  0.00  0.00    -0.076 Cl
ENDBRANCH  14  15
ENDBRANCH   1  14
TORSDOF 4
