REMARK  Name = ZINC28103568
REMARK  5 active torsions:
REMARK  status: ('A' for Active; 'I' for Inactive)
REMARK    1  A    between atoms: C_1  and  C_2
REMARK    2  A    between atoms: C_2  and  C_4
REMARK    3  A    between atoms: C_2  and  N_19
REMARK    4  A    between atoms: N_6  and  C_7
REMARK    5  A    between atoms: C_7  and  C_8
REMARK                            x       y       z     vdW  Elec       q    Type
REMARK                         _______ _______ _______ _____ _____    ______ ____
ROOT
ATOM      1  C   UNL     1       3.099   5.258  -0.046  0.00  0.00    +0.199 C 
ATOM      2  O   UNL     1       2.232   6.041   0.279  0.00  0.00    -0.278 OA
ATOM      3  N   UNL     1       2.800   3.957  -0.225  0.00  0.00    -0.313 N 
ATOM      4  H   UNL     1       3.586   3.247  -0.520  0.00  0.00    +0.149 HD
ENDROOT
BRANCH   1   6
ATOM      5  C   UNL     1       5.376   5.306   0.935  0.00  0.00    -0.004 C 
ATOM      6  C   UNL     1       4.512   5.741  -0.250  0.00  0.00    +0.016 C 
BRANCH   6   7
ATOM      7  N   UNL     1       4.520   7.207  -0.349  0.00  0.00    +0.389 N 
ATOM      8  C   UNL     1       5.786   7.690  -0.917  0.00  0.00    -0.059 C 
ATOM      9  C   UNL     1       5.723   9.211  -1.077  0.00  0.00    +0.088 C 
ATOM     10  N   UNL     1       5.466   9.828   0.232  0.00  0.00    -0.313 N 
ATOM     11  C   UNL     1       4.200   9.345   0.799  0.00  0.00    +0.088 C 
ATOM     12  C   UNL     1       4.263   7.824   0.959  0.00  0.00    -0.059 C 
ATOM     13  C   UNL     1       5.473  11.211   0.138  0.00  0.00    +0.160 A 
ATOM     14  N   UNL     1       6.422  12.007  -0.316  0.00  0.00    -0.233 NA
ATOM     15  C   UNL     1       6.264  13.317  -0.335  0.00  0.00    +0.120 A 
ATOM     16  C   UNL     1       5.100  13.834   0.124  0.00  0.00    +0.068 A 
ATOM     17  S   UNL     1       4.231  12.341   0.582  0.00  0.00    -0.061 S 
ATOM     18  H   UNL     1       3.708   7.503  -1.030  0.00  0.00    -0.081 HD
ENDBRANCH   6   7
ENDBRANCH   1   6
BRANCH   3  19
ATOM     19  C   UNL     1       1.426   3.487  -0.027  0.00  0.00    +0.152 C 
BRANCH  19  20
ATOM     20  C   UNL     1       1.358   1.982  -0.292  0.00  0.00    +0.228 C 
ATOM     21  C   UNL     1      -0.099   1.507  -0.208  0.00  0.00    +0.275 C 
ATOM     22  O   UNL     1      -0.124   0.095  -0.448  0.00  0.00    -0.485 OA
ATOM     23  C   UNL     1       0.799  -0.654   0.214  0.00  0.00    +0.162 A 
ATOM     24  C   UNL     1       0.616  -2.025   0.316  0.00  0.00    +0.049 A 
ATOM     25  C   UNL     1       1.547  -2.800   0.982  0.00  0.00    +0.004 A 
ATOM     26  C   UNL     1       2.662  -2.211   1.548  0.00  0.00    +0.004 A 
ATOM     27  C   UNL     1       2.850  -0.846   1.451  0.00  0.00    +0.049 A 
ATOM     28  C   UNL     1       1.919  -0.062   0.785  0.00  0.00    +0.163 A 
ATOM     29  O   UNL     1       2.115   1.282   0.701  0.00  0.00    -0.480 OA
ENDBRANCH  19  20
ENDBRANCH   3  19
TORSDOF 4
