REMARK  Name = ZINC03362897
REMARK  12 active torsions:
REMARK  status: ('A' for Active; 'I' for Inactive)
REMARK    1  A    between atoms: C_1  and  C_2
REMARK    2  A    between atoms: C_2  and  C_3
REMARK    3  A    between atoms: C_2  and  C_4
REMARK    4  A    between atoms: C_4  and  C_6
REMARK    5  A    between atoms: C_4  and  N_21
REMARK    6  A    between atoms: N_8  and  C_9
REMARK    7  A    between atoms: C_10  and  C_18
REMARK    8  A    between atoms: C_22  and  C_24
REMARK    9  A    between atoms: C_26  and  O_32
REMARK   10  A    between atoms: C_28  and  O_30
REMARK   11  A    between atoms: O_30  and  C_31
REMARK   12  A    between atoms: O_32  and  C_33
REMARK                            x       y       z     vdW  Elec       q    Type
REMARK                         _______ _______ _______ _____ _____    ______ ____
ROOT
ATOM      1  C   UNL     1      -2.071   1.434   7.290  0.00  0.00    +0.162 C 
ENDROOT
BRANCH   1   2
ATOM      2  C   UNL     1      -2.065   1.840   5.838  0.00  0.00    +0.238 C 
ATOM      3  O   UNL     1      -2.759   2.761   5.463  0.00  0.00    -0.273 OA
ATOM      4  N   UNL     1      -1.288   1.179   4.957  0.00  0.00    -0.278 N 
ATOM      5  H   UNL     1      -0.734   0.442   5.258  0.00  0.00    +0.155 HD
BRANCH   4   6
ATOM      6  C   UNL     1      -1.282   1.552   3.622  0.00  0.00    +0.084 A 
ATOM      7  C   UNL     1      -0.558   0.999   2.575  0.00  0.00    +0.068 A 
ATOM      8  C   UNL     1      -0.732   1.580   1.257  0.00  0.00    -0.023 A 
ATOM      9  C   UNL     1      -1.601   2.615   1.194  0.00  0.00    -0.004 A 
ATOM     10  S   UNL     1      -2.178   2.821   2.855  0.00  0.00    -0.077 S 
ATOM     11  C   UNL     1      -1.979   3.405  -0.021  0.00  0.00    +0.043 C 
ATOM     12  C   UNL     1      -0.956   3.111  -1.127  0.00  0.00    +0.005 C 
ATOM     13  C   UNL     1      -0.758   1.595  -1.227  0.00  0.00    +0.005 C 
ATOM     14  C   UNL     1      -0.013   1.086   0.008  0.00  0.00    +0.037 C 
BRANCH   7  15
ATOM     15  C   UNL     1       0.351  -0.131   2.793  0.00  0.00    +0.244 C 
ATOM     16  O   UNL     1      -0.061  -1.272   2.693  0.00  0.00    -0.270 OA
ATOM     17  N   UNL     1       1.643   0.094   3.104  0.00  0.00    -0.325 N 
ATOM     18  H   UNL     1       1.971   1.004   3.184  0.00  0.00    +0.145 HD
ATOM     19  H   UNL     1       2.244  -0.653   3.248  0.00  0.00    +0.145 HD
ENDBRANCH   7  15
ENDBRANCH   4   6
ENDBRANCH   1   2
BRANCH   1  20
ATOM     20  N   UNL     1      -2.989   2.300   8.034  0.00  0.00    -0.300 N 
ATOM     21  C   UNL     1      -2.812   2.490   9.357  0.00  0.00    +0.245 C 
ATOM     22  O   UNL     1      -1.892   1.943   9.932  0.00  0.00    -0.270 OA
ATOM     23  H   UNL     1      -3.724   2.736   7.576  0.00  0.00    +0.150 HD
BRANCH  21  24
ATOM     24  C   UNL     1      -3.739   3.364  10.109  0.00  0.00    +0.044 A 
ATOM     25  C   UNL     1      -4.793   3.997   9.450  0.00  0.00    +0.059 A 
ATOM     26  C   UNL     1      -5.662   4.809  10.159  0.00  0.00    +0.124 A 
ATOM     27  C   UNL     1      -5.478   5.004  11.520  0.00  0.00    +0.091 A 
ATOM     28  C   UNL     1      -4.428   4.381  12.178  0.00  0.00    +0.124 A 
ATOM     29  C   UNL     1      -3.558   3.561  11.478  0.00  0.00    +0.059 A 
BRANCH  28  30
ATOM     30  O   UNL     1      -4.253   4.574  13.512  0.00  0.00    -0.495 OA
ATOM     31  C   UNL     1      -5.187   5.431  14.172  0.00  0.00    +0.277 C 
ENDBRANCH  28  30
BRANCH  26  32
ATOM     32  O   UNL     1      -6.693   5.422   9.519  0.00  0.00    -0.495 OA
ATOM     33  C   UNL     1      -7.547   6.251  10.310  0.00  0.00    +0.277 C 
ENDBRANCH  26  32
ENDBRANCH  21  24
ENDBRANCH   1  20
BRANCH   1  35
ATOM     34  C   UNL     1      -2.537  -0.432   8.884  0.00  0.00    +0.009 C 
ATOM     35  C   UNL     1      -2.531  -0.020   7.411  0.00  0.00    +0.012 C 
ATOM     36  C   UNL     1      -3.942  -0.159   6.836  0.00  0.00    +0.009 C 
ENDBRANCH   1  35
TORSDOF 8
