REMARK  Name = ZINC08562315
REMARK  7 active torsions:
REMARK  status: ('A' for Active; 'I' for Inactive)
REMARK    1  A    between atoms: C_1  and  C_2
REMARK    2  A    between atoms: C_2  and  C_4
REMARK    3  A    between atoms: C_2  and  O_19
REMARK    4  A    between atoms: N_6  and  C_7
REMARK    5  A    between atoms: C_8  and  C_16
REMARK    6  A    between atoms: O_19  and  C_20
REMARK    7  A    between atoms: C_23  and  N_26
REMARK                            x       y       z     vdW  Elec       q    Type
REMARK                         _______ _______ _______ _____ _____    ______ ____
ROOT
ATOM      1  C   UNL     1      -0.040   1.202  -0.240  0.00  0.00    +0.258 C 
ATOM      2  O   UNL     1      -0.056   0.002  -0.416  0.00  0.00    -0.271 OA
ATOM      3  N   UNL     1       1.127   1.875  -0.288  0.00  0.00    -0.276 N 
ATOM      4  H   UNL     1       1.139   2.834  -0.147  0.00  0.00    +0.155 HD
ENDROOT
BRANCH   3   5
ATOM      5  C   UNL     1       2.309   1.195  -0.538  0.00  0.00    +0.084 A 
ATOM      6  C   UNL     1       3.595   1.708  -0.630  0.00  0.00    +0.068 A 
ATOM      7  C   UNL     1       4.674   0.772  -0.899  0.00  0.00    -0.023 A 
ATOM      8  C   UNL     1       4.295  -0.516  -1.044  0.00  0.00    -0.004 A 
ATOM      9  S   UNL     1       2.538  -0.499  -0.819  0.00  0.00    -0.077 S 
ATOM     10  C   UNL     1       5.178  -1.691  -1.331  0.00  0.00    +0.043 C 
ATOM     11  C   UNL     1       6.539  -1.166  -1.810  0.00  0.00    +0.005 C 
ATOM     12  C   UNL     1       7.009  -0.067  -0.853  0.00  0.00    +0.005 C 
ATOM     13  C   UNL     1       6.137   1.178  -1.023  0.00  0.00    +0.037 C 
BRANCH   6  14
ATOM     14  C   UNL     1       3.857   3.140  -0.458  0.00  0.00    +0.244 C 
ATOM     15  O   UNL     1       4.099   3.586   0.649  0.00  0.00    -0.270 OA
ATOM     16  N   UNL     1       3.829   3.964  -1.524  0.00  0.00    -0.325 N 
ATOM     17  H   UNL     1       3.636   3.608  -2.406  0.00  0.00    +0.145 HD
ATOM     18  H   UNL     1       4.002   4.911  -1.410  0.00  0.00    +0.145 HD
ENDBRANCH   6  14
ENDBRANCH   3   5
BRANCH   1  20
ATOM     19  C   UNL     1      -1.608   2.906  -1.128  0.00  0.00    +0.062 C 
ATOM     20  C   UNL     1      -1.326   1.941   0.025  0.00  0.00    +0.256 C 
BRANCH  20  21
ATOM     21  O   UNL     1      -2.400   1.005   0.136  0.00  0.00    -0.480 OA
BRANCH  21  22
ATOM     22  C   UNL     1      -3.485   1.393   0.857  0.00  0.00    +0.122 A 
ATOM     23  C   UNL     1      -3.561   2.684   1.357  0.00  0.00    +0.048 A 
ATOM     24  C   UNL     1      -4.667   3.077   2.086  0.00  0.00    +0.036 A 
ATOM     25  C   UNL     1      -5.692   2.181   2.326  0.00  0.00    +0.126 A 
ATOM     26  C   UNL     1      -5.616   0.891   1.833  0.00  0.00    +0.036 A 
ATOM     27  C   UNL     1      -4.515   0.495   1.100  0.00  0.00    +0.048 A 
BRANCH  25  28
ATOM     28  N   UNL     1      -6.874   2.603   3.111  0.00  0.00    +0.056 N 
ATOM     29  O   UNL     1      -7.778   1.815   3.323  0.00  0.00    -0.126 OA
ATOM     30  O   UNL     1      -6.942   3.739   3.546  0.00  0.00    -0.126 OA
ENDBRANCH  25  28
ENDBRANCH  21  22
ENDBRANCH  20  21
ENDBRANCH   1  20
TORSDOF 6
