REMARK  Name = ZINC35375103
REMARK  7 active torsions:
REMARK  status: ('A' for Active; 'I' for Inactive)
REMARK    1  A    between atoms: C_1  and  C_2
REMARK    2  A    between atoms: C_2  and  C_3
REMARK    3  A    between atoms: C_3  and  C_5
REMARK    4  A    between atoms: C_3  and  C_6
REMARK    5  A    between atoms: C_6  and  N_7
REMARK    6  A    between atoms: C_8  and  C_10
REMARK    7  A    between atoms: N_23  and  C_24
REMARK                            x       y       z     vdW  Elec       q    Type
REMARK                         _______ _______ _______ _____ _____    ______ ____
ROOT
ATOM      1  C   UNL     1       1.546  -4.483  -4.052  0.00  0.00    +0.028 C 
ATOM      2  C   UNL     1       0.235  -4.295  -4.874  0.00  0.00    +0.061 C 
ATOM      3  S   UNL     1       0.394  -5.733  -6.021  0.00  0.00    -0.174 S 
ATOM      4  C   UNL     1       1.586  -6.724  -5.038  0.00  0.00    -0.016 C 
ATOM      5  N   UNL     1       1.746  -5.925  -3.806  0.00  0.00    +0.397 N 
ATOM      6  C   UNL     1       0.990  -8.088  -4.728  0.00  0.00    +0.017 C 
ATOM      7  C   UNL     1       1.980  -8.899  -3.882  0.00  0.00    +0.109 C 
ATOM      8  N   UNL     1       3.278  -8.922  -4.570  0.00  0.00    -0.285 N 
ATOM      9  C   UNL     1       3.901  -7.647  -4.950  0.00  0.00    +0.109 C 
ATOM     10  C   UNL     1       2.902  -6.843  -5.790  0.00  0.00    +0.017 C 
ATOM     11  C   UNL     1       3.887 -10.092  -4.847  0.00  0.00    +0.306 C 
ATOM     12  O   UNL     1       3.407 -11.136  -4.449  0.00  0.00    -0.252 OA
ATOM     13  N   UNL     1       5.027 -10.106  -5.564  0.00  0.00    -0.269 N 
ATOM     14  H   UNL     1       2.676  -6.070  -3.442  0.00  0.00    -0.083 HD
ATOM     15  H   UNL     1       5.466  -9.271  -5.794  0.00  0.00    +0.156 HD
ATOM     16  H   UNL     1       1.075  -6.237  -3.120  0.00  0.00    -0.083 HD
ENDROOT
BRANCH  13  17
ATOM     17  C   UNL     1       5.579 -11.323  -5.979  0.00  0.00    +0.037 A 
ATOM     18  C   UNL     1       4.749 -12.388  -6.303  0.00  0.00    +0.023 A 
ATOM     19  C   UNL     1       5.295 -13.589  -6.713  0.00  0.00    +0.005 A 
ATOM     20  C   UNL     1       6.667 -13.733  -6.800  0.00  0.00    +0.038 A 
ATOM     21  C   UNL     1       7.498 -12.673  -6.478  0.00  0.00    +0.125 A 
ATOM     22  C   UNL     1       6.956 -11.466  -6.073  0.00  0.00    +0.061 A 
ATOM     23  F   UNL     1       8.839 -12.816  -6.564  0.00  0.00    -0.205 F 
ENDBRANCH  13  17
BRANCH   1  25
ATOM     24  N   UNL     1       1.246  -2.421  -2.719  0.00  0.00    -0.316 N 
ATOM     25  C   UNL     1       1.429  -3.756  -2.737  0.00  0.00    +0.200 C 
ATOM     26  O   UNL     1       1.498  -4.373  -1.695  0.00  0.00    -0.278 OA
ATOM     27  H   UNL     1       1.191  -1.928  -3.553  0.00  0.00    +0.149 HD
BRANCH  24  28
ATOM     28  C   UNL     1       1.132  -1.714  -1.441  0.00  0.00    +0.107 C 
BRANCH  28  29
ATOM     29  C   UNL     1       0.932  -0.220  -1.701  0.00  0.00    +0.003 C 
ATOM     30  C   UNL     1       2.183   0.354  -2.369  0.00  0.00    +0.009 C 
BRANCH  29  32
ATOM     31  C   UNL     1       0.364   1.971  -0.642  0.00  0.00    +0.004 C 
ATOM     32  C   UNL     1       0.688   0.500  -0.373  0.00  0.00    +0.001 C 
ENDBRANCH  29  32
ENDBRANCH  28  29
ENDBRANCH  24  28
ENDBRANCH   1  25
TORSDOF 5
