REMARK  Name = ZINC39684625
REMARK  13 active torsions:
REMARK  status: ('A' for Active; 'I' for Inactive)
REMARK    1  A    between atoms: C_1  and  C_2
REMARK    2  A    between atoms: C_2  and  C_3
REMARK    3  A    between atoms: C_3  and  C_4
REMARK    4  A    between atoms: C_4  and  C_5
REMARK    5  A    between atoms: C_5  and  C_7
REMARK    6  A    between atoms: C_5  and  C_8
REMARK    7  A    between atoms: C_12  and  C_21
REMARK    8  A    between atoms: N_23  and  C_24
REMARK    9  A    between atoms: C_24  and  C_26
REMARK   10  A    between atoms: C_24  and  C_27
REMARK   11  A    between atoms: C_27  and  C_28
REMARK   12  A    between atoms: C_27  and  C_29
REMARK   13  A    between atoms: C_27  and  C_30
REMARK                            x       y       z     vdW  Elec       q    Type
REMARK                         _______ _______ _______ _____ _____    ______ ____
ROOT
ATOM      1  C   UNL     1       1.061  -3.908  -2.717  0.00  0.00    +0.218 C 
ATOM      2  O   UNL     1       0.353  -4.568  -1.985  0.00  0.00    -0.275 OA
ATOM      3  N   UNL     1       1.814  -4.518  -3.654  0.00  0.00    -0.300 N 
ATOM      4  C   UNL     1       2.817  -3.902  -4.554  0.00  0.00    +0.121 C 
ATOM      5  C   UNL     1       3.968  -4.931  -4.618  0.00  0.00    +0.100 C 
ATOM      6  C   UNL     1       3.311  -6.276  -4.266  0.00  0.00    -0.004 C 
ATOM      7  C   UNL     1       1.831  -5.956  -4.012  0.00  0.00    +0.115 C 
ATOM      8  C   UNL     1       3.450  -7.252  -5.431  0.00  0.00    -0.010 C 
ATOM      9  C   UNL     1       2.841  -8.601  -5.035  0.00  0.00    -0.082 C 
ATOM     10  N   UNL     1       3.530  -9.122  -3.849  0.00  0.00    +0.379 N 
ATOM     11  C   UNL     1       3.315  -8.223  -2.709  0.00  0.00    -0.082 C 
ATOM     12  C   UNL     1       3.944  -6.859  -3.006  0.00  0.00    -0.010 C 
ATOM     13  H   UNL     1       3.169 -10.038  -3.627  0.00  0.00    -0.086 HD
ATOM     14  H   UNL     1       4.519  -9.191  -4.040  0.00  0.00    -0.086 HD
ENDROOT
BRANCH   5  15
ATOM     15  C   UNL     1       5.036  -4.587  -3.612  0.00  0.00    +0.218 C 
ATOM     16  O   UNL     1       4.752  -3.953  -2.619  0.00  0.00    -0.275 OA
ATOM     17  N   UNL     1       6.308  -4.984  -3.817  0.00  0.00    -0.312 N 
ATOM     18  H   UNL     1       6.535  -5.491  -4.612  0.00  0.00    +0.149 HD
BRANCH  17  19
ATOM     19  C   UNL     1       7.346  -4.649  -2.840  0.00  0.00    +0.075 C 
ATOM     20  C   UNL     1       7.354  -5.697  -1.725  0.00  0.00    +0.028 C 
BRANCH  19  21
ATOM     21  C   UNL     1       8.711  -4.631  -3.531  0.00  0.00    -0.020 C 
ATOM     22  C   UNL     1       8.704  -3.583  -4.646  0.00  0.00    +0.012 C 
ATOM     23  C   UNL     1       9.796  -4.282  -2.510  0.00  0.00    +0.012 C 
ATOM     24  C   UNL     1       8.998  -6.010  -4.129  0.00  0.00    +0.012 C 
ENDBRANCH  19  21
ENDBRANCH  17  19
ENDBRANCH   5  15
BRANCH   1  25
ATOM     25  C   UNL     1       1.097  -2.408  -2.579  0.00  0.00    +0.072 C 
ATOM     26  C   UNL     1       0.939  -2.028  -1.105  0.00  0.00    +0.017 C 
BRANCH  25  27
ATOM     27  C   UNL     1      -0.044  -1.793  -3.390  0.00  0.00    +0.012 C 
BRANCH  27  28
ATOM     28  C   UNL     1       0.067  -0.268  -3.352  0.00  0.00    +0.000 C 
BRANCH  28  30
ATOM     29  C   UNL     1      -0.964   1.873  -4.125  0.00  0.00    +0.004 C 
ATOM     30  C   UNL     1      -1.075   0.347  -4.163  0.00  0.00    -0.003 C 
ENDBRANCH  28  30
ENDBRANCH  27  28
ENDBRANCH  25  27
ENDBRANCH   1  25
TORSDOF 7
