REMARK  Name = ZINC21946170
REMARK  10 active torsions:
REMARK  status: ('A' for Active; 'I' for Inactive)
REMARK    1  A    between atoms: C_1  and  C_2
REMARK    2  A    between atoms: C_2  and  N_3
REMARK    3  A    between atoms: N_3  and  C_4
REMARK    4  A    between atoms: C_5  and  N_20
REMARK    5  A    between atoms: N_6  and  C_13
REMARK    6  A    between atoms: C_13  and  C_14
REMARK    7  A    between atoms: C_21  and  C_23
REMARK    8  A    between atoms: C_23  and  O_24
REMARK    9  A    between atoms: O_24  and  C_25
REMARK   10  A    between atoms: C_25  and  C_27
REMARK                            x       y       z     vdW  Elec       q    Type
REMARK                         _______ _______ _______ _____ _____    ______ ____
ROOT
ATOM      1  C   UNL     1       1.086   3.062   0.011  0.00  0.00    +0.140 A 
ATOM      2  C   UNL     1      -0.134   3.637  -0.278  0.00  0.00    +0.128 A 
ATOM      3  N   UNL     1      -1.256   2.842  -0.325  0.00  0.00    -0.276 N 
ATOM      4  C   UNL     1      -1.164   1.519  -0.097  0.00  0.00    +0.331 A 
ATOM      5  O   UNL     1      -2.166   0.833  -0.147  0.00  0.00    -0.246 OA
ATOM      6  N   UNL     1       0.017   0.943   0.192  0.00  0.00    -0.273 N 
ATOM      7  H   UNL     1       0.068  -0.139   0.384  0.00  0.00    +0.173 HD
ATOM      8  C   UNL     1       1.146   1.676   0.250  0.00  0.00    +0.277 A 
ATOM      9  O   UNL     1       2.211   1.143   0.509  0.00  0.00    -0.266 OA
ENDROOT
BRANCH   1  10
ATOM     10  N   UNL     1       2.255   3.850   0.067  0.00  0.00    -0.262 N 
ATOM     11  C   UNL     1       3.236   3.668  -0.843  0.00  0.00    +0.258 C 
ATOM     12  O   UNL     1       3.075   2.890  -1.760  0.00  0.00    -0.272 OA
BRANCH  10  14
ATOM     13  C   UNL     1       3.192   4.280   2.285  0.00  0.00    +0.025 C 
ATOM     14  C   UNL     1       2.405   4.867   1.111  0.00  0.00    +0.110 C 
ENDBRANCH  10  14
BRANCH  11  15
ATOM     15  C   UNL     1       4.530   4.430  -0.719  0.00  0.00    +0.328 C 
BRANCH  15  16
ATOM     16  O   UNL     1       5.401   4.067  -1.792  0.00  0.00    -0.450 OA
BRANCH  16  17
ATOM     17  C   UNL     1       6.610   4.665  -1.827  0.00  0.00    +0.375 C 
ATOM     18  O   UNL     1       6.915   5.472  -0.970  0.00  0.00    -0.241 OA
BRANCH  17  19
ATOM     19  C   UNL     1       7.554   4.342  -2.898  0.00  0.00    +0.213 A 
ATOM     20  C   UNL     1       8.805   4.871  -3.053  0.00  0.00    +0.058 A 
ATOM     21  C   UNL     1       9.353   4.282  -4.201  0.00  0.00    +0.058 A 
ATOM     22  C   UNL     1       8.425   3.429  -4.694  0.00  0.00    +0.171 A 
ATOM     23  O   UNL     1       7.345   3.465  -3.903  0.00  0.00    -0.442 OA
ATOM     24 BR   UNL     1       8.623   2.359  -6.240  0.00  0.00    -0.008 Br
ENDBRANCH  17  19
ENDBRANCH  16  17
ENDBRANCH  15  16
ENDBRANCH  11  15
ENDBRANCH   1  10
BRANCH   2  25
ATOM     25  N   UNL     1      -0.228   4.987  -0.516  0.00  0.00    -0.343 N 
ATOM     26  H   UNL     1      -1.205   5.438  -0.746  0.00  0.00    +0.144 HD
ATOM     27  H   UNL     1       0.673   5.616  -0.476  0.00  0.00    +0.144 HD
ENDBRANCH   2  25
BRANCH   3  28
ATOM     28  C   UNL     1      -2.559   3.439  -0.631  0.00  0.00    +0.163 C 
BRANCH  28  29
ATOM     29  C   UNL     1      -2.785   3.414  -2.121  0.00  0.00    -0.028 A 
ATOM     30  C   UNL     1      -2.378   4.481  -2.900  0.00  0.00    +0.005 A 
ATOM     31  C   UNL     1      -2.581   4.457  -4.267  0.00  0.00    +0.000 A 
ATOM     32  C   UNL     1      -3.200   3.369  -4.854  0.00  0.00    +0.000 A 
ATOM     33  C   UNL     1      -3.612   2.304  -4.074  0.00  0.00    +0.000 A 
ATOM     34  C   UNL     1      -3.404   2.326  -2.708  0.00  0.00    +0.005 A 
ENDBRANCH  28  29
ENDBRANCH   3  28
TORSDOF 9
