REMARK  Name = ZINC44932446
REMARK  5 active torsions:
REMARK  status: ('A' for Active; 'I' for Inactive)
REMARK    1  A    between atoms: C_1  and  C_2
REMARK    2  A    between atoms: C_2  and  N_9
REMARK    3  A    between atoms: C_10  and  C_14
REMARK    4  A    between atoms: C_16  and  N_21
REMARK    5  A    between atoms: C_18  and  N_20
REMARK                            x       y       z     vdW  Elec       q    Type
REMARK                         _______ _______ _______ _____ _____    ______ ____
ROOT
ATOM      1  N   UNL     1      -1.391  -0.737  -0.203  0.00  0.00    -0.218 N 
ATOM      2  C   UNL     1      -2.339  -0.117  -0.948  0.00  0.00    +0.183 A 
ATOM      3  N   UNL     1      -3.493  -0.311  -0.344  0.00  0.00    -0.108 NA
ATOM      4  N   UNL     1      -3.330  -1.006   0.724  0.00  0.00    -0.023 NA
ATOM      5  N   UNL     1      -2.087  -1.310   0.877  0.00  0.00    -0.043 NA
ENDROOT
BRANCH   1   7
ATOM      6  C   UNL     1       0.260  -0.941  -1.977  0.00  0.00    +0.038 C 
ATOM      7  C   UNL     1       0.048  -0.802  -0.468  0.00  0.00    +0.085 C 
ATOM      8  C   UNL     1       0.615  -2.041   0.223  0.00  0.00    +0.054 C 
ATOM      9  C   UNL     1       2.107  -1.817   0.593  0.00  0.00    +0.168 C 
ATOM     10  S   UNL     1       2.026  -0.055   1.142  0.00  0.00    -0.029 S 
ATOM     11  O   UNL     1       3.243   0.596   0.803  0.00  0.00    -0.174 OA
ATOM     12  O   UNL     1       1.550  -0.004   2.480  0.00  0.00    -0.174 OA
ATOM     13  C   UNL     1       0.697   0.514   0.002  0.00  0.00    +0.196 C 
ENDBRANCH   1   7
BRANCH   2  14
ATOM     14  C   UNL     1      -2.119   0.635  -2.203  0.00  0.00    +0.024 A 
ATOM     15  C   UNL     1      -0.919   1.315  -2.409  0.00  0.00    +0.034 A 
ATOM     16  C   UNL     1      -0.715   2.020  -3.586  0.00  0.00    +0.027 A 
ATOM     17  C   UNL     1      -1.705   2.049  -4.560  0.00  0.00    +0.045 A 
ATOM     18  C   UNL     1      -2.901   1.373  -4.358  0.00  0.00    +0.027 A 
ATOM     19  C   UNL     1      -3.108   0.661  -3.185  0.00  0.00    +0.034 A 
BRANCH  18  20
ATOM     20  N   UNL     1      -3.895   1.405  -5.340  0.00  0.00    -0.358 N 
ATOM     21  H   UNL     1      -3.749   1.898  -6.162  0.00  0.00    +0.142 HD
ATOM     22  H   UNL     1      -4.731   0.933  -5.199  0.00  0.00    +0.142 HD
ENDBRANCH  18  20
BRANCH  16  23
ATOM     23  N   UNL     1       0.486   2.701  -3.792  0.00  0.00    -0.358 N 
ATOM     24  H   UNL     1       1.178   2.682  -3.112  0.00  0.00    +0.142 HD
ATOM     25  H   UNL     1       0.629   3.194  -4.616  0.00  0.00    +0.142 HD
ENDBRANCH  16  23
ENDBRANCH   2  14
TORSDOF 4
