REMARK  Name = ZINC40795610
REMARK  5 active torsions:
REMARK  status: ('A' for Active; 'I' for Inactive)
REMARK    1  A    between atoms: C_1  and  C_2
REMARK    2  A    between atoms: C_2  and  C_13
REMARK    3  A    between atoms: N_15  and  C_16
REMARK    4  A    between atoms: C_17  and  C_25
REMARK    5  A    between atoms: N_27  and  C_28
REMARK                            x       y       z     vdW  Elec       q    Type
REMARK                         _______ _______ _______ _____ _____    ______ ____
ROOT
ATOM      1  C   UNL     1       0.698  -0.494  -1.242  0.00  0.00    +0.243 C 
ATOM      2  O   UNL     1       0.050  -0.958  -2.156  0.00  0.00    -0.273 OA
ATOM      3  N   UNL     1       2.040  -0.417  -1.338  0.00  0.00    -0.278 N 
ATOM      4  H   UNL     1       2.558  -0.047  -0.606  0.00  0.00    +0.155 HD
ENDROOT
BRANCH   1   6
ATOM      5  C   UNL     1      -0.019   1.526   0.010  0.00  0.00    +0.043 C 
ATOM      6  C   UNL     1       0.002  -0.004   0.002  0.00  0.00    +0.170 C 
ATOM      7  C   UNL     1      -1.409  -0.530   0.038  0.00  0.00    +0.242 C 
ATOM      8  O   UNL     1      -2.305   0.196  -0.337  0.00  0.00    -0.273 OA
ATOM      9  N   UNL     1      -1.720  -1.751   0.462  0.00  0.00    -0.283 N 
ATOM     10  C   UNL     1      -0.854  -2.677   1.034  0.00  0.00    +0.047 A 
ATOM     11  C   UNL     1      -1.239  -4.013   1.105  0.00  0.00    +0.024 A 
ATOM     12  C   UNL     1      -0.393  -4.953   1.659  0.00  0.00    +0.002 A 
ATOM     13  C   UNL     1       0.845  -4.580   2.148  0.00  0.00    +0.001 A 
ATOM     14  C   UNL     1       1.240  -3.256   2.087  0.00  0.00    +0.016 A 
ATOM     15  C   UNL     1       0.393  -2.308   1.536  0.00  0.00    +0.031 A 
ATOM     16  S   UNL     1       0.881  -0.612   1.474  0.00  0.00    -0.098 S 
ATOM     17  H   UNL     1      -2.646  -2.024   0.361  0.00  0.00    +0.155 HD
ENDBRANCH   1   6
BRANCH   3  18
ATOM     18  C   UNL     1       2.680  -0.869  -2.482  0.00  0.00    +0.084 A 
ATOM     19  C   UNL     1       4.040  -0.874  -2.752  0.00  0.00    +0.069 A 
ATOM     20  C   UNL     1       4.460  -1.405  -4.037  0.00  0.00    -0.023 A 
ATOM     21  C   UNL     1       3.443  -1.833  -4.816  0.00  0.00    -0.004 A 
ATOM     22  S   UNL     1       1.987  -1.541  -3.856  0.00  0.00    -0.077 S 
ATOM     23  C   UNL     1       3.549  -2.427  -6.187  0.00  0.00    +0.043 C 
ATOM     24  C   UNL     1       4.954  -2.131  -6.733  0.00  0.00    +0.005 C 
ATOM     25  C   UNL     1       5.988  -2.489  -5.661  0.00  0.00    +0.005 C 
ATOM     26  C   UNL     1       5.905  -1.491  -4.504  0.00  0.00    +0.037 C 
BRANCH  19  27
ATOM     27  C   UNL     1       5.013  -0.364  -1.781  0.00  0.00    +0.246 C 
ATOM     28  O   UNL     1       5.498  -1.113  -0.954  0.00  0.00    -0.270 OA
ATOM     29  N   UNL     1       5.371   0.936  -1.805  0.00  0.00    -0.314 N 
ATOM     30  C   UNL     1       6.343   1.445  -0.835  0.00  0.00    +0.128 C 
ATOM     31  H   UNL     1       4.984   1.533  -2.464  0.00  0.00    +0.149 HD
ENDBRANCH  19  27
ENDBRANCH   3  18
TORSDOF 3
