REMARK  Name = ZINC67289782
REMARK  6 active torsions:
REMARK  status: ('A' for Active; 'I' for Inactive)
REMARK    1  A    between atoms: N_4  and  C_6
REMARK    2  A    between atoms: C_9  and  C_13
REMARK    3  A    between atoms: C_10  and  O_12
REMARK    4  A    between atoms: N_15  and  C_16
REMARK    5  A    between atoms: C_16  and  C_17
REMARK    6  A    between atoms: N_19  and  C_20
REMARK                            x       y       z     vdW  Elec       q    Type
REMARK                         _______ _______ _______ _____ _____    ______ ____
ROOT
ATOM      1  C   UNL     1       3.090  -5.769  -0.024  0.00  0.00    +0.248 C 
ATOM      2  O   UNL     1       2.284  -6.679  -0.021  0.00  0.00    -0.270 OA
ATOM      3  N   UNL     1       4.411  -6.039  -0.045  0.00  0.00    -0.303 N 
ATOM      4  H   UNL     1       5.054  -5.313  -0.048  0.00  0.00    +0.150 HD
ENDROOT
BRANCH   1   8
ATOM      5  C   UNL     1       1.747  -1.739   0.030  0.00  0.00    +0.049 A 
ATOM      6  C   UNL     1       3.111  -2.020   0.009  0.00  0.00    +0.027 A 
ATOM      7  C   UNL     1       3.550  -3.323  -0.008  0.00  0.00    +0.019 A 
ATOM      8  C   UNL     1       2.624  -4.372  -0.005  0.00  0.00    +0.078 A 
ATOM      9  C   UNL     1       1.251  -4.088   0.017  0.00  0.00    +0.131 A 
ATOM     10  C   UNL     1       0.821  -2.772   0.040  0.00  0.00    +0.072 A 
BRANCH   5  14
ATOM     11  C   UNL     1      -0.011   1.346   0.084  0.00  0.00    +0.019 A 
ATOM     12  C   UNL     1       1.328   1.788   0.063  0.00  0.00    +0.019 A 
ATOM     13  C   UNL     1       2.115   0.693   0.041  0.00  0.00    +0.091 A 
ATOM     14  N   UNL     1       1.310  -0.411   0.048  0.00  0.00    -0.323 N 
ATOM     15  C   UNL     1       0.007  -0.002   0.074  0.00  0.00    +0.091 A 
ENDBRANCH   5  14
BRANCH   9  16
ATOM     16  O   UNL     1       0.347  -5.099   0.019  0.00  0.00    -0.506 OA
ATOM     17  H   UNL     1       0.097  -5.401   0.904  0.00  0.00    +0.292 HD
ENDBRANCH   9  16
ENDBRANCH   1   8
BRANCH   3  18
ATOM     18  C   UNL     1       4.874  -7.429  -0.065  0.00  0.00    +0.200 C 
BRANCH  18  19
ATOM     19  C   UNL     1       6.381  -7.456  -0.086  0.00  0.00    +0.234 C 
ATOM     20  O   UNL     1       7.006  -6.416  -0.086  0.00  0.00    -0.274 OA
ATOM     21  N   UNL     1       7.033  -8.635  -0.106  0.00  0.00    -0.282 N 
ATOM     22  H   UNL     1       6.537  -9.465  -0.042  0.00  0.00    +0.155 HD
BRANCH  21  23
ATOM     23  C   UNL     1       8.430  -8.661  -0.221  0.00  0.00    +0.072 A 
ATOM     24  C   UNL     1       9.194  -7.666   0.374  0.00  0.00    +0.029 A 
ATOM     25  C   UNL     1      10.571  -7.692   0.260  0.00  0.00    +0.043 A 
ATOM     26  C   UNL     1      11.191  -8.709  -0.445  0.00  0.00    +0.161 A 
ATOM     27  C   UNL     1      10.431  -9.704  -1.041  0.00  0.00    +0.195 A 
ATOM     28  C   UNL     1       9.052  -9.685  -0.924  0.00  0.00    +0.182 A 
ATOM     29  F   UNL     1       8.311 -10.658  -1.499  0.00  0.00    -0.200 F 
ATOM     30  F   UNL     1      11.038 -10.696  -1.730  0.00  0.00    -0.199 F 
ATOM     31  F   UNL     1      12.537  -8.731  -0.554  0.00  0.00    -0.202 F 
ENDBRANCH  21  23
ENDBRANCH  18  19
ENDBRANCH   3  18
TORSDOF 6
