REMARK  Name = ZINC57429399
REMARK  13 active torsions:
REMARK  status: ('A' for Active; 'I' for Inactive)
REMARK    1  A    between atoms: C_1  and  C_2
REMARK    2  A    between atoms: C_2  and  C_3
REMARK    3  A    between atoms: C_3  and  C_4
REMARK    4  A    between atoms: C_4  and  N_5
REMARK    5  A    between atoms: N_8  and  C_9
REMARK    6  A    between atoms: C_9  and  C_15
REMARK    7  A    between atoms: N_17  and  C_18
REMARK    8  A    between atoms: N_17  and  C_19
REMARK    9  A    between atoms: C_19  and  C_20
REMARK   10  A    between atoms: N_22  and  C_23
REMARK   11  A    between atoms: C_23  and  C_24
REMARK   12  A    between atoms: C_23  and  C_25
REMARK   13  A    between atoms: C_23  and  C_26
REMARK                            x       y       z     vdW  Elec       q    Type
REMARK                         _______ _______ _______ _____ _____    ______ ____
ROOT
ATOM      1  C   UNL     1       2.304  -5.680   3.863  0.00  0.00    +0.112 C 
ATOM      2  C   UNL     1       3.122  -6.481   2.849  0.00  0.00    +0.035 C 
ATOM      3  C   UNL     1       4.524  -5.881   2.736  0.00  0.00    +0.003 C 
ATOM      4  C   UNL     1       5.213  -5.934   4.102  0.00  0.00    +0.000 C 
ATOM      5  C   UNL     1       4.394  -5.133   5.117  0.00  0.00    +0.003 C 
ATOM      6  C   UNL     1       2.992  -5.733   5.229  0.00  0.00    +0.035 C 
ENDROOT
BRANCH   1  10
ATOM      7  N   UNL     1       1.375  -2.701   1.922  0.00  0.00    -0.299 N 
ATOM      8  C   UNL     1       1.558  -3.988   2.276  0.00  0.00    +0.300 C 
ATOM      9  O   UNL     1       1.141  -4.880   1.562  0.00  0.00    -0.253 OA
ATOM     10  N   UNL     1       2.205  -4.287   3.420  0.00  0.00    -0.285 N 
ATOM     11  H   UNL     1       1.708  -1.989   2.491  0.00  0.00    +0.150 HD
ATOM     12  H   UNL     1       2.604  -3.580   3.950  0.00  0.00    +0.151 HD
BRANCH   7  13
ATOM     13  C   UNL     1       0.673  -2.376   0.678  0.00  0.00    +0.106 C 
BRANCH  13  14
ATOM     14  C   UNL     1       0.601  -0.857   0.514  0.00  0.00    +0.018 C 
BRANCH  14  16
ATOM     15  C   UNL     1      -0.205   1.002  -0.948  0.00  0.00    +0.004 C 
ATOM     16  C   UNL     1      -0.133  -0.517  -0.785  0.00  0.00    -0.002 C 
ENDBRANCH  14  16
ENDBRANCH  13  14
ENDBRANCH   7  13
ENDBRANCH   1  10
BRANCH   1  17
ATOM     17  C   UNL     1       0.922  -6.271   3.974  0.00  0.00    +0.239 C 
ATOM     18  O   UNL     1       0.727  -7.423   3.646  0.00  0.00    -0.273 OA
ATOM     19  N   UNL     1      -0.098  -5.521   4.436  0.00  0.00    -0.294 N 
ATOM     20  C   UNL     1       0.156  -4.165   4.929  0.00  0.00    +0.132 C 
BRANCH  19  21
ATOM     21  C   UNL     1      -1.459  -6.060   4.445  0.00  0.00    +0.203 C 
BRANCH  21  22
ATOM     22  C   UNL     1      -1.713  -6.761   5.755  0.00  0.00    +0.231 C 
ATOM     23  O   UNL     1      -0.843  -6.805   6.598  0.00  0.00    -0.274 OA
ATOM     24  N   UNL     1      -2.908  -7.338   5.990  0.00  0.00    -0.309 N 
ATOM     25  H   UNL     1      -3.605  -7.303   5.315  0.00  0.00    +0.149 HD
BRANCH  24  26
ATOM     26  C   UNL     1      -3.155  -8.019   7.263  0.00  0.00    +0.026 C 
ATOM     27  C   UNL     1      -2.994  -7.024   8.414  0.00  0.00    +0.031 C 
ATOM     28  C   UNL     1      -4.578  -8.583   7.272  0.00  0.00    +0.031 C 
ATOM     29  C   UNL     1      -2.152  -9.162   7.433  0.00  0.00    +0.031 C 
ENDBRANCH  24  26
ENDBRANCH  21  22
ENDBRANCH  19  21
ENDBRANCH   1  17
TORSDOF 8
