REMARK  Name = ZINC39101098
REMARK  4 active torsions:
REMARK  status: ('A' for Active; 'I' for Inactive)
REMARK    1  A    between atoms: C_1  and  C_2
REMARK    2  A    between atoms: C_2  and  C_3
REMARK    3  A    between atoms: C_4  and  C_16
REMARK    4  A    between atoms: C_9  and  C_11
REMARK                            x       y       z     vdW  Elec       q    Type
REMARK                         _______ _______ _______ _____ _____    ______ ____
ROOT
ATOM      1  C   UNL     1      -1.412  -0.526   0.013  0.00  0.00    -0.026 C 
ATOM      2  C   UNL     1      -2.024  -0.853  -1.111  0.00  0.00    +0.010 C 
ATOM      3  N   UNL     1      -3.324  -1.333  -1.109  0.00  0.00    -0.273 N 
ATOM      4  C   UNL     1      -4.046  -1.499   0.007  0.00  0.00    +0.304 C 
ATOM      5  O   UNL     1      -5.181  -1.926  -0.080  0.00  0.00    -0.252 OA
ATOM      6  N   UNL     1      -3.548  -1.206   1.226  0.00  0.00    -0.286 N 
ATOM      7  C   UNL     1      -2.169  -0.696   1.313  0.00  0.00    +0.168 C 
ATOM      8  C   UNL     1      -1.295  -0.700  -2.421  0.00  0.00    +0.061 C 
ATOM      9  H   UNL     1      -3.732  -1.560  -1.959  0.00  0.00    +0.156 HD
ATOM     10  H   UNL     1      -4.083  -1.332   2.025  0.00  0.00    +0.151 HD
ENDROOT
BRANCH   7  11
ATOM     11  C   UNL     1      -1.379  -1.631   2.191  0.00  0.00    +0.129 A 
ATOM     12  C   UNL     1      -0.574  -1.266   3.205  0.00  0.00    +0.047 A 
ATOM     13  C   UNL     1      -0.037  -2.455   3.751  0.00  0.00    +0.041 A 
ATOM     14  C   UNL     1      -0.545  -3.475   3.037  0.00  0.00    +0.195 A 
ATOM     15  O   UNL     1      -1.362  -2.971   2.097  0.00  0.00    -0.466 OA
ENDBRANCH   7  11
BRANCH   1  17
ATOM     16  C   UNL     1      -0.019   1.526   0.010  0.00  0.00    +0.008 C 
ATOM     17  C   UNL     1       0.002  -0.004   0.002  0.00  0.00    +0.031 C 
ENDBRANCH   1  17
TORSDOF 2
