REMARK  Name = ZINC50933992
REMARK  9 active torsions:
REMARK  status: ('A' for Active; 'I' for Inactive)
REMARK    1  A    between atoms: C_1  and  C_2
REMARK    2  A    between atoms: C_2  and  C_3
REMARK    3  A    between atoms: C_3  and  C_4
REMARK    4  A    between atoms: C_4  and  C_6
REMARK    5  A    between atoms: C_4  and  N_7
REMARK    6  A    between atoms: C_8  and  C_10
REMARK    7  A    between atoms: C_18  and  C_25
REMARK    8  A    between atoms: C_19  and  C_24
REMARK    9  A    between atoms: C_20  and  C_23
REMARK                            x       y       z     vdW  Elec       q    Type
REMARK                         _______ _______ _______ _____ _____    ______ ____
ROOT
ATOM      1  C   UNL     1       2.268  -4.161   1.595  0.00  0.00    +0.092 C 
ATOM      2  C   UNL     1       3.723  -4.290   1.137  0.00  0.00    +0.016 C 
ATOM      3  C   UNL     1       4.569  -4.866   2.274  0.00  0.00    +0.020 C 
ATOM      4  C   UNL     1       4.050  -6.261   2.635  0.00  0.00    +0.106 C 
ATOM      5  N   UNL     1       2.615  -6.169   2.938  0.00  0.00    -0.312 N 
ATOM      6  C   UNL     1       1.723  -5.549   1.949  0.00  0.00    +0.119 C 
ATOM      7  C   UNL     1       2.113  -6.658   4.132  0.00  0.00    +0.162 A 
ATOM      8  C   UNL     1       1.678  -7.994   4.225  0.00  0.00    +0.098 A 
ATOM      9  C   UNL     1       1.180  -8.430   5.460  0.00  0.00    -0.007 A 
ATOM     10  C   UNL     1       1.150  -7.520   6.504  0.00  0.00    +0.065 A 
ATOM     11  N   UNL     1       1.580  -6.287   6.321  0.00  0.00    -0.152 NA
ATOM     12  N   UNL     1       2.043  -5.874   5.198  0.00  0.00    -0.133 NA
ATOM     13  C   UNL     1       0.624  -7.940   7.852  0.00  0.00    +0.068 C 
ATOM     14  C   UNL     1       0.693  -9.843   5.647  0.00  0.00    +0.047 C 
ENDROOT
BRANCH   1  16
ATOM     15  N   UNL     1       1.740  -2.340   0.006  0.00  0.00    -0.312 N 
ATOM     16  C   UNL     1       1.442  -3.564   0.485  0.00  0.00    +0.218 C 
ATOM     17  O   UNL     1       0.508  -4.185   0.023  0.00  0.00    -0.275 OA
ATOM     18  H   UNL     1       2.487  -1.844   0.376  0.00  0.00    +0.149 HD
BRANCH  15  19
ATOM     19  C   UNL     1       0.937  -1.760  -1.073  0.00  0.00    +0.070 C 
ATOM     20  C   UNL     1       1.462  -2.255  -2.422  0.00  0.00    +0.028 C 
BRANCH  19  21
ATOM     21  C   UNL     1       1.034  -0.234  -1.016  0.00  0.00    +0.022 C 
BRANCH  21  23
ATOM     22  C   UNL     1       0.493   1.796   0.336  0.00  0.00    +0.004 C 
ATOM     23  C   UNL     1       0.396   0.270   0.280  0.00  0.00    -0.002 C 
ENDBRANCH  21  23
ENDBRANCH  19  21
ENDBRANCH  15  19
ENDBRANCH   1  16
BRANCH   8  24
ATOM     24  C   UNL     1       1.741  -8.875   3.098  0.00  0.00    +0.103 C 
ATOM     25  N   UNL     1       1.791  -9.574   2.204  0.00  0.00    -0.191 NA
ENDBRANCH   8  24
TORSDOF 5
