REMARK  Name = ZINC55029191
REMARK  10 active torsions:
REMARK  status: ('A' for Active; 'I' for Inactive)
REMARK    1  A    between atoms: C_1  and  C_2
REMARK    2  A    between atoms: C_2  and  C_3
REMARK    3  A    between atoms: C_3  and  C_4
REMARK    4  A    between atoms: C_4  and  C_6
REMARK    5  A    between atoms: C_4  and  N_7
REMARK    6  A    between atoms: C_8  and  C_10
REMARK    7  A    between atoms: C_10  and  C_12
REMARK    8  A    between atoms: C_10  and  N_13
REMARK    9  A    between atoms: C_16  and  N_19
REMARK   10  A    between atoms: N_22  and  C_23
REMARK                            x       y       z     vdW  Elec       q    Type
REMARK                         _______ _______ _______ _____ _____    ______ ____
ROOT
ATOM      1  N   UNL     1      -2.436  -5.586   0.338  0.00  0.00    +0.387 N 
ATOM      2  C   UNL     1      -3.831  -6.041   0.374  0.00  0.00    -0.076 C 
ATOM      3  C   UNL     1      -3.938  -7.423  -0.272  0.00  0.00    +0.004 C 
ATOM      4  C   UNL     1      -3.465  -7.339  -1.726  0.00  0.00    +0.071 C 
ATOM      5  C   UNL     1      -2.034  -6.794  -1.756  0.00  0.00    +0.004 C 
ATOM      6  C   UNL     1      -1.998  -5.434  -1.055  0.00  0.00    -0.076 C 
ATOM      7  H   UNL     1      -1.851  -6.265   0.801  0.00  0.00    -0.081 HD
ENDROOT
BRANCH   4   8
ATOM      8  N   UNL     1      -3.493  -8.674  -2.329  0.00  0.00    -0.297 N 
ATOM      9  C   UNL     1      -3.617  -8.809  -3.664  0.00  0.00    +0.300 C 
ATOM     10  O   UNL     1      -3.705  -7.822  -4.369  0.00  0.00    -0.253 OA
ATOM     11  N   UNL     1      -3.642 -10.037  -4.218  0.00  0.00    -0.297 N 
ATOM     12  H   UNL     1      -3.423  -9.462  -1.767  0.00  0.00    +0.151 HD
ATOM     13  H   UNL     1      -3.572 -10.824  -3.656  0.00  0.00    +0.151 HD
BRANCH  11  14
ATOM     14  C   UNL     1      -3.777 -10.183  -5.670  0.00  0.00    +0.074 C 
ATOM     15  C   UNL     1      -5.258 -10.140  -6.052  0.00  0.00    +0.022 C 
ATOM     16  C   UNL     1      -5.398 -10.292  -7.568  0.00  0.00    +0.002 C 
ATOM     17  C   UNL     1      -4.798 -11.630  -8.004  0.00  0.00    +0.000 C 
ATOM     18  C   UNL     1      -3.317 -11.674  -7.621  0.00  0.00    +0.002 C 
ATOM     19  C   UNL     1      -3.176 -11.521  -6.106  0.00  0.00    +0.022 C 
ENDBRANCH  11  14
ENDBRANCH   4   8
BRANCH   1  20
ATOM     20  C   UNL     1      -2.325  -4.294   1.028  0.00  0.00    +0.016 C 
ATOM     21  C   UNL     1      -2.772  -4.453   2.482  0.00  0.00    -0.004 C 
BRANCH  20  23
ATOM     22  N   UNL     1      -0.614  -2.508   1.014  0.00  0.00    -0.314 N 
ATOM     23  C   UNL     1      -0.893  -3.826   0.991  0.00  0.00    +0.199 C 
ATOM     24  O   UNL     1       0.009  -4.636   0.941  0.00  0.00    -0.278 OA
ATOM     25  H   UNL     1      -1.335  -1.860   1.054  0.00  0.00    +0.149 HD
BRANCH  22  26
ATOM     26  C   UNL     1       0.778  -2.053   0.978  0.00  0.00    +0.070 C 
ATOM     27  C   UNL     1       1.350  -2.049   2.397  0.00  0.00    +0.028 C 
BRANCH  26  28
ATOM     28  C   UNL     1       0.838  -0.638   0.400  0.00  0.00    +0.022 C 
BRANCH  28  30
ATOM     29  C   UNL     1       0.442   0.752  -1.638  0.00  0.00    +0.004 C 
ATOM     30  C   UNL     1       0.383  -0.664  -1.060  0.00  0.00    -0.002 C 
ENDBRANCH  28  30
ENDBRANCH  26  28
ENDBRANCH  22  26
ENDBRANCH  20  23
ENDBRANCH   1  20
TORSDOF 7
