REMARK  Name = ZINC43092512
REMARK  8 active torsions:
REMARK  status: ('A' for Active; 'I' for Inactive)
REMARK    1  A    between atoms: C_1  and  C_2
REMARK    2  A    between atoms: C_2  and  C_3
REMARK    3  A    between atoms: C_3  and  C_5
REMARK    4  A    between atoms: C_3  and  N_23
REMARK    5  A    between atoms: C_5  and  C_7
REMARK    6  A    between atoms: C_5  and  N_14
REMARK    7  A    between atoms: C_19  and  C_21
REMARK    8  A    between atoms: C_21  and  O_22
REMARK                            x       y       z     vdW  Elec       q    Type
REMARK                         _______ _______ _______ _____ _____    ______ ____
ROOT
ATOM      1  C   UNL     1      -0.963  -2.447  -0.257  0.00  0.00    +0.074 C 
ENDROOT
BRANCH   1   2
ATOM      2  C   UNL     1      -0.826  -3.220   1.029  0.00  0.00    -0.018 A 
ATOM      3  C   UNL     1      -1.796  -3.110   2.008  0.00  0.00    +0.006 A 
ATOM      4  C   UNL     1      -1.671  -3.819   3.188  0.00  0.00    +0.000 A 
ATOM      5  C   UNL     1      -0.576  -4.639   3.389  0.00  0.00    +0.001 A 
ATOM      6  C   UNL     1       0.394  -4.750   2.411  0.00  0.00    +0.015 A 
ATOM      7  C   UNL     1       0.267  -4.044   1.228  0.00  0.00    +0.022 A 
ATOM      8 BR   UNL     1       1.590  -4.200  -0.113  0.00  0.00    -0.050 Br
ENDBRANCH   1   2
BRANCH   1   9
ATOM      9  N   UNL     1      -1.643  -3.279  -1.259  0.00  0.00    -0.292 NA
ATOM     10  C   UNL     1      -3.076  -3.398  -0.958  0.00  0.00    +0.085 C 
ATOM     11  C   UNL     1      -3.722  -4.385  -1.933  0.00  0.00    +0.015 C 
ATOM     12  C   UNL     1      -3.523  -3.884  -3.366  0.00  0.00    +0.003 C 
ATOM     13  C   UNL     1      -2.025  -3.721  -3.637  0.00  0.00    +0.021 C 
ATOM     14  C   UNL     1      -1.427  -2.754  -2.613  0.00  0.00    +0.083 C 
BRANCH  14  15
ATOM     15  C   UNL     1       0.074  -2.604  -2.868  0.00  0.00    +0.174 C 
BRANCH  15  16
ATOM     16  O   UNL     1       0.700  -3.886  -2.792  0.00  0.00    -0.393 OA
ATOM     17  H   UNL     1       1.663  -3.859  -2.874  0.00  0.00    +0.209 HD
ENDBRANCH  15  16
ENDBRANCH  14  15
ENDBRANCH   1   9
BRANCH   1  18
ATOM     18  C   UNL     1      -1.782  -1.179  -0.006  0.00  0.00    -0.053 C 
BRANCH  18  19
ATOM     19  N   UNL     1      -2.002  -0.478  -1.278  0.00  0.00    +0.381 N 
ATOM     20  H   UNL     1      -1.184  -0.575  -1.861  0.00  0.00    -0.090 HD
ATOM     21  H   UNL     1      -2.800  -0.878  -1.748  0.00  0.00    -0.090 HD
ATOM     22  H   UNL     1      -2.173   0.500  -1.098  0.00  0.00    -0.090 HD
ENDBRANCH  18  19
BRANCH  18  24
ATOM     23  C   UNL     1      -1.835   1.010   1.198  0.00  0.00    +0.002 C 
ATOM     24  C   UNL     1      -1.022  -0.263   0.956  0.00  0.00    -0.018 C 
ENDBRANCH  18  24
ENDBRANCH   1  18
TORSDOF 7
