REMARK  Name = ZINC15730329
REMARK  4 active torsions:
REMARK  status: ('A' for Active; 'I' for Inactive)
REMARK    1  A    between atoms: C_1  and  C_2
REMARK    2  A    between atoms: C_10  and  S_15
REMARK    3  A    between atoms: S_15  and  N_18
REMARK    4  A    between atoms: N_18  and  C_19
REMARK                            x       y       z     vdW  Elec       q    Type
REMARK                         _______ _______ _______ _____ _____    ______ ____
ROOT
ATOM      1  C   UNL     1       0.882   3.557   2.035  0.00  0.00    +0.020 C 
ATOM      2  C   UNL     1       1.717   2.421   1.440  0.00  0.00    +0.057 C 
ATOM      3  C   UNL     1       1.255   2.130   0.002  0.00  0.00    +0.110 C 
ATOM      4  C   UNL     1      -0.016   1.335   0.009  0.00  0.00    +0.218 C 
ATOM      5  O   UNL     1      -1.081   1.915   0.018  0.00  0.00    -0.275 OA
ATOM      6  N   UNL     1       0.002  -0.004   0.002  0.00  0.00    -0.284 N 
ATOM      7  C   UNL     1       1.204  -0.698   0.210  0.00  0.00    +0.049 A 
ATOM      8  C   UNL     1       1.604  -1.696  -0.663  0.00  0.00    +0.053 A 
ATOM      9  C   UNL     1       2.794  -2.366  -0.440  0.00  0.00    +0.107 A 
ATOM     10  C   UNL     1       3.584  -2.043   0.648  0.00  0.00    +0.030 A 
ATOM     11  C   UNL     1       3.192  -1.047   1.524  0.00  0.00    +0.018 A 
ATOM     12  C   UNL     1       2.001  -0.374   1.306  0.00  0.00    +0.029 A 
ATOM     13  S   UNL     1       1.471   0.896   2.410  0.00  0.00    -0.120 S 
ATOM     14  H   UNL     1      -0.820  -0.497  -0.148  0.00  0.00    +0.155 HD
ENDROOT
BRANCH   9  15
ATOM     15  S   UNL     1       3.304  -3.638  -1.548  0.00  0.00    +0.059 S 
ATOM     16  O   UNL     1       2.662  -3.378  -2.788  0.00  0.00    -0.153 OA
ATOM     17  O   UNL     1       4.717  -3.737  -1.428  0.00  0.00    -0.153 OA
BRANCH  15  18
ATOM     18  N   UNL     1       2.679  -5.062  -0.980  0.00  0.00    -0.187 NA
ATOM     19  H   UNL     1       3.274  -5.763  -0.669  0.00  0.00    +0.148 HD
BRANCH  18  20
ATOM     20  C   UNL     1       1.229  -5.264  -0.947  0.00  0.00    +0.077 C 
ATOM     21  C   UNL     1       0.700  -4.860   0.445  0.00  0.00    +0.020 C 
ATOM     22  C   UNL     1      -0.774  -4.574   0.331  0.00  0.00    +0.002 C 
ATOM     23  C   UNL     1      -1.639  -5.801   0.676  0.00  0.00    +0.000 C 
ATOM     24  C   UNL     1      -1.079  -7.111   0.089  0.00  0.00    +0.000 C 
ATOM     25  C   UNL     1      -0.576  -6.941  -1.319  0.00  0.00    +0.002 C 
ATOM     26  C   UNL     1       0.939  -6.654  -1.266  0.00  0.00    +0.020 C 
ENDBRANCH  18  20
ENDBRANCH  15  18
ENDBRANCH   9  15
TORSDOF 3
