REMARK  Name = ZINC50287452
REMARK  5 active torsions:
REMARK  status: ('A' for Active; 'I' for Inactive)
REMARK    1  A    between atoms: C_1  and  N_2
REMARK    2  A    between atoms: C_9  and  C_11
REMARK    3  A    between atoms: C_11  and  C_13
REMARK    4  A    between atoms: C_11  and  N_15
REMARK    5  A    between atoms: N_15  and  C_16
REMARK                            x       y       z     vdW  Elec       q    Type
REMARK                         _______ _______ _______ _____ _____    ______ ____
ROOT
ATOM      1  C   UNL     1       0.094  -3.793   4.218  0.00  0.00    +0.205 C 
ENDROOT
BRANCH   1  10
ATOM      2  C   UNL     1      -0.018   1.461   0.010  0.00  0.00    +0.129 C 
ATOM      3  N   UNL     1       0.002  -0.004   0.002  0.00  0.00    -0.332 N 
ATOM      4  C   UNL     1       0.008  -0.837  -1.204  0.00  0.00    +0.109 C 
ATOM      5  C   UNL     1       0.030  -2.287  -0.692  0.00  0.00    +0.056 C 
ATOM      6  C   UNL     1       0.035  -2.157   0.815  0.00  0.00    -0.025 A 
ATOM      7  C   UNL     1       0.024  -0.810   1.141  0.00  0.00    +0.033 A 
ATOM      8  C   UNL     1       0.031  -0.439   2.488  0.00  0.00    +0.024 A 
ATOM      9  C   UNL     1       0.054  -1.402   3.474  0.00  0.00    +0.008 A 
ATOM     10  C   UNL     1       0.069  -2.743   3.138  0.00  0.00    -0.013 A 
ATOM     11  C   UNL     1       0.052  -3.118   1.807  0.00  0.00    +0.012 A 
ENDBRANCH   1  10
BRANCH   1  12
ATOM     12  C   UNL     1      -1.265  -3.980   4.752  0.00  0.00    +0.090 C 
ATOM     13  N   UNL     1      -2.314  -4.125   5.163  0.00  0.00    -0.194 NA
ENDBRANCH   1  12
BRANCH   1  14
ATOM     14  N   UNL     1       0.986  -3.362   5.297  0.00  0.00    -0.325 N 
ATOM     15  H   UNL     1       1.160  -2.417   5.435  0.00  0.00    +0.148 HD
BRANCH  14  16
ATOM     16  C   UNL     1       1.588  -4.312   6.128  0.00  0.00    +0.028 A 
ATOM     17  C   UNL     1       1.345  -5.664   5.928  0.00  0.00    +0.026 A 
ATOM     18  C   UNL     1       1.941  -6.601   6.750  0.00  0.00    +0.040 A 
ATOM     19  C   UNL     1       2.780  -6.192   7.772  0.00  0.00    +0.124 A 
ATOM     20  C   UNL     1       3.024  -4.844   7.973  0.00  0.00    +0.040 A 
ATOM     21  C   UNL     1       2.435  -3.904   7.151  0.00  0.00    +0.026 A 
ATOM     22  F   UNL     1       3.362  -7.110   8.575  0.00  0.00    -0.205 F 
ENDBRANCH  14  16
ENDBRANCH   1  14
TORSDOF 4
