REMARK  Name = ZINC05483629
REMARK  5 active torsions:
REMARK  status: ('A' for Active; 'I' for Inactive)
REMARK    1  A    between atoms: C_1  and  C_2
REMARK    2  A    between atoms: C_5  and  N_8
REMARK    3  A    between atoms: C_13  and  C_15
REMARK    4  A    between atoms: N_17  and  C_18
REMARK    5  A    between atoms: C_19  and  C_27
REMARK                            x       y       z     vdW  Elec       q    Type
REMARK                         _______ _______ _______ _____ _____    ______ ____
ROOT
ATOM      1  C   UNL     1      -1.624   2.243   6.022  0.00  0.00    +0.273 C 
ATOM      2  O   UNL     1      -2.308   3.177   5.651  0.00  0.00    -0.268 OA
ATOM      3  N   UNL     1      -0.652   1.760   5.223  0.00  0.00    -0.274 N 
ATOM      4  H   UNL     1      -0.106   1.014   5.520  0.00  0.00    +0.156 HD
ENDROOT
BRANCH   3   5
ATOM      5  C   UNL     1      -0.432   2.328   3.979  0.00  0.00    +0.085 A 
ATOM      6  C   UNL     1       0.512   1.974   3.025  0.00  0.00    +0.068 A 
ATOM      7  C   UNL     1       0.538   2.737   1.791  0.00  0.00    -0.023 A 
ATOM      8  C   UNL     1      -0.382   3.726   1.706  0.00  0.00    -0.004 A 
ATOM      9  S   UNL     1      -1.267   3.652   3.237  0.00  0.00    -0.077 S 
ATOM     10  C   UNL     1      -0.592   4.669   0.562  0.00  0.00    +0.043 C 
ATOM     11  C   UNL     1       0.636   4.596  -0.358  0.00  0.00    +0.005 C 
ATOM     12  C   UNL     1       0.964   3.124  -0.625  0.00  0.00    +0.005 C 
ATOM     13  C   UNL     1       1.508   2.472   0.647  0.00  0.00    +0.037 C 
BRANCH   6  14
ATOM     14  C   UNL     1       1.450   0.872   3.255  0.00  0.00    +0.244 C 
ATOM     15  O   UNL     1       1.153  -0.261   2.922  0.00  0.00    -0.270 OA
ATOM     16  N   UNL     1       2.643   1.111   3.836  0.00  0.00    -0.325 N 
ATOM     17  H   UNL     1       2.880   2.014   4.102  0.00  0.00    +0.145 HD
ATOM     18  H   UNL     1       3.263   0.382   3.988  0.00  0.00    +0.145 HD
ENDBRANCH   6  14
ENDBRANCH   3   5
BRANCH   1  24
ATOM     19  N   UNL     1      -1.306   0.079   8.908  0.00  0.00    -0.239 N 
ATOM     20  C   UNL     1      -2.254   0.486   9.787  0.00  0.00    +0.117 A 
ATOM     21  C   UNL     1      -3.079   1.518   9.489  0.00  0.00    +0.073 A 
ATOM     22  C   UNL     1      -2.913   2.158   8.233  0.00  0.00    +0.212 A 
ATOM     23  O   UNL     1      -3.618   3.097   7.900  0.00  0.00    -0.285 OA
ATOM     24  C   UNL     1      -1.859   1.637   7.348  0.00  0.00    +0.193 A 
ATOM     25  N   UNL     1      -1.126   0.626   7.762  0.00  0.00    -0.158 NA
BRANCH  19  30
ATOM     26  C   UNL     1       2.038  -4.263  10.373  0.00  0.00    +0.044 C 
ATOM     27  C   UNL     1       1.150  -3.110   9.984  0.00  0.00    -0.050 A 
ATOM     28  C   UNL     1       0.379  -2.478  10.943  0.00  0.00    +0.005 A 
ATOM     29  C   UNL     1      -0.436  -1.421  10.590  0.00  0.00    +0.028 A 
ATOM     30  C   UNL     1      -0.481  -0.992   9.269  0.00  0.00    +0.065 A 
ATOM     31  C   UNL     1       0.290  -1.633   8.307  0.00  0.00    +0.028 A 
ATOM     32  C   UNL     1       1.107  -2.686   8.668  0.00  0.00    +0.005 A 
ENDBRANCH  19  30
ENDBRANCH   1  24
TORSDOF 4
