REMARK  Name = ZINC39601708
REMARK  11 active torsions:
REMARK  status: ('A' for Active; 'I' for Inactive)
REMARK    1  A    between atoms: C_1  and  C_2
REMARK    2  A    between atoms: C_2  and  C_4
REMARK    3  A    between atoms: C_2  and  O_26
REMARK    4  A    between atoms: C_8  and  C_17
REMARK    5  A    between atoms: N_19  and  C_20
REMARK    6  A    between atoms: C_20  and  C_21
REMARK    7  A    between atoms: C_21  and  O_22
REMARK    8  A    between atoms: O_22  and  C_23
REMARK    9  A    between atoms: C_23  and  C_24
REMARK   10  A    between atoms: C_24  and  O_25
REMARK   11  A    between atoms: O_26  and  C_27
REMARK                            x       y       z     vdW  Elec       q    Type
REMARK                         _______ _______ _______ _____ _____    ______ ____
ROOT
ATOM      1  C   UNL     1       0.740  -0.383   1.130  0.00  0.00    +0.256 C 
ATOM      2  O   UNL     1       1.862  -0.798   0.928  0.00  0.00    -0.272 OA
ATOM      3  N   UNL     1       0.347  -0.089   2.385  0.00  0.00    -0.297 N 
ATOM      4  C   UNL     1      -0.974   0.417   2.827  0.00  0.00    +0.121 C 
ATOM      5  C   UNL     1      -1.253  -0.327   4.152  0.00  0.00    +0.100 C 
ATOM      6  C   UNL     1       0.135  -0.727   4.678  0.00  0.00    -0.004 C 
ATOM      7  C   UNL     1       1.135  -0.205   3.635  0.00  0.00    +0.115 C 
ATOM      8  C   UNL     1       0.396  -0.076   6.033  0.00  0.00    -0.010 C 
ATOM      9  C   UNL     1       1.757  -0.535   6.562  0.00  0.00    -0.082 C 
ATOM     10  N   UNL     1       1.767  -1.997   6.689  0.00  0.00    +0.379 N 
ATOM     11  C   UNL     1       1.609  -2.616   5.368  0.00  0.00    -0.082 C 
ATOM     12  C   UNL     1       0.241  -2.245   4.789  0.00  0.00    -0.010 C 
ATOM     13  H   UNL     1       2.643  -2.292   7.095  0.00  0.00    -0.086 HD
ATOM     14  H   UNL     1       1.008  -2.286   7.288  0.00  0.00    -0.086 HD
ENDROOT
BRANCH   5  15
ATOM     15  C   UNL     1      -1.944   0.587   5.131  0.00  0.00    +0.218 C 
ATOM     16  O   UNL     1      -1.727   1.780   5.105  0.00  0.00    -0.275 OA
ATOM     17  N   UNL     1      -2.804   0.079   6.036  0.00  0.00    -0.313 N 
ATOM     18  H   UNL     1      -2.978  -0.875   6.057  0.00  0.00    +0.149 HD
BRANCH  17  19
ATOM     19  C   UNL     1      -3.476   0.967   6.988  0.00  0.00    +0.132 C 
BRANCH  19  20
ATOM     20  C   UNL     1      -4.391   0.143   7.896  0.00  0.00    +0.178 C 
BRANCH  20  21
ATOM     21  O   UNL     1      -3.600  -0.739   8.696  0.00  0.00    -0.376 OA
BRANCH  21  22
ATOM     22  C   UNL     1      -4.361  -1.558   9.585  0.00  0.00    +0.187 C 
BRANCH  22  23
ATOM     23  C   UNL     1      -3.417  -2.457  10.386  0.00  0.00    +0.184 C 
BRANCH  23  24
ATOM     24  O   UNL     1      -2.592  -1.650  11.228  0.00  0.00    -0.393 OA
ATOM     25  H   UNL     1      -1.967  -2.154  11.767  0.00  0.00    +0.209 HD
ENDBRANCH  23  24
ENDBRANCH  22  23
ENDBRANCH  21  22
ENDBRANCH  20  21
ENDBRANCH  19  20
ENDBRANCH  17  19
ENDBRANCH   5  15
BRANCH   1  27
ATOM     26  C   UNL     1      -0.539   1.289  -0.180  0.00  0.00    +0.062 C 
ATOM     27  C   UNL     1      -0.213  -0.197  -0.022  0.00  0.00    +0.256 C 
BRANCH  27  28
ATOM     28  O   UNL     1       0.390  -0.683  -1.223  0.00  0.00    -0.480 OA
BRANCH  28  29
ATOM     29  C   UNL     1      -0.447  -1.081  -2.217  0.00  0.00    +0.122 A 
ATOM     30  C   UNL     1       0.067  -1.668  -3.364  0.00  0.00    +0.045 A 
ATOM     31  C   UNL     1      -0.786  -2.073  -4.373  0.00  0.00    +0.004 A 
ATOM     32  C   UNL     1      -2.151  -1.892  -4.239  0.00  0.00    +0.000 A 
ATOM     33  C   UNL     1      -2.665  -1.307  -3.097  0.00  0.00    +0.004 A 
ATOM     34  C   UNL     1      -1.817  -0.906  -2.083  0.00  0.00    +0.045 A 
ENDBRANCH  28  29
ENDBRANCH  27  28
ENDBRANCH   1  27
TORSDOF 10
