REMARK  Name = ZINC57343766
REMARK  3 active torsions:
REMARK  status: ('A' for Active; 'I' for Inactive)
REMARK    1  A    between atoms: C_1  and  C_2
REMARK    2  A    between atoms: C_7  and  N_8
REMARK    3  A    between atoms: C_11  and  C_20
REMARK                            x       y       z     vdW  Elec       q    Type
REMARK                         _______ _______ _______ _____ _____    ______ ____
ROOT
ATOM      1  N   UNL     1      -0.033  -0.015   2.413  0.00  0.00    -0.284 N 
ATOM      2  C   UNL     1      -0.087  -0.706   3.598  0.00  0.00    +0.210 A 
ATOM      3  N   UNL     1      -0.062  -2.016   3.581  0.00  0.00    -0.215 NA
ATOM      4  C   UNL     1      -0.112  -2.746   4.712  0.00  0.00    +0.078 A 
ATOM      5  C   UNL     1      -0.192  -2.132   5.932  0.00  0.00    +0.077 A 
ATOM      6  C   UNL     1      -0.221  -0.717   5.977  0.00  0.00    +0.166 A 
ATOM      7  N   UNL     1      -0.161  -0.014   4.782  0.00  0.00    -0.215 N 
ATOM      8  C   UNL     1      -0.196   1.302   5.068  0.00  0.00    +0.351 A 
ATOM      9  O   UNL     1      -0.166   2.212   4.260  0.00  0.00    -0.245 OA
ATOM     10  N   UNL     1      -0.270   1.432   6.410  0.00  0.00    -0.226 N 
ATOM     11  H   UNL     1      -0.309   2.267   6.902  0.00  0.00    +0.194 HD
ATOM     12  N   UNL     1      -0.292   0.143   6.962  0.00  0.00    -0.151 NA
ATOM     13  H   UNL     1      -0.140   0.950   2.409  0.00  0.00    +0.155 HD
ENDROOT
BRANCH   1  20
ATOM     14  C   UNL     1      -1.309   0.967   0.067  0.00  0.00    +0.046 C 
ATOM     15  C   UNL     1      -0.428  -0.256   0.043  0.00  0.00    -0.027 A 
ATOM     16  C   UNL     1      -0.216  -0.931  -1.143  0.00  0.00    +0.043 A 
ATOM     17  C   UNL     1       0.593  -2.054  -1.167  0.00  0.00    +0.124 A 
ATOM     18  C   UNL     1       1.192  -2.503  -0.001  0.00  0.00    +0.040 A 
ATOM     19  C   UNL     1       0.983  -1.831   1.187  0.00  0.00    +0.026 A 
ATOM     20  C   UNL     1       0.176  -0.701   1.211  0.00  0.00    +0.037 A 
ATOM     21  F   UNL     1       0.799  -2.713  -2.328  0.00  0.00    -0.205 F 
ENDBRANCH   1  20
BRANCH   4  22
ATOM     22  C   UNL     1      -0.080  -4.225   4.635  0.00  0.00    +0.001 A 
ATOM     23  C   UNL     1      -0.270  -4.991   5.785  0.00  0.00    +0.010 A 
ATOM     24  C   UNL     1      -0.240  -6.368   5.706  0.00  0.00    +0.001 A 
ATOM     25  C   UNL     1      -0.021  -6.990   4.489  0.00  0.00    +0.000 A 
ATOM     26  C   UNL     1       0.168  -6.236   3.345  0.00  0.00    +0.001 A 
ATOM     27  C   UNL     1       0.135  -4.858   3.410  0.00  0.00    +0.010 A 
ENDBRANCH   4  22
TORSDOF 2
