REMARK  Name = ZINC36763953
REMARK  6 active torsions:
REMARK  status: ('A' for Active; 'I' for Inactive)
REMARK    1  A    between atoms: C_1  and  C_2
REMARK    2  A    between atoms: C_2  and  C_3
REMARK    3  A    between atoms: C_2  and  C_4
REMARK    4  A    between atoms: C_6  and  C_9
REMARK    5  A    between atoms: C_9  and  C_11
REMARK    6  A    between atoms: C_9  and  N_18
REMARK                            x       y       z     vdW  Elec       q    Type
REMARK                         _______ _______ _______ _____ _____    ______ ____
ROOT
ATOM      1  C   UNL     1       3.323  -2.298  -2.965  0.00  0.00    +0.030 C 
ENDROOT
BRANCH   1   2
ATOM      2  C   UNL     1       4.413  -1.382  -3.460  0.00  0.00    -0.041 A 
ATOM      3  C   UNL     1       4.523  -1.104  -4.809  0.00  0.00    +0.003 A 
ATOM      4  C   UNL     1       5.523  -0.265  -5.263  0.00  0.00    +0.000 A 
ATOM      5  C   UNL     1       6.413   0.298  -4.367  0.00  0.00    +0.001 A 
ATOM      6  C   UNL     1       6.304   0.021  -3.017  0.00  0.00    +0.015 A 
ATOM      7  C   UNL     1       5.300  -0.816  -2.562  0.00  0.00    +0.020 A 
ATOM      8 BR   UNL     1       5.146  -1.190  -0.715  0.00  0.00    -0.050 Br
ENDBRANCH   1   2
BRANCH   1  11
ATOM      9  C   UNL     1       0.707  -0.490  -1.238  0.00  0.00    +0.230 A 
ATOM     10  N   UNL     1       1.779  -1.233  -1.266  0.00  0.00    -0.197 NA
ATOM     11  C   UNL     1       2.136  -1.477  -2.532  0.00  0.00    +0.162 A 
ATOM     12  N   UNL     1       1.290  -0.889  -3.329  0.00  0.00    -0.063 NA
ATOM     13  O   UNL     1       0.338  -0.239  -2.500  0.00  0.00    -0.338 OA
BRANCH   9  15
ATOM     14  C   UNL     1      -0.019   1.526   0.010  0.00  0.00    +0.017 C 
ATOM     15  C   UNL     1       0.002  -0.004   0.002  0.00  0.00    +0.072 C 
ATOM     16  C   UNL     1      -1.433  -0.534   0.013  0.00  0.00    +0.017 C 
ENDBRANCH   9  15
ENDBRANCH   1  11
BRANCH   1  17
ATOM     17  N   UNL     1       2.920  -3.208  -4.046  0.00  0.00    +0.387 N 
ATOM     18  H   UNL     1       2.579  -2.671  -4.829  0.00  0.00    -0.089 HD
ATOM     19  H   UNL     1       3.715  -3.758  -4.336  0.00  0.00    -0.089 HD
ATOM     20  H   UNL     1       2.190  -3.821  -3.715  0.00  0.00    -0.089 HD
ENDBRANCH   1  17
TORSDOF 4
