REMARK  Name = ZINC13511264
REMARK  3 active torsions:
REMARK  status: ('A' for Active; 'I' for Inactive)
REMARK    1  A    between atoms: C_1  and  C_2
REMARK    2  A    between atoms: C_5  and  N_8
REMARK    3  A    between atoms: C_10  and  C_19
REMARK                            x       y       z     vdW  Elec       q    Type
REMARK                         _______ _______ _______ _____ _____    ______ ____
ROOT
ATOM      1  N   UNL     1       2.693   0.069   0.484  0.00  0.00    -0.213 NA
ATOM      2  C   UNL     1       2.559   1.280  -0.011  0.00  0.00    +0.233 A 
ATOM      3  C   UNL     1       1.251   1.966  -0.001  0.00  0.00    +0.099 A 
ATOM      4  C   UNL     1       1.265   3.354   0.007  0.00  0.00    +0.030 A 
ATOM      5  C   UNL     1       2.573   4.014   0.016  0.00  0.00    +0.018 A 
ATOM      6  C   UNL     1       2.686   5.380   0.298  0.00  0.00    +0.011 A 
ATOM      7  C   UNL     1       3.918   5.972   0.301  0.00  0.00    +0.001 A 
ATOM      8  C   UNL     1       5.058   5.229   0.026  0.00  0.00    +0.004 A 
ATOM      9  C   UNL     1       4.968   3.881  -0.257  0.00  0.00    +0.047 A 
ATOM     10  C   UNL     1       3.728   3.260  -0.267  0.00  0.00    +0.138 A 
ATOM     11  O   UNL     1       3.619   1.938  -0.546  0.00  0.00    -0.437 OA
ENDROOT
BRANCH   1  16
ATOM     12  C   UNL     1       7.616  -2.648   0.001  0.00  0.00    +0.044 C 
ATOM     13  C   UNL     1       6.301  -1.923   0.130  0.00  0.00    -0.050 A 
ATOM     14  C   UNL     1       6.021  -1.204   1.279  0.00  0.00    +0.005 A 
ATOM     15  C   UNL     1       4.820  -0.538   1.404  0.00  0.00    +0.028 A 
ATOM     16  C   UNL     1       3.885  -0.590   0.367  0.00  0.00    +0.068 A 
ATOM     17  C   UNL     1       4.172  -1.323  -0.787  0.00  0.00    +0.028 A 
ATOM     18  C   UNL     1       5.380  -1.979  -0.901  0.00  0.00    +0.005 A 
ENDBRANCH   1  16
BRANCH   3  19
ATOM     19  C   UNL     1      -0.013   1.210  -0.005  0.00  0.00    +0.247 C 
ATOM     20  O   UNL     1       0.006  -0.006  -0.018  0.00  0.00    -0.270 OA
ATOM     21  N   UNL     1      -1.190   1.866  -0.002  0.00  0.00    -0.325 N 
ATOM     22  H   UNL     1      -2.023   1.368  -0.009  0.00  0.00    +0.145 HD
ATOM     23  H   UNL     1      -1.205   2.836   0.008  0.00  0.00    +0.145 HD
ENDBRANCH   3  19
TORSDOF 2
