REMARK  Name = ZINC36764706
REMARK  7 active torsions:
REMARK  status: ('A' for Active; 'I' for Inactive)
REMARK    1  A    between atoms: C_1  and  C_2
REMARK    2  A    between atoms: C_2  and  C_3
REMARK    3  A    between atoms: C_2  and  C_4
REMARK    4  A    between atoms: C_2  and  C_5
REMARK    5  A    between atoms: C_7  and  C_10
REMARK    6  A    between atoms: C_10  and  C_12
REMARK    7  A    between atoms: C_10  and  N_19
REMARK                            x       y       z     vdW  Elec       q    Type
REMARK                         _______ _______ _______ _____ _____    ______ ____
ROOT
ATOM      1  C   UNL     1       3.576  -0.751  -3.427  0.00  0.00    +0.029 C 
ENDROOT
BRANCH   1   2
ATOM      2  C   UNL     1       4.302  -2.061  -3.257  0.00  0.00    -0.054 A 
ATOM      3  C   UNL     1       3.981  -3.139  -4.062  0.00  0.00    +0.003 A 
ATOM      4  C   UNL     1       4.647  -4.340  -3.906  0.00  0.00    +0.015 A 
ATOM      5  C   UNL     1       5.635  -4.464  -2.946  0.00  0.00    +0.018 A 
ATOM      6  C   UNL     1       5.955  -3.385  -2.141  0.00  0.00    +0.015 A 
ATOM      7  C   UNL     1       5.293  -2.183  -2.300  0.00  0.00    +0.003 A 
ATOM      8 BR   UNL     1       6.545  -6.107  -2.732  0.00  0.00    -0.050 Br
ENDBRANCH   1   2
BRANCH   1  11
ATOM      9  C   UNL     1       0.707  -0.490  -1.238  0.00  0.00    +0.233 A 
ATOM     10  N   UNL     1       1.943  -0.232  -1.565  0.00  0.00    -0.197 NA
ATOM     11  C   UNL     1       2.243  -0.821  -2.728  0.00  0.00    +0.162 A 
ATOM     12  N   UNL     1       1.196  -1.464  -3.157  0.00  0.00    -0.063 NA
ATOM     13  O   UNL     1       0.175  -1.266  -2.191  0.00  0.00    -0.338 OA
BRANCH   9  15
ATOM     14  C   UNL     1      -0.019   1.526   0.010  0.00  0.00    +0.020 C 
ATOM     15  C   UNL     1       0.002  -0.004   0.002  0.00  0.00    +0.041 C 
ATOM     16  C   UNL     1       0.742  -0.511   1.242  0.00  0.00    +0.020 C 
ATOM     17  C   UNL     1      -1.433  -0.534   0.013  0.00  0.00    +0.020 C 
ENDBRANCH   9  15
ENDBRANCH   1  11
BRANCH   1  18
ATOM     18  N   UNL     1       3.365  -0.490  -4.858  0.00  0.00    +0.387 N 
ATOM     19  H   UNL     1       2.880   0.386  -4.971  0.00  0.00    -0.089 HD
ATOM     20  H   UNL     1       4.258  -0.444  -5.326  0.00  0.00    -0.089 HD
ATOM     21  H   UNL     1       2.814  -1.235  -5.258  0.00  0.00    -0.089 HD
ENDBRANCH   1  18
TORSDOF 4
