REMARK  Name = ZINC04523026
REMARK  5 active torsions:
REMARK  status: ('A' for Active; 'I' for Inactive)
REMARK    1  A    between atoms: C_1  and  C_2
REMARK    2  A    between atoms: C_2  and  C_3
REMARK    3  A    between atoms: C_2  and  C_4
REMARK    4  A    between atoms: C_2  and  C_6
REMARK    5  A    between atoms: CB_14  and  CG_15
REMARK                            x       y       z     vdW  Elec       q    Type
REMARK                         _______ _______ _______ _____ _____    ______ ____
ROOT
ATOM      1  C   UNK A   2       4.231   5.369  -0.637  0.00  0.00    +0.043 C 
ATOM      2  C   UNK A   2       4.851   3.993  -0.329  0.00  0.00    +0.048 C 
ATOM      3  C   UNK A   2       3.695   3.181   0.288  0.00  0.00    +0.165 C 
ATOM      4  C   UNK A   2       3.841   1.730  -0.091  0.00  0.00    +0.238 C 
ATOM      5  O   UNK A   2       4.947   1.239  -0.169  0.00  0.00    -0.273 OA
ATOM      6  N   HIS A   1       2.755   0.971  -0.344  0.00  0.00    -0.280 N 
ATOM      7  CA  HIS A   1       1.472   1.549  -0.301  0.00  0.00    +0.098 C 
ATOM      8  CB  HIS A   1       0.373   0.813   0.007  0.00  0.00    +0.057 C 
ATOM      9  C   HIS A   1       1.373   2.991  -0.612  0.00  0.00    +0.263 C 
ATOM     10  O   HIS A   1       0.363   3.484  -1.080  0.00  0.00    -0.269 OA
ATOM     11  N   UNK A   2       2.477   3.726  -0.339  0.00  0.00    -0.266 N 
ATOM     12  C   UNK A   2       2.699   5.145  -0.615  0.00  0.00    +0.173 C 
ATOM     13  N   UNK A   2       2.248   5.464  -1.976  0.00  0.00    -0.325 N 
ATOM     14  C   UNK A   2       3.330   5.804  -2.768  0.00  0.00    +0.032 A 
ATOM     15  C   UNK A   2       4.528   5.765  -2.052  0.00  0.00    -0.016 A 
ATOM     16  C   UNK A   2       5.743   6.060  -2.644  0.00  0.00    +0.006 A 
ATOM     17  C   UNK A   2       5.727   6.402  -3.991  0.00  0.00    +0.000 A 
ATOM     18  C   UNK A   2       4.548   6.446  -4.707  0.00  0.00    +0.002 A 
ATOM     19  C   UNK A   2       3.327   6.152  -4.123  0.00  0.00    +0.023 A 
ATOM     20  H   HIS A   1       2.874  -0.096  -0.583  0.00  0.00    +0.155 HD
ATOM     21  H   UNK A   2       1.178   5.410  -2.228  0.00  0.00    +0.148 HD
ENDROOT
BRANCH   8  22
ATOM     22  CG  HIS A   1      -0.845   1.476   0.467  0.00  0.00    +0.083 A 
ATOM     23  CD2 HIS A   1      -2.076   0.891   0.686  0.00  0.00    +0.111 A 
ATOM     24  NE2 HIS A   1      -2.909   1.848   1.101  0.00  0.00    -0.350 N 
ATOM     25  CE1 HIS A   1      -2.280   2.993   1.148  0.00  0.00    +0.197 A 
ATOM     26  ND1 HIS A   1      -0.999   2.816   0.765  0.00  0.00    -0.237 NA
ATOM     27  HE2 HIS A   1      -3.953   1.600   1.343  0.00  0.00    +0.166 HD
ENDBRANCH   8  22
BRANCH   1  29
ATOM     28  C   UNK A   2       4.052   7.779  -0.002  0.00  0.00    +0.016 C 
ATOM     29  C   UNK A   2       4.688   6.435   0.361  0.00  0.00    -0.004 C 
ATOM     30  C   UNK A   2       4.257   6.032   1.772  0.00  0.00    +0.016 C 
BRANCH  29  31
ATOM     31  C   UNK A   2       6.189   6.560   0.310  0.00  0.00    -0.027 C 
ATOM     32  C   UNK A   2       6.741   7.704  -0.010  0.00  0.00    +0.004 C 
ENDBRANCH  29  31
ENDBRANCH   1  29
TORSDOF 3
