REMARK  Name = ZINC11991365
REMARK  3 active torsions:
REMARK  status: ('A' for Active; 'I' for Inactive)
REMARK    1  A    between atoms: C_1  and  C_2
REMARK    2  A    between atoms: C_6  and  N_9
REMARK    3  A    between atoms: C_7  and  C_8
REMARK                            x       y       z     vdW  Elec       q    Type
REMARK                         _______ _______ _______ _____ _____    ______ ____
ROOT
ATOM      1  N   UNL     1       0.002  -0.004   0.002  0.00  0.00    -0.285 N 
ATOM      2  C   UNL     1       1.193  -0.673  -0.116  0.00  0.00    +0.200 A 
ATOM      3  N   UNL     1       1.190  -2.030  -0.220  0.00  0.00    -0.295 N 
ATOM      4  H   UNL     1       0.352  -2.518  -0.210  0.00  0.00    +0.172 HD
ATOM      5  C   UNL     1       2.360  -2.692  -0.341  0.00  0.00    +0.256 A 
ATOM      6  O   UNL     1       2.377  -3.908  -0.439  0.00  0.00    -0.267 OA
ATOM      7  C   UNL     1       3.559  -1.956  -0.347  0.00  0.00    +0.038 A 
ATOM      8  C   UNL     1       3.503  -0.598  -0.235  0.00  0.00    +0.053 A 
ATOM      9  N   UNL     1       2.319   0.009  -0.122  0.00  0.00    -0.220 NA
ATOM     10  C   UNL     1       4.901  -0.019  -0.265  0.00  0.00    +0.056 C 
ATOM     11  C   UNL     1       5.837  -1.212   0.028  0.00  0.00    +0.011 C 
ATOM     12  C   UNL     1       4.996  -2.411  -0.461  0.00  0.00    +0.043 C 
ATOM     13  H   UNL     1      -0.835  -0.486  -0.082  0.00  0.00    +0.155 HD
ENDROOT
BRANCH   1  19
ATOM     14  C   UNL     1      -2.127   4.386  -0.601  0.00  0.00    +0.044 C 
ATOM     15  C   UNL     1      -1.025   3.526  -0.037  0.00  0.00    -0.046 A 
ATOM     16  C   UNL     1      -0.020   4.099   0.721  0.00  0.00    +0.004 A 
ATOM     17  C   UNL     1       0.992   3.313   1.240  0.00  0.00    +0.002 A 
ATOM     18  C   UNL     1       1.002   1.952   1.004  0.00  0.00    +0.023 A 
ATOM     19  C   UNL     1      -0.005   1.373   0.243  0.00  0.00    +0.037 A 
ATOM     20  C   UNL     1      -1.018   2.167  -0.282  0.00  0.00    -0.026 A 
ATOM     21  C   UNL     1      -2.109   1.544  -1.114  0.00  0.00    +0.046 C 
ENDBRANCH   1  19
TORSDOF 1
