REMARK  Name = ZINC13175316
REMARK  7 active torsions:
REMARK  status: ('A' for Active; 'I' for Inactive)
REMARK    1  A    between atoms: C_4  and  N_11
REMARK    2  A    between atoms: C_5  and  C_7
REMARK    3  A    between atoms: C_12  and  C_14
REMARK    4  A    between atoms: C_14  and  S_15
REMARK    5  A    between atoms: S_15  and  C_16
REMARK    6  A    between atoms: C_17  and  C_33
REMARK    7  A    between atoms: C_18  and  C_28
REMARK                            x       y       z     vdW  Elec       q    Type
REMARK                         _______ _______ _______ _____ _____    ______ ____
ROOT
ATOM      1  C   UNL     1       8.881  -0.511  -0.551  0.00  0.00    +0.080 C 
ATOM      2  C   UNL     1      10.106   0.070  -0.663  0.00  0.00    +0.072 C 
ATOM      3  C   UNL     1      11.349  -0.762  -0.780  0.00  0.00    +0.132 C 
ATOM      4  C   UNL     1      11.021  -2.177  -1.186  0.00  0.00    +0.027 C 
ATOM      5  C   UNL     1       9.770  -2.666  -1.049  0.00  0.00    +0.016 C 
ATOM      6  N   UNL     1       8.765  -1.881  -0.546  0.00  0.00    -0.311 N 
ATOM      7  C   UNL     1       9.444  -4.087  -1.436  0.00  0.00    +0.051 C 
ATOM      8  C   UNL     1      10.346  -4.524  -2.593  0.00  0.00    +0.014 C 
ATOM      9  C   UNL     1      11.806  -4.388  -2.148  0.00  0.00    +0.080 C 
ATOM     10  C   UNL     1      12.055  -2.971  -1.711  0.00  0.00    +0.162 C 
ATOM     11  O   UNL     1      13.172  -2.503  -1.814  0.00  0.00    -0.292 OA
ATOM     12  H   UNL     1       7.965  -2.295  -0.186  0.00  0.00    +0.152 HD
ENDROOT
BRANCH   3  13
ATOM     13  C   UNL     1      12.258  -0.151  -1.815  0.00  0.00    +0.117 A 
ATOM     14  C   UNL     1      13.511   0.289  -1.602  0.00  0.00    +0.045 A 
ATOM     15  C   UNL     1      13.989   0.781  -2.838  0.00  0.00    +0.041 A 
ATOM     16  C   UNL     1      12.999   0.612  -3.733  0.00  0.00    +0.195 A 
ATOM     17  O   UNL     1      11.955   0.042  -3.110  0.00  0.00    -0.467 OA
ENDBRANCH   3  13
BRANCH   2  18
ATOM     18  C   UNL     1      10.211   1.498  -0.669  0.00  0.00    +0.098 C 
ATOM     19  N   UNL     1      10.294   2.631  -0.675  0.00  0.00    -0.191 NA
ENDBRANCH   2  18
BRANCH   1  20
ATOM     20  S   UNL     1       7.441   0.494  -0.406  0.00  0.00    -0.100 S 
BRANCH  20  21
ATOM     21  C   UNL     1       6.083  -0.701  -0.278  0.00  0.00    +0.171 C 
BRANCH  21  23
ATOM     22  N   UNL     1       3.622  -0.651  -0.037  0.00  0.00    -0.284 N 
ATOM     23  C   UNL     1       4.775   0.037  -0.147  0.00  0.00    +0.227 C 
ATOM     24  O   UNL     1       4.761   1.250  -0.141  0.00  0.00    -0.275 OA
ATOM     25  H   UNL     1       3.639  -1.618   0.038  0.00  0.00    +0.155 HD
BRANCH  22  29
ATOM     26  C   UNL     1      -0.019   1.375  -0.023  0.00  0.00    +0.001 A 
ATOM     27  C   UNL     1       1.087   1.947  -0.626  0.00  0.00    +0.002 A 
ATOM     28  C   UNL     1       2.295   1.278  -0.633  0.00  0.00    +0.024 A 
ATOM     29  C   UNL     1       2.399   0.030  -0.032  0.00  0.00    +0.045 A 
ATOM     30  C   UNL     1       1.287  -0.541   0.573  0.00  0.00    +0.076 A 
ATOM     31  C   UNL     1       0.082   0.133   0.576  0.00  0.00    +0.014 A 
BRANCH  30  32
ATOM     32  C   UNL     1       1.396  -1.895   1.226  0.00  0.00    +0.419 C 
ATOM     33  F   UNL     1       0.155  -2.255   1.761  0.00  0.00    -0.166 F 
ATOM     34  F   UNL     1       1.785  -2.842   0.273  0.00  0.00    -0.166 F 
ATOM     35  F   UNL     1       2.349  -1.845   2.249  0.00  0.00    -0.166 F 
ENDBRANCH  30  32
ENDBRANCH  22  29
ENDBRANCH  21  23
ENDBRANCH  20  21
ENDBRANCH   1  20
TORSDOF 7
