REMARK  Name = ZINC35663832
REMARK  8 active torsions:
REMARK  status: ('A' for Active; 'I' for Inactive)
REMARK    1  A    between atoms: C_1  and  C_2
REMARK    2  A    between atoms: C_4  and  O_9
REMARK    3  A    between atoms: C_7  and  N_8
REMARK    4  A    between atoms: O_9  and  C_10
REMARK    5  A    between atoms: C_12  and  C_19
REMARK    6  A    between atoms: C_14  and  C_16
REMARK    7  A    between atoms: C_16  and  C_17
REMARK    8  A    between atoms: C_16  and  C_18
REMARK                            x       y       z     vdW  Elec       q    Type
REMARK                         _______ _______ _______ _____ _____    ______ ____
ROOT
ATOM      1  O   UNL     1       0.028  -2.748  -2.387  0.00  0.00    -0.438 OA
ENDROOT
BRANCH   1   5
ATOM      2  C   UNL     1      -2.476  -0.399   1.081  0.00  0.00    +0.046 C 
ATOM      3  C   UNL     1      -1.179  -0.917   0.516  0.00  0.00    -0.026 A 
ATOM      4  C   UNL     1      -1.172  -1.599  -0.685  0.00  0.00    +0.051 A 
ATOM      5  C   UNL     1       0.022  -2.075  -1.206  0.00  0.00    +0.131 A 
ATOM      6  C   UNL     1       1.211  -1.866  -0.521  0.00  0.00    +0.048 A 
ATOM      7  C   UNL     1       1.206  -1.184   0.679  0.00  0.00    +0.026 A 
ATOM      8  C   UNL     1       0.011  -0.702   1.199  0.00  0.00    +0.028 A 
BRANCH   8   9
ATOM      9  N   UNL     1       0.006  -0.006   2.412  0.00  0.00    -0.358 N 
ATOM     10  H   UNL     1      -0.829   0.327   2.777  0.00  0.00    +0.142 HD
ATOM     11  H   UNL     1       0.837   0.144   2.889  0.00  0.00    +0.142 HD
ENDBRANCH   8   9
ENDBRANCH   1   5
BRANCH   1  12
ATOM     12  C   UNL     1       0.152  -4.097  -2.351  0.00  0.00    +0.224 A 
ATOM     13  C   UNL     1       0.271  -4.829  -3.532  0.00  0.00    +0.090 A 
ATOM     14  C   UNL     1       0.394  -6.203  -3.442  0.00  0.00    +0.045 A 
ATOM     15  N   UNL     1       0.395  -6.775  -2.247  0.00  0.00    -0.237 NA
ATOM     16  C   UNL     1       0.280  -6.054  -1.150  0.00  0.00    +0.136 A 
ATOM     17  N   UNL     1       0.166  -4.742  -1.190  0.00  0.00    -0.197 NA
ATOM     18  C   UNL     1       0.526  -7.039  -4.689  0.00  0.00    +0.066 C 
BRANCH  16  19
ATOM     19  C   UNL     1       0.285  -6.749   0.187  0.00  0.00    +0.051 C 
ATOM     20  C   UNL     1       1.457  -6.233   1.025  0.00  0.00    +0.015 C 
ATOM     21  C   UNL     1      -1.029  -6.463   0.916  0.00  0.00    +0.015 C 
ENDBRANCH  16  19
ENDBRANCH   1  12
TORSDOF 4
