REMARK  Name = ZINC16495948
REMARK  12 active torsions:
REMARK  status: ('A' for Active; 'I' for Inactive)
REMARK    1  A    between atoms: C_1  and  C_2
REMARK    2  A    between atoms: C_2  and  C_3
REMARK    3  A    between atoms: C_3  and  C_5
REMARK    4  A    between atoms: C_3  and  N_6
REMARK    5  A    between atoms: C_7  and  C_9
REMARK    6  A    between atoms: N_22  and  C_23
REMARK    7  A    between atoms: C_24  and  C_32
REMARK    8  A    between atoms: C_28  and  C_29
REMARK    9  A    between atoms: C_29  and  C_30
REMARK   10  A    between atoms: C_29  and  C_31
REMARK   11  A    between atoms: C_32  and  C_33
REMARK   12  A    between atoms: C_32  and  C_34
REMARK                            x       y       z     vdW  Elec       q    Type
REMARK                         _______ _______ _______ _____ _____    ______ ____
ROOT
ATOM      1  C   UNL     1       0.537  -0.113  -4.561  0.00  0.00    +0.151 C 
ATOM      2  C   UNL     1      -0.914   0.382  -4.832  0.00  0.00    +0.099 C 
ATOM      3  S   UNL     1      -1.002  -0.001  -6.639  0.00  0.00    -0.137 S 
ATOM      4  C   UNL     1       0.782   0.246  -7.011  0.00  0.00    +0.069 C 
ATOM      5  N   UNL     1       1.418   0.221  -5.685  0.00  0.00    -0.291 NA
ATOM      6  C   UNL     1       1.283  -0.894  -7.885  0.00  0.00    +0.052 C 
ATOM      7  C   UNL     1       2.775  -0.696  -8.178  0.00  0.00    +0.112 C 
ATOM      8  N   UNL     1       2.972   0.651  -8.732  0.00  0.00    -0.285 N 
ATOM      9  C   UNL     1       2.469   1.808  -7.979  0.00  0.00    +0.112 C 
ATOM     10  C   UNL     1       0.979   1.595  -7.688  0.00  0.00    +0.052 C 
ATOM     11  C   UNL     1       3.601   0.821  -9.912  0.00  0.00    +0.306 C 
ATOM     12  O   UNL     1       4.096  -0.133 -10.480  0.00  0.00    -0.252 OA
ATOM     13  N   UNL     1       3.683   2.050 -10.461  0.00  0.00    -0.269 N 
ATOM     14  H   UNL     1       1.921   1.078  -5.508  0.00  0.00    +0.124 HD
ATOM     15  H   UNL     1       3.356   2.821  -9.973  0.00  0.00    +0.156 HD
ENDROOT
BRANCH  13  16
ATOM     16  C   UNL     1       4.239   2.211 -11.735  0.00  0.00    +0.042 A 
ATOM     17  C   UNL     1       5.467   2.843 -11.883  0.00  0.00    -0.023 A 
ATOM     18  C   UNL     1       6.013   3.000 -13.141  0.00  0.00    +0.006 A 
ATOM     19  C   UNL     1       5.339   2.530 -14.253  0.00  0.00    +0.001 A 
ATOM     20  C   UNL     1       4.116   1.900 -14.109  0.00  0.00    +0.006 A 
ATOM     21  C   UNL     1       3.567   1.735 -12.853  0.00  0.00    -0.023 A 
BRANCH  21  22
ATOM     22  C   UNL     1       2.238   1.043 -12.696  0.00  0.00    +0.015 C 
ATOM     23  C   UNL     1       1.182   1.771 -13.531  0.00  0.00    +0.012 C 
ATOM     24  C   UNL     1       2.357  -0.406 -13.174  0.00  0.00    +0.012 C 
ENDBRANCH  21  22
BRANCH  17  25
ATOM     25  C   UNL     1       6.202   3.357 -10.672  0.00  0.00    +0.015 C 
ATOM     26  C   UNL     1       7.510   2.582 -10.502  0.00  0.00    +0.012 C 
ATOM     27  C   UNL     1       6.510   4.844 -10.855  0.00  0.00    +0.012 C 
ENDBRANCH  17  25
ENDBRANCH  13  16
BRANCH   1  29
ATOM     28  N   UNL     1       0.425   0.355  -2.135  0.00  0.00    -0.311 N 
ATOM     29  C   UNL     1       1.060   0.543  -3.309  0.00  0.00    +0.231 C 
ATOM     30  O   UNL     1       2.052   1.239  -3.358  0.00  0.00    -0.274 OA
ATOM     31  H   UNL     1      -0.368  -0.202  -2.096  0.00  0.00    +0.149 HD
BRANCH  28  32
ATOM     32  C   UNL     1       0.933   0.993  -0.918  0.00  0.00    +0.070 C 
ATOM     33  C   UNL     1       2.025   0.116  -0.300  0.00  0.00    +0.028 C 
BRANCH  32  35
ATOM     34  C   UNL     1      -1.243   2.140  -0.484  0.00  0.00    +0.005 C 
ATOM     35  C   UNL     1      -0.210   1.164   0.084  0.00  0.00    +0.018 C 
ENDBRANCH  32  35
ENDBRANCH  28  32
ENDBRANCH   1  29
TORSDOF 6
