REMARK  Name = ZINC51089018
REMARK  6 active torsions:
REMARK  status: ('A' for Active; 'I' for Inactive)
REMARK    1  A    between atoms: C_1  and  C_2
REMARK    2  A    between atoms: C_4  and  N_7
REMARK    3  A    between atoms: C_8  and  C_10
REMARK    4  A    between atoms: C_12  and  N_18
REMARK    5  A    between atoms: C_15  and  N_16
REMARK    6  A    between atoms: N_16  and  N_17
REMARK                            x       y       z     vdW  Elec       q    Type
REMARK                         _______ _______ _______ _____ _____    ______ ____
ROOT
ATOM      1  C   UNL     1       0.077  -5.652  -1.885  0.00  0.00    +0.061 A 
ATOM      2  C   UNL     1      -0.032  -5.506  -3.270  0.00  0.00    +0.047 A 
ATOM      3  C   UNL     1      -0.025  -6.619  -4.081  0.00  0.00    +0.127 A 
ATOM      4  C   UNL     1       0.090  -7.886  -3.530  0.00  0.00    +0.034 A 
ATOM      5  C   UNL     1       0.198  -8.047  -2.164  0.00  0.00    +0.027 A 
ATOM      6  C   UNL     1       0.198  -6.936  -1.330  0.00  0.00    +0.053 A 
ENDROOT
BRANCH   1   8
ATOM      7  N   UNL     1       0.076  -3.230  -1.552  0.00  0.00    -0.250 N 
ATOM      8  C   UNL     1       0.070  -4.465  -1.011  0.00  0.00    +0.252 C 
ATOM      9  O   UNL     1       0.059  -4.599   0.197  0.00  0.00    -0.270 OA
ATOM     10  H   UNL     1       0.085  -3.123  -2.516  0.00  0.00    +0.158 HD
BRANCH   7  14
ATOM     11  C   UNL     1       0.067   1.504   0.008  0.00  0.00    +0.069 C 
ATOM     12  C   UNL     1       0.065  -0.003  -0.000  0.00  0.00    +0.082 A 
ATOM     13  C   UNL     1       0.075  -0.819  -1.140  0.00  0.00    +0.092 A 
ATOM     14  C   UNL     1       0.070  -2.113  -0.731  0.00  0.00    +0.224 A 
ATOM     15  O   UNL     1       0.057  -2.119   0.613  0.00  0.00    -0.339 OA
ATOM     16  N   UNL     1       0.059  -0.773   1.053  0.00  0.00    -0.081 NA
ENDBRANCH   7  14
ENDBRANCH   1   8
BRANCH   3  17
ATOM     17  N   UNL     1      -0.140  -6.462  -5.548  0.00  0.00    +0.056 N 
ATOM     18  O   UNL     1      -0.240  -5.359  -6.032  0.00  0.00    -0.126 OA
ATOM     19  O   UNL     1      -0.134  -7.437  -6.263  0.00  0.00    -0.126 OA
ENDBRANCH   3  17
BRANCH   6  20
ATOM     20  N   UNL     1       0.313  -7.094   0.044  0.00  0.00    -0.282 N 
ATOM     21  H   UNL     1       0.233  -6.325   0.630  0.00  0.00    +0.166 HD
BRANCH  20  22
ATOM     22  N   UNL     1       0.538  -8.334   0.572  0.00  0.00    -0.256 NA
ATOM     23  H   UNL     1       1.369  -8.750   0.177  0.00  0.00    +0.140 HD
ATOM     24  H   UNL     1       0.598  -8.293   1.579  0.00  0.00    +0.140 HD
ENDBRANCH  20  22
ENDBRANCH   6  20
TORSDOF 5
