REMARK  Name = ZINC39939585
REMARK  5 active torsions:
REMARK  status: ('A' for Active; 'I' for Inactive)
REMARK    1  A    between atoms: C_4  and  C_7
REMARK    2  A    between atoms: C_10  and  C_12
REMARK    3  A    between atoms: N_14  and  N_15
REMARK    4  A    between atoms: C_18  and  C_22
REMARK    5  A    between atoms: C_18  and  C_28
REMARK                            x       y       z     vdW  Elec       q    Type
REMARK                         _______ _______ _______ _____ _____    ______ ____
ROOT
ATOM      1  N   UNL     1       8.249  -4.559   0.260  0.00  0.00    -0.136 N 
ATOM      2  C   UNL     1       9.065  -5.106   1.182  0.00  0.00    +0.272 C 
ATOM      3  O   UNL     1       9.197  -4.765   2.338  0.00  0.00    -0.270 OA
ATOM      4  C   UNL     1       9.784  -6.237   0.474  0.00  0.00    +0.165 C 
ATOM      5  N   UNL     1       9.238  -6.191  -0.893  0.00  0.00    -0.276 N 
ATOM      6  C   UNL     1       8.347  -5.183  -0.919  0.00  0.00    +0.327 C 
ATOM      7  O   UNL     1       7.706  -4.873  -1.903  0.00  0.00    -0.251 OA
ATOM      8  H   UNL     1       9.472  -6.776  -1.631  0.00  0.00    +0.152 HD
ENDROOT
BRANCH   4   9
ATOM      9  C   UNL     1      11.271  -5.993   0.459  0.00  0.00    -0.011 A 
ATOM     10  C   UNL     1      11.975  -6.086  -0.727  0.00  0.00    +0.006 A 
ATOM     11  C   UNL     1      13.339  -5.863  -0.740  0.00  0.00    +0.000 A 
ATOM     12  C   UNL     1      13.999  -5.546   0.432  0.00  0.00    +0.000 A 
ATOM     13  C   UNL     1      13.295  -5.453   1.618  0.00  0.00    +0.000 A 
ATOM     14  C   UNL     1      11.930  -5.672   1.631  0.00  0.00    +0.006 A 
ENDBRANCH   4   9
BRANCH   4  15
ATOM     15  C   UNL     1       9.468  -7.558   1.127  0.00  0.00    -0.011 A 
ATOM     16  C   UNL     1       9.062  -8.631   0.356  0.00  0.00    +0.006 A 
ATOM     17  C   UNL     1       8.772  -9.842   0.956  0.00  0.00    +0.000 A 
ATOM     18  C   UNL     1       8.888  -9.980   2.326  0.00  0.00    +0.000 A 
ATOM     19  C   UNL     1       9.295  -8.908   3.097  0.00  0.00    +0.000 A 
ATOM     20  C   UNL     1       9.589  -7.697   2.497  0.00  0.00    +0.006 A 
ENDBRANCH   4  15
BRANCH   1  23
ATOM     21  C   UNL     1       6.073  -3.675   0.649  0.00  0.00    +0.277 C 
ATOM     22  O   UNL     1       5.615  -4.799   0.562  0.00  0.00    -0.267 OA
ATOM     23  N   UNL     1       7.398  -3.473   0.507  0.00  0.00    -0.219 N 
ATOM     24  H   UNL     1       7.762  -2.577   0.576  0.00  0.00    +0.174 HD
BRANCH  21  28
ATOM     25  C   UNL     1       3.366  -1.097   1.321  0.00  0.00    +0.077 C 
ATOM     26  N   UNL     1       4.531  -0.496   1.251  0.00  0.00    -0.153 NA
ATOM     27  N   UNL     1       5.512  -1.279   1.027  0.00  0.00    -0.148 NA
ATOM     28  C   UNL     1       5.182  -2.538   0.907  0.00  0.00    +0.132 C 
ATOM     29  C   UNL     1       3.674  -2.569   1.100  0.00  0.00    +0.120 C 
BRANCH  25  33
ATOM     30  C   UNL     1      -0.420   0.674   2.026  0.00  0.00    +0.000 A 
ATOM     31  C   UNL     1       0.714   1.468   1.979  0.00  0.00    +0.001 A 
ATOM     32  C   UNL     1       1.949   0.901   1.750  0.00  0.00    +0.010 A 
ATOM     33  C   UNL     1       2.055  -0.483   1.566  0.00  0.00    -0.002 A 
ATOM     34  C   UNL     1       0.903  -1.279   1.615  0.00  0.00    +0.010 A 
ATOM     35  C   UNL     1      -0.324  -0.695   1.845  0.00  0.00    +0.001 A 
ENDBRANCH  25  33
ENDBRANCH  21  28
ENDBRANCH   1  23
TORSDOF 5
