REMARK  Name = ZINC06615556
REMARK  4 active torsions:
REMARK  status: ('A' for Active; 'I' for Inactive)
REMARK    1  A    between atoms: C_4  and  N_19
REMARK    2  A    between atoms: C_5  and  N_7
REMARK    3  A    between atoms: C_8  and  C_9
REMARK    4  A    between atoms: C_13  and  N_15
REMARK                            x       y       z     vdW  Elec       q    Type
REMARK                         _______ _______ _______ _____ _____    ______ ____
ROOT
ATOM      1  N   UNL     1       2.299   4.219   0.003  0.00  0.00    -0.253 NA
ATOM      2  C   UNL     1       1.623   3.576   0.914  0.00  0.00    +0.123 C 
ENDROOT
BRANCH   2   3
ATOM      3  C   UNL     1       1.610   2.105   0.918  0.00  0.00    +0.043 A 
ATOM      4  C   UNL     1       0.887   1.411   1.893  0.00  0.00    +0.028 A 
ATOM      5  C   UNL     1       0.879   0.032   1.891  0.00  0.00    +0.021 A 
ATOM      6  C   UNL     1       1.585  -0.669   0.926  0.00  0.00    +0.052 A 
ATOM      7  C   UNL     1       2.303   0.005  -0.043  0.00  0.00    +0.174 A 
ATOM      8  C   UNL     1       2.322   1.390  -0.057  0.00  0.00    +0.218 A 
ATOM      9 BR   UNL     1      -0.099  -0.906   3.210  0.00  0.00    -0.050 Br
ATOM     10  O   UNL     1       3.027   2.053  -1.008  0.00  0.00    -0.285 OA
BRANCH   7  11
ATOM     11  N   UNL     1       3.053  -0.755  -1.068  0.00  0.00    +0.060 N 
ATOM     12  O   UNL     1       3.037  -1.973  -1.057  0.00  0.00    -0.126 OA
ATOM     13  O   UNL     1       3.687  -0.162  -1.923  0.00  0.00    -0.126 OA
ENDBRANCH   7  11
ENDBRANCH   2   3
BRANCH   1  18
ATOM     14  C   UNL     1       0.910   7.595  -0.115  0.00  0.00    +0.002 A 
ATOM     15  C   UNL     1       2.067   8.349  -0.216  0.00  0.00    +0.002 A 
ATOM     16  C   UNL     1       3.303   7.732  -0.245  0.00  0.00    +0.025 A 
ATOM     17  C   UNL     1       3.393   6.350  -0.167  0.00  0.00    +0.055 A 
ATOM     18  C   UNL     1       2.223   5.582  -0.070  0.00  0.00    +0.085 A 
ATOM     19  C   UNL     1       0.980   6.219  -0.042  0.00  0.00    +0.029 A 
BRANCH  17  20
ATOM     20  N   UNL     1       4.640   5.726  -0.190  0.00  0.00    -0.328 N 
ATOM     21  C   UNL     1       5.434   6.092   0.990  0.00  0.00    +0.105 C 
ATOM     22  C   UNL     1       6.731   5.281   1.006  0.00  0.00    +0.019 C 
ATOM     23  C   UNL     1       7.522   5.568  -0.273  0.00  0.00    +0.003 C 
ATOM     24  C   UNL     1       6.656   5.224  -1.488  0.00  0.00    +0.019 C 
ATOM     25  C   UNL     1       5.361   6.037  -1.431  0.00  0.00    +0.105 C 
ENDBRANCH  17  20
ENDBRANCH   1  18
TORSDOF 4
