REMARK  Name = ZINC37997430
REMARK  6 active torsions:
REMARK  status: ('A' for Active; 'I' for Inactive)
REMARK    1  A    between atoms: C_3  and  O_19
REMARK    2  A    between atoms: C_4  and  O_18
REMARK    3  A    between atoms: C_6  and  C_7
REMARK    4  A    between atoms: C_7  and  N_8
REMARK    5  A    between atoms: N_8  and  C_9
REMARK    6  A    between atoms: C_9  and  C_10
REMARK                            x       y       z     vdW  Elec       q    Type
REMARK                         _______ _______ _______ _____ _____    ______ ____
ROOT
ATOM      1  N   UNL     1      -1.728  -1.016  -1.372  0.00  0.00    +0.384 N 
ATOM      2  H   UNL     1      -1.864  -0.134  -1.842  0.00  0.00    -0.085 HD
ATOM      3  H   UNL     1      -1.022  -1.550  -1.857  0.00  0.00    -0.085 HD
ENDROOT
BRANCH   1   4
ATOM      4  C   UNL     1      -1.294  -0.774   0.010  0.00  0.00    -0.046 C 
BRANCH   4  10
ATOM      5  C   UNL     1      -0.017   1.378   0.010  0.00  0.00    +0.005 A 
ATOM      6  C   UNL     1       1.170   2.089   0.002  0.00  0.00    +0.049 A 
ATOM      7  C   UNL     1       2.380   1.415  -0.013  0.00  0.00    +0.158 A 
ATOM      8  C   UNL     1       2.399   0.024  -0.021  0.00  0.00    +0.158 A 
ATOM      9  C   UNL     1       1.207  -0.682  -0.013  0.00  0.00    +0.051 A 
ATOM     10  C   UNL     1       0.002  -0.004   0.002  0.00  0.00    -0.061 A 
BRANCH   8  11
ATOM     11  O   UNL     1       3.585  -0.642  -0.036  0.00  0.00    -0.503 OA
ATOM     12  H   UNL     1       3.937  -0.839   0.843  0.00  0.00    +0.292 HD
ENDBRANCH   8  11
BRANCH   7  13
ATOM     13  O   UNL     1       3.548   2.113  -0.021  0.00  0.00    -0.503 OA
ATOM     14  H   UNL     1       3.894   2.310   0.860  0.00  0.00    +0.292 HD
ENDBRANCH   7  13
ENDBRANCH   4  10
ENDBRANCH   1   4
BRANCH   1  15
ATOM     15  C   UNL     1      -2.991  -1.766  -1.364  0.00  0.00    -0.045 C 
BRANCH  15  16
ATOM     16  C   UNL     1      -3.436  -2.015  -2.782  0.00  0.00    -0.048 A 
ATOM     17  C   UNL     1      -4.406  -1.213  -3.353  0.00  0.00    +0.041 A 
ATOM     18  C   UNL     1      -4.815  -1.441  -4.655  0.00  0.00    +0.124 A 
ATOM     19  C   UNL     1      -4.252  -2.474  -5.386  0.00  0.00    +0.039 A 
ATOM     20  C   UNL     1      -3.283  -3.276  -4.814  0.00  0.00    +0.018 A 
ATOM     21  C   UNL     1      -2.870  -3.043  -3.514  0.00  0.00    +0.019 A 
ATOM     22 BR   UNL     1      -1.537  -4.135  -2.736  0.00  0.00    -0.050 Br
ATOM     23  F   UNL     1      -5.763  -0.658  -5.213  0.00  0.00    -0.205 F 
ENDBRANCH  15  16
ENDBRANCH   1  15
TORSDOF 6
