REMARK  Name = ZINC65477920
REMARK  8 active torsions:
REMARK  status: ('A' for Active; 'I' for Inactive)
REMARK    1  A    between atoms: C_1  and  C_2
REMARK    2  A    between atoms: N_5  and  C_8
REMARK    3  A    between atoms: C_8  and  C_9
REMARK    4  A    between atoms: C_8  and  C_10
REMARK    5  A    between atoms: C_10  and  N_11
REMARK    6  A    between atoms: N_14  and  N_15
REMARK    7  A    between atoms: N_15  and  C_16
REMARK    8  A    between atoms: C_20  and  N_22
REMARK                            x       y       z     vdW  Elec       q    Type
REMARK                         _______ _______ _______ _____ _____    ______ ____
ROOT
ATOM      1  N   UNL     1       1.955  -3.921   2.403  0.00  0.00    -0.300 N 
ATOM      2  C   UNL     1       2.600  -4.105   3.572  0.00  0.00    +0.316 C 
ATOM      3  O   UNL     1       3.702  -4.619   3.584  0.00  0.00    -0.251 OA
ATOM      4  N   UNL     1       2.024  -3.719   4.728  0.00  0.00    -0.220 N 
ATOM      5  H   UNL     1       1.076  -3.512   2.393  0.00  0.00    +0.150 HD
ATOM      6  H   UNL     1       2.489  -3.851   5.569  0.00  0.00    +0.174 HD
ENDROOT
BRANCH   4   7
ATOM      7  N   UNL     1       0.754  -3.127   4.714  0.00  0.00    -0.263 N 
ATOM      8  H   UNL     1       0.290  -2.995   3.872  0.00  0.00    +0.170 HD
BRANCH   7   9
ATOM      9  C   UNL     1       0.157  -2.727   5.911  0.00  0.00    +0.047 A 
ATOM     10  C   UNL     1       0.823  -2.910   7.117  0.00  0.00    +0.024 A 
ATOM     11  C   UNL     1       0.230  -2.513   8.299  0.00  0.00    +0.004 A 
ATOM     12  C   UNL     1      -1.026  -1.934   8.284  0.00  0.00    +0.033 A 
ATOM     13  C   UNL     1      -1.692  -1.750   7.086  0.00  0.00    +0.128 A 
ATOM     14  C   UNL     1      -1.101  -2.139   5.899  0.00  0.00    +0.057 A 
BRANCH  13  15
ATOM     15  N   UNL     1      -3.036  -1.130   7.074  0.00  0.00    +0.056 N 
ATOM     16  O   UNL     1      -3.551  -0.784   8.112  0.00  0.00    -0.126 OA
ATOM     17  O   UNL     1      -3.618  -0.969   6.027  0.00  0.00    -0.126 OA
ENDBRANCH  13  15
ENDBRANCH   7   9
ENDBRANCH   4   7
BRANCH   1  18
ATOM     18  C   UNL     1       2.582  -4.341   1.147  0.00  0.00    +0.090 C 
BRANCH  18  19
ATOM     19  C   UNL     1       1.710  -3.900  -0.030  0.00  0.00    -0.054 C 
ATOM     20  C   UNL     1       2.420  -4.233  -1.344  0.00  0.00    -0.012 C 
BRANCH  19  25
ATOM     21  C   UNL     1       1.236   1.728  -0.822  0.00  0.00    +0.007 C 
ATOM     22  C   UNL     1       1.521   0.239  -1.027  0.00  0.00    -0.018 C 
ATOM     23  C   UNL     1       2.531  -0.238   0.020  0.00  0.00    -0.016 C 
ATOM     24  C   UNL     1       2.752  -1.744  -0.140  0.00  0.00    -0.078 C 
ATOM     25  N   UNL     1       1.479  -2.451   0.048  0.00  0.00    +0.382 N 
ATOM     26  C   UNL     1       0.528  -2.052  -0.997  0.00  0.00    -0.078 C 
ATOM     27  C   UNL     1       0.223  -0.558  -0.869  0.00  0.00    -0.016 C 
ATOM     28  H   UNL     1       1.099  -2.221   0.953  0.00  0.00    -0.081 HD
ENDBRANCH  19  25
ENDBRANCH  18  19
ENDBRANCH   1  18
TORSDOF 6
