REMARK  Name = ZINC65215306
REMARK  3 active torsions:
REMARK  status: ('A' for Active; 'I' for Inactive)
REMARK    1  A    between atoms: C_1  and  N_2
REMARK    2  A    between atoms: C_9  and  C_12
REMARK    3  A    between atoms: N_14  and  C_15
REMARK                            x       y       z     vdW  Elec       q    Type
REMARK                         _______ _______ _______ _____ _____    ______ ____
ROOT
ATOM      1  C   UNL     1      -0.216   1.163  -0.851  0.00  0.00    +0.152 C 
ATOM      2  N   UNL     1      -0.077  -0.151  -0.218  0.00  0.00    -0.310 N 
ATOM      3  C   UNL     1      -1.190  -0.735   0.384  0.00  0.00    +0.062 A 
ATOM      4  C   UNL     1      -2.492  -0.242   0.488  0.00  0.00    +0.034 A 
ATOM      5  C   UNL     1      -3.436  -0.971   1.118  0.00  0.00    +0.048 A 
ATOM      6  S   UNL     1      -2.635  -2.364   1.609  0.00  0.00    -0.091 S 
ATOM      7  C   UNL     1      -1.020  -1.992   0.978  0.00  0.00    +0.083 A 
ATOM      8  C   UNL     1       0.203  -2.651   0.980  0.00  0.00    +0.212 A 
ATOM      9  C   UNL     1       1.304  -2.031   0.362  0.00  0.00    +0.149 A 
ATOM     10  C   UNL     1       1.116  -0.763  -0.238  0.00  0.00    +0.268 A 
ATOM     11  O   UNL     1       2.059  -0.214  -0.781  0.00  0.00    -0.267 OA
ATOM     12  O   UNL     1       0.332  -3.864   1.564  0.00  0.00    -0.286 OA
ENDROOT
BRANCH   9  13
ATOM     13  C   UNL     1       2.615  -2.684   0.337  0.00  0.00    +0.257 C 
ATOM     14  O   UNL     1       2.733  -3.827   0.738  0.00  0.00    -0.270 OA
ATOM     15  N   UNL     1       3.691  -2.019  -0.130  0.00  0.00    -0.280 N 
ATOM     16  H   UNL     1       3.611  -1.087  -0.387  0.00  0.00    +0.155 HD
BRANCH  15  17
ATOM     17  C   UNL     1       4.922  -2.674  -0.246  0.00  0.00    +0.052 A 
ATOM     18  C   UNL     1       4.967  -4.057  -0.364  0.00  0.00    +0.026 A 
ATOM     19  C   UNL     1       6.183  -4.701  -0.477  0.00  0.00    +0.022 A 
ATOM     20  C   UNL     1       7.358  -3.969  -0.474  0.00  0.00    +0.042 A 
ATOM     21  C   UNL     1       7.318  -2.591  -0.356  0.00  0.00    +0.041 A 
ATOM     22  C   UNL     1       6.103  -1.941  -0.248  0.00  0.00    +0.064 A 
ATOM     23 CL   UNL     1       6.052  -0.211  -0.108  0.00  0.00    -0.082 Cl
ATOM     24 CL   UNL     1       8.885  -4.782  -0.616  0.00  0.00    -0.083 Cl
ENDBRANCH  15  17
ENDBRANCH   9  13
TORSDOF 2
