REMARK  Name = ZINC16426212
REMARK  4 active torsions:
REMARK  status: ('A' for Active; 'I' for Inactive)
REMARK    1  A    between atoms: C_5  and  N_7
REMARK    2  A    between atoms: N_7  and  S_8
REMARK    3  A    between atoms: S_8  and  C_11
REMARK    4  A    between atoms: C_24  and  C_27
REMARK                            x       y       z     vdW  Elec       q    Type
REMARK                         _______ _______ _______ _____ _____    ______ ____
ROOT
ATOM      1  C   UNL     1       0.106  -2.878   0.150  0.00  0.00    +0.109 A 
ATOM      2  C   UNL     1      -1.059  -2.134   0.195  0.00  0.00    +0.030 A 
ATOM      3  C   UNL     1      -0.999  -0.757   0.268  0.00  0.00    +0.025 A 
ATOM      4  C   UNL     1       0.230  -0.109   0.295  0.00  0.00    +0.031 A 
ATOM      5  C   UNL     1       1.403  -0.868   0.235  0.00  0.00    -0.018 A 
ATOM      6  C   UNL     1       1.333  -2.243   0.170  0.00  0.00    +0.034 A 
ATOM      7  C   UNL     1       2.689  -0.137   0.223  0.00  0.00    +0.049 C 
ATOM      8  C   UNL     1       3.946  -0.753   0.720  0.00  0.00    -0.023 C 
ATOM      9  C   UNL     1       4.716   0.203   1.226  0.00  0.00    -0.030 C 
ATOM     10  C   UNL     1       4.002   1.553   1.133  0.00  0.00    +0.033 C 
ATOM     11  C   UNL     1       2.529   1.123   1.125  0.00  0.00    +0.029 C 
ATOM     12  C   UNL     1       1.549   2.023   0.394  0.00  0.00    +0.105 C 
ATOM     13  N   UNL     1       0.265   1.288   0.385  0.00  0.00    -0.336 N 
ATOM     14  H   UNL     1      -0.567   1.783   0.439  0.00  0.00    +0.147 HD
ENDROOT
BRANCH  12  15
ATOM     15  C   UNL     1       1.395   3.330   1.127  0.00  0.00    -0.027 A 
ATOM     16  C   UNL     1       0.631   3.391   2.278  0.00  0.00    +0.008 A 
ATOM     17  C   UNL     1       0.495   4.589   2.954  0.00  0.00    +0.038 A 
ATOM     18  C   UNL     1       1.113   5.730   2.473  0.00  0.00    +0.123 A 
ATOM     19  C   UNL     1       1.873   5.669   1.317  0.00  0.00    +0.038 A 
ATOM     20  C   UNL     1       2.014   4.469   0.646  0.00  0.00    +0.008 A 
ATOM     21  F   UNL     1       0.975   6.902   3.130  0.00  0.00    -0.205 F 
ENDBRANCH  12  15
BRANCH   1  22
ATOM     22  S   UNL     1       0.025  -4.637   0.067  0.00  0.00    +0.072 S 
ATOM     23  O   UNL     1       1.255  -5.125   0.585  0.00  0.00    -0.150 OA
ATOM     24  O   UNL     1      -1.233  -5.012   0.612  0.00  0.00    -0.150 OA
BRANCH  22  25
ATOM     25  N   UNL     1      -0.011  -5.050  -1.536  0.00  0.00    -0.213 N 
ATOM     26  H   UNL     1      -0.769  -5.538  -1.894  0.00  0.00    +0.174 HD
BRANCH  25  31
ATOM     27  C   UNL     1       3.399  -4.348  -2.717  0.00  0.00    +0.002 A 
ATOM     28  C   UNL     1       3.155  -3.994  -4.031  0.00  0.00    +0.003 A 
ATOM     29  C   UNL     1       1.861  -3.991  -4.521  0.00  0.00    +0.040 A 
ATOM     30  C   UNL     1       0.808  -4.346  -3.698  0.00  0.00    +0.146 A 
ATOM     31  C   UNL     1       1.051  -4.696  -2.374  0.00  0.00    +0.083 A 
ATOM     32  C   UNL     1       2.352  -4.698  -1.887  0.00  0.00    +0.027 A 
ATOM     33  F   UNL     1      -0.455  -4.347  -4.177  0.00  0.00    -0.204 F 
ENDBRANCH  25  31
ENDBRANCH  22  25
ENDBRANCH   1  22
TORSDOF 4
