REMARK  Name = ZINC04937071
REMARK  6 active torsions:
REMARK  status: ('A' for Active; 'I' for Inactive)
REMARK    1  A    between atoms: C_1  and  C_2
REMARK    2  A    between atoms: C_4  and  C_27
REMARK    3  A    between atoms: C_8  and  C_11
REMARK    4  A    between atoms: C_18  and  C_26
REMARK    5  A    between atoms: C_19  and  C_25
REMARK    6  A    between atoms: C_20  and  C_24
REMARK                            x       y       z     vdW  Elec       q    Type
REMARK                         _______ _______ _______ _____ _____    ______ ____
ROOT
ATOM      1  C   UNL     1      -1.209   3.218   0.033  0.00  0.00    +0.254 C 
ATOM      2  O   UNL     1      -2.271   3.813   0.046  0.00  0.00    -0.270 OA
ATOM      3  N   UNL     1      -1.191   1.871   0.018  0.00  0.00    -0.266 N 
ATOM      4  C   UNL     1      -2.379   1.159   0.124  0.00  0.00    +0.128 A 
ATOM      5  C   UNL     1      -2.332  -0.239   0.216  0.00  0.00    +0.044 A 
ATOM      6  C   UNL     1      -3.491  -0.949   0.326  0.00  0.00    +0.015 A 
ATOM      7  C   UNL     1      -4.708  -0.240   0.333  0.00  0.00    +0.022 A 
ATOM      8  C   UNL     1      -5.941  -0.906   0.438  0.00  0.00    -0.035 A 
ATOM      9  C   UNL     1      -7.083  -0.152   0.438  0.00  0.00    -0.026 A 
ATOM     10  C   UNL     1      -6.998   1.233   0.336  0.00  0.00    +0.044 A 
ATOM     11  N   UNL     1      -5.844   1.849   0.238  0.00  0.00    -0.232 NA
ATOM     12  C   UNL     1      -4.691   1.173   0.232  0.00  0.00    +0.162 A 
ATOM     13  N   UNL     1      -3.522   1.814   0.132  0.00  0.00    -0.212 NA
ATOM     14  C   UNL     1      -8.266   2.047   0.337  0.00  0.00    +0.066 C 
ATOM     15  C   UNL     1      -8.429  -0.821   0.547  0.00  0.00    +0.046 C 
ATOM     16  C   UNL     1      -6.005  -2.407   0.546  0.00  0.00    +0.045 C 
ATOM     17  H   UNL     1      -0.348   1.398  -0.067  0.00  0.00    +0.157 HD
ENDROOT
BRANCH   1  25
ATOM     18  C   UNL     1      -1.324   8.727   0.094  0.00  0.00    +0.066 C 
ATOM     19  C   UNL     1      -0.303   7.619   0.080  0.00  0.00    +0.043 A 
ATOM     20  C   UNL     1       1.063   7.927   0.081  0.00  0.00    +0.052 A 
ATOM     21  C   UNL     1       1.972   6.919   0.078  0.00  0.00    +0.112 A 
ATOM     22  N   UNL     1       1.533   5.628   0.059  0.00  0.00    -0.212 N 
ATOM     23  C   UNL     1       0.192   5.369   0.055  0.00  0.00    +0.168 A 
ATOM     24  N   UNL     1      -0.696   6.364   0.067  0.00  0.00    -0.232 NA
ATOM     25  C   UNL     1       0.050   3.968   0.039  0.00  0.00    +0.101 A 
ATOM     26  C   UNL     1       1.348   3.425   0.025  0.00  0.00    +0.150 A 
ATOM     27  N   UNL     1       2.213   4.405   0.037  0.00  0.00    -0.172 NA
BRANCH  21  28
ATOM     28  C   UNL     1       3.448   7.223   0.077  0.00  0.00    +0.390 C 
ATOM     29  F   UNL     1       3.677   8.425   0.754  0.00  0.00    -0.202 F 
ATOM     30  F   UNL     1       4.138   6.188   0.718  0.00  0.00    -0.202 F 
ENDBRANCH  21  28
ENDBRANCH   1  25
TORSDOF 2
