REMARK  Name = ZINC45349245
REMARK  6 active torsions:
REMARK  status: ('A' for Active; 'I' for Inactive)
REMARK    1  A    between atoms: C_1  and  C_2
REMARK    2  A    between atoms: C_4  and  S_23
REMARK    3  A    between atoms: C_10  and  C_20
REMARK    4  A    between atoms: C_11  and  N_12
REMARK    5  A    between atoms: N_12  and  C_13
REMARK    6  A    between atoms: S_23  and  C_26
REMARK                            x       y       z     vdW  Elec       q    Type
REMARK                         _______ _______ _______ _____ _____    ______ ____
ROOT
ATOM      1  C   UNL     1      -0.036   1.325  -0.255  0.00  0.00    +0.046 C 
ATOM      2  C   UNL     1      -0.006  -0.179  -0.179  0.00  0.00    -0.026 A 
ATOM      3  C   UNL     1       0.004  -0.933  -1.339  0.00  0.00    +0.032 A 
ATOM      4  C   UNL     1       0.032  -2.317  -1.277  0.00  0.00    +0.089 A 
ATOM      5  C   UNL     1       0.051  -2.964  -0.058  0.00  0.00    +0.038 A 
ATOM      6  C   UNL     1       0.041  -2.217   1.118  0.00  0.00    +0.022 A 
ATOM      7  C   UNL     1       0.017  -0.812   1.050  0.00  0.00    +0.056 A 
ATOM      8  N   UNL     1       0.010  -0.088   2.244  0.00  0.00    -0.266 N 
ATOM      9  N   UNL     1      -0.490  -0.742   3.390  0.00  0.00    -0.261 N 
ATOM     10  C   UNL     1      -0.194  -2.116   3.554  0.00  0.00    +0.128 C 
ATOM     11  C   UNL     1       0.061  -2.870   2.439  0.00  0.00    +0.068 C 
ATOM     12  H   UNL     1       0.335   0.825   2.283  0.00  0.00    +0.170 HD
ATOM     13  H   UNL     1      -1.021  -0.264   4.046  0.00  0.00    +0.170 HD
ENDROOT
BRANCH  10  14
ATOM     14  C   UNL     1      -0.173  -2.700   4.841  0.00  0.00    +0.259 C 
ATOM     15  O   UNL     1      -0.013  -3.901   4.962  0.00  0.00    -0.269 OA
ATOM     16  N   UNL     1      -0.330  -1.927   5.934  0.00  0.00    -0.324 N 
ATOM     17  H   UNL     1      -0.457  -0.970   5.838  0.00  0.00    +0.145 HD
ATOM     18  H   UNL     1      -0.315  -2.328   6.817  0.00  0.00    +0.145 HD
ENDBRANCH  10  14
BRANCH   4  19
ATOM     19  S   UNL     1       0.044  -3.258  -2.767  0.00  0.00    -0.006 S 
ATOM     20  O   UNL     1      -0.532  -4.507  -2.411  0.00  0.00    -0.170 OA
ATOM     21  O   UNL     1      -0.580  -2.420  -3.730  0.00  0.00    -0.170 OA
ATOM     22  C   UNL     1       1.800  -3.472  -3.169  0.00  0.00    +0.200 C 
ENDBRANCH   4  19
BRANCH  11  23
ATOM     23  N   UNL     1       0.348  -4.219   2.554  0.00  0.00    -0.311 N 
ATOM     24  H   UNL     1      -0.302  -4.821   2.949  0.00  0.00    +0.152 HD
BRANCH  23  25
ATOM     25  C   UNL     1       1.574  -4.713   2.103  0.00  0.00    +0.052 A 
ATOM     26  C   UNL     1       1.813  -6.085   2.067  0.00  0.00    +0.064 A 
ATOM     27  C   UNL     1       3.045  -6.527   1.611  0.00  0.00    +0.143 A 
ATOM     28  C   UNL     1       3.990  -5.597   1.208  0.00  0.00    +0.149 A 
ATOM     29  N   UNL     1       3.731  -4.305   1.255  0.00  0.00    -0.259 NA
ATOM     30  C   UNL     1       2.571  -3.844   1.677  0.00  0.00    +0.134 A 
ATOM     31  F   UNL     1       3.322  -7.849   1.559  0.00  0.00    -0.204 F 
ENDBRANCH  23  25
ENDBRANCH  11  23
TORSDOF 4
