REMARK  Name = ZINC52094328
REMARK  9 active torsions:
REMARK  status: ('A' for Active; 'I' for Inactive)
REMARK    1  A    between atoms: C_1  and  C_2
REMARK    2  A    between atoms: C_2  and  C_3
REMARK    3  A    between atoms: C_3  and  C_4
REMARK    4  A    between atoms: C_4  and  C_5
REMARK    5  A    between atoms: C_5  and  C_7
REMARK    6  A    between atoms: C_5  and  C_9
REMARK    7  A    between atoms: C_7  and  C_8
REMARK    8  A    between atoms: C_9  and  C_11
REMARK    9  A    between atoms: C_9  and  N_24
REMARK                            x       y       z     vdW  Elec       q    Type
REMARK                         _______ _______ _______ _____ _____    ______ ____
ROOT
ATOM      1  C   UNL     1      -4.351  -4.524   0.549  0.00  0.00    -0.046 A 
ATOM      2  C   UNL     1      -5.128  -5.087  -0.445  0.00  0.00    +0.031 A 
ATOM      3  C   UNL     1      -6.429  -5.476  -0.167  0.00  0.00    +0.067 A 
ATOM      4  C   UNL     1      -6.950  -5.296   1.117  0.00  0.00    +0.068 A 
ATOM      5  C   UNL     1      -6.163  -4.730   2.108  0.00  0.00    +0.043 A 
ATOM      6  C   UNL     1      -4.865  -4.351   1.823  0.00  0.00    +0.022 A 
ATOM      7 BR   UNL     1      -3.788  -3.586   3.176  0.00  0.00    -0.050 Br
ATOM      8  N   UNL     1      -8.258  -5.774   1.091  0.00  0.00    -0.306 N 
ATOM      9  H   UNL     1      -8.874  -5.781   1.840  0.00  0.00    +0.170 HD
ATOM     10  C   UNL     1      -8.521  -6.223  -0.150  0.00  0.00    +0.325 A 
ATOM     11  O   UNL     1      -9.578  -6.706  -0.511  0.00  0.00    -0.247 OA
ATOM     12  N   UNL     1      -7.438  -6.057  -0.932  0.00  0.00    -0.306 N 
ATOM     13  H   UNL     1      -7.371  -6.300  -1.869  0.00  0.00    +0.170 HD
ENDROOT
BRANCH   1  14
ATOM     14  C   UNL     1      -2.936  -4.101   0.246  0.00  0.00    -0.040 C 
BRANCH  14  15
ATOM     15  N   UNL     1      -2.230  -5.201  -0.424  0.00  0.00    +0.383 N 
ATOM     16  H   UNL     1      -1.282  -4.919  -0.626  0.00  0.00    -0.089 HD
ATOM     17  H   UNL     1      -2.217  -6.010   0.179  0.00  0.00    -0.089 HD
ATOM     18  H   UNL     1      -2.704  -5.431  -1.285  0.00  0.00    -0.089 HD
ENDBRANCH  14  15
BRANCH  14  19
ATOM     19  C   UNL     1      -2.955  -2.875  -0.668  0.00  0.00    -0.022 C 
BRANCH  19  20
ATOM     20  C   UNL     1      -3.568  -1.690   0.080  0.00  0.00    -0.001 C 
ATOM     21  C   UNL     1      -2.648  -1.284   1.234  0.00  0.00    +0.004 C 
ENDBRANCH  19  20
BRANCH  19  22
ATOM     22  C   UNL     1      -1.524  -2.529  -1.087  0.00  0.00    +0.002 C 
BRANCH  22  23
ATOM     23  C   UNL     1      -1.551  -1.375  -2.090  0.00  0.00    -0.000 C 
BRANCH  23  25
ATOM     24  C   UNL     1      -0.145   0.202  -3.424  0.00  0.00    +0.004 C 
ATOM     25  C   UNL     1      -0.118  -0.952  -2.420  0.00  0.00    -0.003 C 
ENDBRANCH  23  25
ENDBRANCH  22  23
ENDBRANCH  19  22
ENDBRANCH  14  19
ENDBRANCH   1  14
TORSDOF 7
