REMARK  Name = ZINC11568852
REMARK  6 active torsions:
REMARK  status: ('A' for Active; 'I' for Inactive)
REMARK    1  A    between atoms: C_1  and  C_2
REMARK    2  A    between atoms: N_6  and  C_15
REMARK    3  A    between atoms: C_10  and  N_14
REMARK    4  A    between atoms: C_15  and  C_16
REMARK    5  A    between atoms: C_16  and  C_17
REMARK    6  A    between atoms: C_16  and  C_18
REMARK                            x       y       z     vdW  Elec       q    Type
REMARK                         _______ _______ _______ _____ _____    ______ ____
ROOT
ATOM      1  C   UNL     1      -0.736   1.996   1.269  0.00  0.00    +0.062 C 
ATOM      2  C   UNL     1      -0.018   1.503   0.010  0.00  0.00    +0.256 C 
ATOM      3  C   UNL     1       0.002  -0.004   0.002  0.00  0.00    +0.260 C 
ATOM      4  O   UNL     1      -0.880  -0.628   0.553  0.00  0.00    -0.271 OA
ATOM      5  N   UNL     1       1.007  -0.657  -0.622  0.00  0.00    -0.265 N 
ATOM      6  C   UNL     1       2.034   0.090  -1.221  0.00  0.00    +0.078 A 
ATOM      7  C   UNL     1       2.898  -0.499  -2.130  0.00  0.00    +0.029 A 
ATOM      8  C   UNL     1       3.904   0.250  -2.710  0.00  0.00    +0.025 A 
ATOM      9  C   UNL     1       4.051   1.592  -2.383  0.00  0.00    +0.028 A 
ATOM     10  C   UNL     1       3.186   2.186  -1.473  0.00  0.00    +0.070 A 
ATOM     11  C   UNL     1       2.178   1.437  -0.892  0.00  0.00    +0.145 A 
ATOM     12  O   UNL     1       1.322   2.002   0.000  0.00  0.00    -0.478 OA
ENDROOT
BRANCH   9  13
ATOM     13  N   UNL     1       5.071   2.347  -2.971  0.00  0.00    -0.358 N 
ATOM     14  H   UNL     1       5.676   1.933  -3.607  0.00  0.00    +0.142 HD
ATOM     15  H   UNL     1       5.174   3.284  -2.744  0.00  0.00    +0.142 HD
ENDBRANCH   9  13
BRANCH   5  16
ATOM     16  C   UNL     1       1.025  -2.121  -0.672  0.00  0.00    +0.117 C 
BRANCH  16  17
ATOM     17  C   UNL     1       0.286  -2.597  -1.924  0.00  0.00    +0.001 C 
ATOM     18  C   UNL     1       0.411  -4.117  -2.043  0.00  0.00    +0.009 C 
ATOM     19  C   UNL     1      -1.191  -2.213  -1.822  0.00  0.00    +0.009 C 
ENDBRANCH  16  17
ENDBRANCH   5  16
TORSDOF 3
