REMARK  Name = ZINC58293258
REMARK  5 active torsions:
REMARK  status: ('A' for Active; 'I' for Inactive)
REMARK    1  A    between atoms: C_1  and  N_2
REMARK    2  A    between atoms: N_2  and  C_3
REMARK    3  A    between atoms: C_3  and  C_4
REMARK    4  A    between atoms: C_8  and  O_10
REMARK    5  A    between atoms: C_11  and  C_13
REMARK                            x       y       z     vdW  Elec       q    Type
REMARK                         _______ _______ _______ _____ _____    ______ ____
ROOT
ATOM      1  C   UNL     1      -0.018   1.461   0.010  0.00  0.00    +0.132 C 
ATOM      2  N   UNL     1       0.002  -0.004   0.002  0.00  0.00    -0.297 N 
ATOM      3  C   UNL     1       0.000  -0.672  -1.169  0.00  0.00    +0.257 C 
ATOM      4  O   UNL     1       0.017  -1.884  -1.175  0.00  0.00    -0.272 OA
ENDROOT
BRANCH   3   5
ATOM      5  C   UNL     1      -0.023   0.089  -2.470  0.00  0.00    +0.269 C 
ATOM      6  C   UNL     1       1.280   0.892  -2.619  0.00  0.00    +0.128 C 
ATOM      7  S   UNL     1       1.103   1.921  -4.110  0.00  0.00    -0.117 S 
ATOM      8  C   UNL     1       0.378   0.800  -5.267  0.00  0.00    +0.050 A 
ATOM      9  C   UNL     1       0.348   1.143  -6.612  0.00  0.00    +0.018 A 
ATOM     10  C   UNL     1      -0.221   0.288  -7.535  0.00  0.00    +0.001 A 
ATOM     11  C   UNL     1      -0.764  -0.912  -7.114  0.00  0.00    +0.004 A 
ATOM     12  C   UNL     1      -0.734  -1.260  -5.779  0.00  0.00    +0.047 A 
ATOM     13  C   UNL     1      -0.157  -0.410  -4.839  0.00  0.00    +0.135 A 
ATOM     14  O   UNL     1      -0.133  -0.824  -3.551  0.00  0.00    -0.478 OA
ENDBRANCH   3   5
BRANCH   2  15
ATOM     15  C   UNL     1       0.024  -0.743   1.267  0.00  0.00    +0.142 C 
BRANCH  15  16
ATOM     16  C   UNL     1      -1.389  -1.016   1.714  0.00  0.00    -0.027 A 
ATOM     17  C   UNL     1      -2.047  -0.104   2.519  0.00  0.00    +0.005 A 
ATOM     18  C   UNL     1      -3.343  -0.352   2.930  0.00  0.00    +0.004 A 
ATOM     19  C   UNL     1      -3.985  -1.511   2.539  0.00  0.00    +0.045 A 
ATOM     20  C   UNL     1      -3.326  -2.427   1.732  0.00  0.00    +0.117 A 
ATOM     21  C   UNL     1      -2.028  -2.174   1.315  0.00  0.00    +0.050 A 
BRANCH  20  22
ATOM     22  O   UNL     1      -3.955  -3.569   1.345  0.00  0.00    -0.507 OA
ATOM     23  H   UNL     1      -4.444  -3.486   0.515  0.00  0.00    +0.292 HD
ENDBRANCH  20  22
ENDBRANCH  15  16
ENDBRANCH   2  15
TORSDOF 4
