REMARK  Name = ZINC04027973
REMARK  4 active torsions:
REMARK  status: ('A' for Active; 'I' for Inactive)
REMARK    1  A    between atoms: C_1  and  C_2
REMARK    2  A    between atoms: C_5  and  O_30
REMARK    3  A    between atoms: C_18  and  C_29
REMARK    4  A    between atoms: N_24  and  N_25
REMARK                            x       y       z     vdW  Elec       q    Type
REMARK                         _______ _______ _______ _____ _____    ______ ____
ROOT
ATOM      1  C   UNL     1      -0.074   3.959  -1.403  0.00  0.00    +0.012 C 
ATOM      2  C   UNL     1      -1.242   3.000  -1.205  0.00  0.00    -0.026 C 
ATOM      3  C   UNL     1      -2.255   3.213  -2.342  0.00  0.00    +0.010 C 
ATOM      4  C   UNL     1      -2.792   4.640  -2.330  0.00  0.00    +0.032 C 
ATOM      5  C   UNL     1      -3.443   4.972  -0.989  0.00  0.00    +0.115 C 
ATOM      6  C   UNL     1      -2.453   4.740   0.153  0.00  0.00    +0.035 C 
ATOM      7  C   UNL     1      -1.956   3.300   0.117  0.00  0.00    -0.002 C 
ATOM      8  C   UNL     1      -1.022   3.020   1.291  0.00  0.00    +0.004 C 
ATOM      9  C   UNL     1      -0.693   1.526   1.309  0.00  0.00    +0.004 C 
ATOM     10  C   UNL     1      -0.013   1.109   0.008  0.00  0.00    -0.003 C 
ATOM     11  C   UNL     1      -0.795   1.545  -1.211  0.00  0.00    -0.001 C 
ATOM     12  C   UNL     1      -0.108   1.131  -2.501  0.00  0.00    +0.005 C 
ATOM     13  C   UNL     1       1.368   1.473  -2.551  0.00  0.00    +0.013 C 
ATOM     14  C   UNL     1       2.133   1.113  -1.304  0.00  0.00    +0.011 C 
ATOM     15  C   UNL     1       1.444   1.563  -0.003  0.00  0.00    +0.004 C 
ATOM     16  C   UNL     1       2.190   0.702   1.060  0.00  0.00    +0.010 C 
ATOM     17  C   UNL     1       2.493  -0.628   0.340  0.00  0.00    +0.053 C 
ATOM     18  C   UNL     1       2.340  -0.375  -1.147  0.00  0.00    +0.043 C 
ATOM     19  N   UNL     1       2.381  -1.248  -2.082  0.00  0.00    -0.187 NA
ATOM     20  C   UNL     1       3.511   1.783  -1.377  0.00  0.00    +0.018 C 
ENDROOT
BRANCH  19  21
ATOM     21  N   UNL     1       2.582  -2.599  -1.770  0.00  0.00    -0.191 N 
ATOM     22  C   UNL     1       2.625  -3.518  -2.754  0.00  0.00    +0.317 C 
ATOM     23  O   UNL     1       2.800  -4.691  -2.484  0.00  0.00    -0.251 OA
ATOM     24  N   UNL     1       2.475  -3.138  -4.039  0.00  0.00    -0.312 N 
ATOM     25  H   UNL     1       2.690  -2.872  -0.846  0.00  0.00    +0.179 HD
ATOM     26  H   UNL     1       2.336  -2.203  -4.255  0.00  0.00    +0.147 HD
ATOM     27  H   UNL     1       2.506  -3.800  -4.747  0.00  0.00    +0.147 HD
ENDBRANCH  19  21
BRANCH   5  28
ATOM     28  O   UNL     1      -4.597   4.151  -0.797  0.00  0.00    -0.392 OA
ATOM     29  H   UNL     1      -5.268   4.248  -1.487  0.00  0.00    +0.210 HD
ENDBRANCH   5  28
TORSDOF 2
