REMARK  Name = ZINC04236712
REMARK  11 active torsions:
REMARK  status: ('A' for Active; 'I' for Inactive)
REMARK    1  A    between atoms: C_1  and  C_2
REMARK    2  A    between atoms: C_5  and  N_8
REMARK    3  A    between atoms: C_9  and  O_11
REMARK    4  A    between atoms: O_11  and  C_12
REMARK    5  A    between atoms: C_16  and  C_39
REMARK    6  A    between atoms: C_19  and  C_20
REMARK    7  A    between atoms: C_19  and  C_21
REMARK    8  A    between atoms: C_21  and  O_22
REMARK    9  A    between atoms: C_25  and  O_38
REMARK   10  A    between atoms: C_27  and  C_29
REMARK   11  A    between atoms: C_29  and  C_30
REMARK                            x       y       z     vdW  Elec       q    Type
REMARK                         _______ _______ _______ _____ _____    ______ ____
ROOT
ATOM      1  C   UNL     1       3.305   8.726   3.840  0.00  0.00    +0.186 C 
ATOM      2  C   UNL     1       4.673   8.057   3.688  0.00  0.00    +0.046 C 
ATOM      3  C   UNL     1       4.516   6.540   3.813  0.00  0.00    +0.011 C 
ATOM      4  C   UNL     1       3.576   6.034   2.717  0.00  0.00    -0.023 C 
ATOM      5  C   UNL     1       2.208   6.702   2.869  0.00  0.00    +0.007 C 
ATOM      6  C   UNL     1       2.365   8.219   2.744  0.00  0.00    +0.031 C 
ATOM      7  C   UNL     1       0.998   8.888   2.896  0.00  0.00    +0.017 C 
ATOM      8  C   UNL     1       1.623   6.361   4.241  0.00  0.00    +0.007 C 
ATOM      9  C   UNL     1       1.466   4.844   4.365  0.00  0.00    +0.032 C 
ATOM     10  C   UNL     1       2.834   4.176   4.214  0.00  0.00    +0.119 C 
ATOM     11  C   UNL     1       3.419   4.517   2.842  0.00  0.00    +0.032 C 
ATOM     12  C   UNL     1       4.161   6.375   1.345  0.00  0.00    +0.012 C 
ENDROOT
BRANCH  10  13
ATOM     13  O   UNL     1       2.687   2.759   4.330  0.00  0.00    -0.391 OA
ATOM     14  H   UNL     1       2.320   2.470   5.177  0.00  0.00    +0.210 HD
ENDBRANCH  10  13
BRANCH   1  15
ATOM     15  O   UNL     1       3.455  10.165   3.722  0.00  0.00    -0.446 OA
BRANCH  15  17
ATOM     16  N   UNL     1       3.836  12.190   4.817  0.00  0.00    -0.251 N 
ATOM     17  C   UNL     1       3.688  10.851   4.857  0.00  0.00    +0.405 C 
ATOM     18  O   UNL     1       3.765  10.262   5.917  0.00  0.00    -0.226 OA
ATOM     19  H   UNL     1       3.850  12.651   3.964  0.00  0.00    +0.158 HD
BRANCH  16  24
ATOM     20  C   UNL     1       4.383  15.128   9.639  0.00  0.00    +0.044 C 
ATOM     21  C   UNL     1       4.238  14.348   8.358  0.00  0.00    -0.050 A 
ATOM     22  C   UNL     1       4.803  14.826   7.191  0.00  0.00    +0.005 A 
ATOM     23  C   UNL     1       4.672  14.114   6.015  0.00  0.00    +0.023 A 
ATOM     24  C   UNL     1       3.971  12.915   6.007  0.00  0.00    +0.036 A 
ATOM     25  C   UNL     1       3.400  12.440   7.180  0.00  0.00    +0.023 A 
ATOM     26  C   UNL     1       3.540  13.154   8.353  0.00  0.00    +0.005 A 
ENDBRANCH  16  24
ENDBRANCH  15  17
ENDBRANCH   1  15
BRANCH   6  27
ATOM     27  C   UNL     1       2.950   8.560   1.373  0.00  0.00    +0.166 C 
BRANCH  27  28
ATOM     28  O   UNL     1       2.915   9.975   1.178  0.00  0.00    -0.394 OA
ATOM     29  H   UNL     1       3.272  10.265   0.327  0.00  0.00    +0.209 HD
ENDBRANCH  27  28
ENDBRANCH   6  27
BRANCH  11  30
ATOM     30  C   UNL     1       2.479   4.010   1.746  0.00  0.00    +0.102 C 
BRANCH  30  31
ATOM     31  C   UNL     1       2.602   2.512   1.631  0.00  0.00    +0.216 C 
ATOM     32  O   UNL     1       3.493   1.931   2.215  0.00  0.00    -0.276 OA
ATOM     33  N   UNL     1       1.723   1.819   0.881  0.00  0.00    -0.297 N 
ATOM     34  C   UNL     1       0.635   2.502   0.164  0.00  0.00    +0.136 C 
ATOM     35  C   UNL     1      -0.683   1.791   0.493  0.00  0.00    +0.179 C 
ATOM     36  O   UNL     1      -0.537   0.391   0.242  0.00  0.00    -0.377 OA
ATOM     37  C   UNL     1       0.448  -0.251   1.055  0.00  0.00    +0.179 C 
ATOM     38  C   UNL     1       1.823   0.356   0.754  0.00  0.00    +0.136 C 
ENDBRANCH  30  31
ENDBRANCH  11  30
TORSDOF 8
