REMARK  Name = ZINC22064942
REMARK  13 active torsions:
REMARK  status: ('A' for Active; 'I' for Inactive)
REMARK    1  A    between atoms: C_1  and  C_2
REMARK    2  A    between atoms: C_4  and  O_41
REMARK    3  A    between atoms: C_6  and  O_40
REMARK    4  A    between atoms: C_8  and  O_39
REMARK    5  A    between atoms: C_10  and  O_13
REMARK    6  A    between atoms: O_13  and  C_14
REMARK    7  A    between atoms: C_16  and  O_38
REMARK    8  A    between atoms: C_18  and  O_37
REMARK    9  A    between atoms: C_20  and  C_35
REMARK   10  A    between atoms: C_23  and  O_25
REMARK   11  A    between atoms: O_25  and  C_26
REMARK   12  A    between atoms: C_29  and  N_32
REMARK   13  A    between atoms: C_35  and  O_36
REMARK                            x       y       z     vdW  Elec       q    Type
REMARK                         _______ _______ _______ _____ _____    ______ ____
ROOT
ATOM      1  C   UNL     1      -0.826  -2.514  -3.724  0.00  0.00    +0.221 C 
ATOM      2  C   UNL     1      -1.035  -1.481  -4.836  0.00  0.00    +0.180 C 
ATOM      3  C   UNL     1      -0.568  -2.078  -6.167  0.00  0.00    +0.177 C 
ATOM      4  C   UNL     1      -1.332  -3.379  -6.430  0.00  0.00    +0.179 C 
ATOM      5  O   UNL     1      -1.119  -4.283  -5.344  0.00  0.00    -0.331 OA
ATOM      6  C   UNL     1      -1.580  -3.797  -4.081  0.00  0.00    +0.340 C 
ENDROOT
BRANCH   3   7
ATOM      7  O   UNL     1       0.833  -2.352  -6.101  0.00  0.00    -0.386 OA
ATOM      8  H   UNL     1       1.350  -2.787  -6.970  0.00  0.00    +0.210 HD
ENDBRANCH   3   7
BRANCH   2   9
ATOM      9  O   UNL     1      -0.275  -0.306  -4.546  0.00  0.00    -0.386 OA
ATOM     10  H   UNL     1      -0.301   0.550  -5.237  0.00  0.00    +0.210 HD
ENDBRANCH   2   9
BRANCH   1  11
ATOM     11  O   UNL     1      -1.325  -1.994  -2.490  0.00  0.00    -0.337 OA
BRANCH  11  17
ATOM     12  C   UNL     1       2.165  -0.022  -1.250  0.00  0.00    +0.041 C 
ATOM     13  C   UNL     1       0.712  -0.499  -1.261  0.00  0.00    +0.149 C 
ATOM     14  C   UNL     1       0.002  -0.004   0.002  0.00  0.00    +0.174 C 
ATOM     15  C   UNL     1      -1.435  -0.535   0.013  0.00  0.00    +0.179 C 
ATOM     16  C   UNL     1      -1.402  -2.064  -0.074  0.00  0.00    +0.201 C 
ATOM     17  C   UNL     1      -0.638  -2.480  -1.334  0.00  0.00    +0.282 C 
ATOM     18  O   UNL     1       0.679  -1.927  -1.295  0.00  0.00    -0.343 OA
BRANCH  16  19
ATOM     19  O   UNL     1      -0.746  -2.595   1.079  0.00  0.00    -0.384 OA
ATOM     20  H   UNL     1      -0.627  -3.682   1.192  0.00  0.00    +0.210 HD
ENDBRANCH  16  19
BRANCH  15  21
ATOM     21  O   UNL     1      -2.082  -0.139   1.224  0.00  0.00    -0.386 OA
ATOM     22  H   UNL     1      -3.126  -0.431   1.411  0.00  0.00    +0.210 HD
ENDBRANCH  15  21
BRANCH  14  23
ATOM     23  O   UNL     1      -0.017   1.425   0.010  0.00  0.00    -0.387 OA
ATOM     24  H   UNL     1      -0.489   1.964   0.845  0.00  0.00    +0.210 HD
ENDBRANCH  14  23
ENDBRANCH  11  17
ENDBRANCH   1  11
BRANCH   6  25
ATOM     25  O   UNL     1      -2.980  -3.521  -4.159  0.00  0.00    -0.461 OA
BRANCH  25  26
ATOM     26  C   UNL     1      -3.814  -4.589  -4.261  0.00  0.00    +0.124 A 
ATOM     27  C   UNL     1      -3.296  -5.876  -4.291  0.00  0.00    +0.048 A 
ATOM     28  C   UNL     1      -4.146  -6.960  -4.390  0.00  0.00    +0.036 A 
ATOM     29  C   UNL     1      -5.513  -6.763  -4.469  0.00  0.00    +0.126 A 
ATOM     30  C   UNL     1      -6.032  -5.481  -4.444  0.00  0.00    +0.036 A 
ATOM     31  C   UNL     1      -5.186  -4.394  -4.340  0.00  0.00    +0.048 A 
BRANCH  29  32
ATOM     32  N   UNL     1      -6.421  -7.926  -4.580  0.00  0.00    +0.056 N 
ATOM     33  O   UNL     1      -7.625  -7.754  -4.651  0.00  0.00    -0.126 OA
ATOM     34  O   UNL     1      -5.965  -9.055  -4.602  0.00  0.00    -0.126 OA
ENDBRANCH  29  32
ENDBRANCH  25  26
ENDBRANCH   6  25
BRANCH   4  35
ATOM     35  C   UNL     1      -0.828  -4.013  -7.728  0.00  0.00    +0.190 C 
BRANCH  35  36
ATOM     36  O   UNL     1      -1.619  -5.163  -8.035  0.00  0.00    -0.392 OA
ATOM     37  H   UNL     1      -1.404  -5.753  -8.938  0.00  0.00    +0.210 HD
ENDBRANCH  35  36
ENDBRANCH   4  35
TORSDOF 12
