REMARK  Name = ZINC09915889
REMARK  13 active torsions:
REMARK  status: ('A' for Active; 'I' for Inactive)
REMARK    1  A    between atoms: C_1  and  C_2
REMARK    2  A    between atoms: N_4  and  C_5
REMARK    3  A    between atoms: C_5  and  C_26
REMARK    4  A    between atoms: C_6  and  C_24
REMARK    5  A    between atoms: C_6  and  O_25
REMARK    6  A    between atoms: C_7  and  C_22
REMARK    7  A    between atoms: C_7  and  O_23
REMARK    8  A    between atoms: C_8  and  C_19
REMARK    9  A    between atoms: C_8  and  C_20
REMARK   10  A    between atoms: C_10  and  C_11
REMARK   11  A    between atoms: C_10  and  O_12
REMARK   12  A    between atoms: O_12  and  C_13
REMARK   13  A    between atoms: C_20  and  O_21
REMARK                            x       y       z     vdW  Elec       q    Type
REMARK                         _______ _______ _______ _____ _____    ______ ____
ROOT
ATOM      1  C   UNL     1      -1.759   3.835   0.534  0.00  0.00    +0.128 C 
ATOM      2  C   UNL     1      -0.618   3.386   1.428  0.00  0.00    +0.121 C 
ATOM      3  C   UNL     1      -0.563   1.894   1.693  0.00  0.00    +0.124 C 
ATOM      4  C   UNL     1      -1.920   1.235   1.894  0.00  0.00    +0.125 C 
ATOM      5  O   UNL     1      -2.927   1.746   1.060  0.00  0.00    -0.326 OA
ATOM      6  C   UNL     1      -3.075   3.114   0.782  0.00  0.00    +0.234 C 
ATOM      7  C   UNL     1      -3.875   3.829   1.878  0.00  0.00    +0.091 C 
ATOM      8  C   UNL     1      -2.328   1.310   3.371  0.00  0.00    +0.047 C 
ATOM      9  C   UNL     1       0.169   1.189   0.539  0.00  0.00    +0.047 C 
ATOM     10  C   UNL     1      -0.640   4.163   2.752  0.00  0.00    +0.047 C 
ATOM     11  C   UNL     1      -1.988   5.345   0.758  0.00  0.00    +0.041 C 
ENDROOT
BRANCH   1  15
ATOM     12  C   UNL     1      -1.798   3.940  -3.300  0.00  0.00    +0.109 C 
ATOM     13  C   UNL     1      -2.131   4.204  -1.854  0.00  0.00    +0.211 C 
ATOM     14  O   UNL     1      -3.076   4.908  -1.568  0.00  0.00    -0.276 OA
ATOM     15  N   UNL     1      -1.378   3.658  -0.879  0.00  0.00    -0.302 N 
ATOM     16  H   UNL     1      -0.585   3.147  -1.107  0.00  0.00    +0.150 HD
ENDBRANCH   1  15
BRANCH   3  17
ATOM     17  O   UNL     1       0.218   1.676   2.887  0.00  0.00    -0.383 OA
ATOM     18  H   UNL     1       0.330   0.744   3.119  0.00  0.00    +0.210 HD
ENDBRANCH   3  17
BRANCH   2  19
ATOM     19  O   UNL     1       0.618   3.751   0.763  0.00  0.00    -0.384 OA
ATOM     20  H   UNL     1       1.413   3.561   1.279  0.00  0.00    +0.210 HD
ENDBRANCH   2  19
BRANCH   6  21
ATOM     21  O   UNL     1      -3.856   3.228  -0.435  0.00  0.00    -0.459 OA
BRANCH  21  22
ATOM     22  C   UNL     1      -5.060   2.598  -0.456  0.00  0.00    +0.124 A 
ATOM     23  C   UNL     1      -5.455   1.817   0.620  0.00  0.00    +0.046 A 
ATOM     24  C   UNL     1      -6.682   1.182   0.599  0.00  0.00    +0.004 A 
ATOM     25  C   UNL     1      -7.511   1.316  -0.499  0.00  0.00    +0.000 A 
ATOM     26  C   UNL     1      -7.118   2.089  -1.576  0.00  0.00    +0.004 A 
ATOM     27  C   UNL     1      -5.894   2.731  -1.557  0.00  0.00    +0.046 A 
ENDBRANCH  21  22
ENDBRANCH   6  21
BRANCH   4  28
ATOM     28  C   UNL     1      -1.753  -0.269   1.558  0.00  0.00    +0.193 C 
BRANCH  28  29
ATOM     29  O   UNL     1      -3.003  -0.938   1.732  0.00  0.00    -0.392 OA
ATOM     30  H   UNL     1      -2.973  -1.885   1.539  0.00  0.00    +0.210 HD
ENDBRANCH  28  29
ENDBRANCH   4  28
TORSDOF 7
