REMARK  Name = ZINC04289824
REMARK  9 active torsions:
REMARK  status: ('A' for Active; 'I' for Inactive)
REMARK    1  A    between atoms: C_1  and  C_2
REMARK    2  A    between atoms: C_6  and  C_9
REMARK    3  A    between atoms: C_7  and  O_8
REMARK    4  A    between atoms: N_11  and  N_12
REMARK    5  A    between atoms: C_13  and  C_14
REMARK    6  A    between atoms: C_13  and  C_15
REMARK    7  A    between atoms: C_15  and  C_16
REMARK    8  A    between atoms: N_18  and  C_19
REMARK    9  A    between atoms: C_19  and  C_20
REMARK                            x       y       z     vdW  Elec       q    Type
REMARK                         _______ _______ _______ _____ _____    ______ ____
ROOT
ATOM      1  N   UNL     1      -0.015   1.276   0.009  0.00  0.00    -0.189 NA
ATOM      2  C   UNL     1       0.002  -0.004   0.002  0.00  0.00    +0.043 C 
ATOM      3  C   UNL     1       1.317  -0.740  -0.015  0.00  0.00    +0.063 C 
ENDROOT
BRANCH   1   6
ATOM      4  C   UNL     1       1.170   3.341   0.009  0.00  0.00    +0.267 C 
ATOM      5  O   UNL     1       0.109   3.934   0.022  0.00  0.00    -0.268 OA
ATOM      6  N   UNL     1       1.188   1.993   0.001  0.00  0.00    -0.203 N 
ATOM      7  H   UNL     1       2.035   1.519  -0.009  0.00  0.00    +0.178 HD
BRANCH   4  13
ATOM      8  C   UNL     1       3.612   7.703   0.011  0.00  0.00    +0.047 C 
ATOM      9  C   UNL     1       3.620   6.196   0.001  0.00  0.00    -0.008 A 
ATOM     10  C   UNL     1       4.821   5.514  -0.014  0.00  0.00    +0.007 A 
ATOM     11  C   UNL     1       4.839   4.129  -0.022  0.00  0.00    +0.001 A 
ATOM     12  C   UNL     1       3.659   3.417  -0.015  0.00  0.00    +0.017 A 
ATOM     13  C   UNL     1       2.437   4.095   0.001  0.00  0.00    +0.080 A 
ATOM     14  C   UNL     1       2.423   5.497   0.003  0.00  0.00    +0.132 A 
BRANCH  14  15
ATOM     15  O   UNL     1       1.243   6.167   0.011  0.00  0.00    -0.506 OA
ATOM     16  H   UNL     1       0.907   6.359   0.897  0.00  0.00    +0.292 HD
ENDBRANCH  14  15
ENDBRANCH   4  13
ENDBRANCH   1   6
BRANCH   2  17
ATOM     17  C   UNL     1      -1.293  -0.775   0.010  0.00  0.00    +0.147 C 
BRANCH  17  18
ATOM     18  C   UNL     1      -1.429  -1.541  -1.280  0.00  0.00    +0.219 C 
ATOM     19  O   UNL     1      -0.561  -1.468  -2.124  0.00  0.00    -0.275 OA
ATOM     20  N   UNL     1      -2.517  -2.308  -1.497  0.00  0.00    -0.308 N 
ATOM     21  H   UNL     1      -3.211  -2.366  -0.823  0.00  0.00    +0.149 HD
BRANCH  20  22
ATOM     22  C   UNL     1      -2.649  -3.052  -2.752  0.00  0.00    +0.178 C 
BRANCH  22  23
ATOM     23  C   UNL     1      -3.944  -3.823  -2.744  0.00  0.00    +0.122 A 
ATOM     24  C   UNL     1      -5.130  -3.374  -3.191  0.00  0.00    +0.046 A 
ATOM     25  C   UNL     1      -6.064  -4.417  -2.994  0.00  0.00    +0.041 A 
ATOM     26  C   UNL     1      -5.393  -5.441  -2.438  0.00  0.00    +0.195 A 
ATOM     27  O   UNL     1      -4.108  -5.078  -2.294  0.00  0.00    -0.466 OA
ENDBRANCH  22  23
ENDBRANCH  20  22
ENDBRANCH  17  18
ENDBRANCH   2  17
TORSDOF 7
