REMARK  Name = ZINC09029068
REMARK  5 active torsions:
REMARK  status: ('A' for Active; 'I' for Inactive)
REMARK    1  A    between atoms: C_1  and  C_2
REMARK    2  A    between atoms: C_7  and  C_12
REMARK    3  A    between atoms: C_13  and  C_14
REMARK    4  A    between atoms: C_13  and  C_16
REMARK    5  A    between atoms: N_18  and  C_19
REMARK                            x       y       z     vdW  Elec       q    Type
REMARK                         _______ _______ _______ _____ _____    ______ ____
ROOT
ATOM      1  C   UNL     1      -0.013   1.076   0.008  0.00  0.00    +0.032 C 
ATOM      2  C   UNL     1       1.265   1.592  -0.009  0.00  0.00    +0.114 C 
ENDROOT
BRANCH   1   8
ATOM      3  C   UNL     1      -4.389   4.346  -3.607  0.00  0.00    +0.052 C 
ATOM      4  C   UNL     1      -3.831   5.123  -2.413  0.00  0.00    +0.175 C 
ATOM      5  C   UNL     1      -2.290   5.001  -2.352  0.00  0.00    +0.083 C 
ATOM      6  C   UNL     1      -2.107   3.811  -1.429  0.00  0.00    -0.002 A 
ATOM      7  C   UNL     1      -1.036   3.008  -1.178  0.00  0.00    +0.015 A 
ATOM      8  C   UNL     1      -1.157   1.946  -0.270  0.00  0.00    -0.023 A 
ATOM      9  C   UNL     1      -2.388   1.722   0.366  0.00  0.00    +0.011 A 
ATOM     10  C   UNL     1      -3.449   2.540   0.112  0.00  0.00    +0.046 A 
ATOM     11  C   UNL     1      -3.327   3.600  -0.790  0.00  0.00    +0.124 A 
ATOM     12  O   UNL     1      -4.248   4.523  -1.175  0.00  0.00    -0.488 OA
ENDBRANCH   1   8
BRANCH   2  13
ATOM     13  C   UNL     1       2.424   0.691   0.095  0.00  0.00    +0.255 C 
ATOM     14  O   UNL     1       2.253  -0.509   0.195  0.00  0.00    -0.269 OA
ATOM     15  N   UNL     1       3.673   1.195   0.078  0.00  0.00    -0.308 N 
ATOM     16  H   UNL     1       3.809   2.152  -0.002  0.00  0.00    +0.149 HD
BRANCH  15  17
ATOM     17  C   UNL     1       4.827   0.298   0.181  0.00  0.00    +0.073 C 
ATOM     18  C   UNL     1       5.166   0.042   1.664  0.00  0.00    +0.022 C 
ATOM     19  C   UNL     1       6.714  -0.013   1.695  0.00  0.00    +0.002 C 
ATOM     20  C   UNL     1       7.116   1.083   0.677  0.00  0.00    +0.002 C 
ATOM     21  C   UNL     1       6.066   0.959  -0.447  0.00  0.00    +0.022 C 
ENDBRANCH  15  17
ENDBRANCH   2  13
BRANCH   2  22
ATOM     22  C   UNL     1       1.465   3.005  -0.128  0.00  0.00    +0.104 C 
ATOM     23  N   UNL     1       1.624   4.126  -0.222  0.00  0.00    -0.191 NA
ENDBRANCH   2  22
TORSDOF 4
