REMARK  Name = ZINC67072930
REMARK  5 active torsions:
REMARK  status: ('A' for Active; 'I' for Inactive)
REMARK    1  A    between atoms: C_3  and  C_10
REMARK    2  A    between atoms: C_5  and  N_7
REMARK    3  A    between atoms: C_10  and  N_11
REMARK    4  A    between atoms: C_12  and  C_14
REMARK    5  A    between atoms: C_17  and  C_20
REMARK                            x       y       z     vdW  Elec       q    Type
REMARK                         _______ _______ _______ _____ _____    ______ ____
ROOT
ATOM      1  N   UNL     1       4.105   2.425   1.356  0.00  0.00    -0.308 N 
ATOM      2  C   UNL     1       5.246   3.102   1.594  0.00  0.00    +0.257 C 
ATOM      3  O   UNL     1       5.914   3.510   0.667  0.00  0.00    -0.272 OA
ATOM      4  H   UNL     1       3.571   2.099   2.097  0.00  0.00    +0.149 HD
ENDROOT
BRANCH   2   5
ATOM      5  C   UNL     1       5.692   3.353   3.012  0.00  0.00    +0.295 C 
ATOM      6  C   UNL     1       6.106   2.032   3.703  0.00  0.00    +0.117 C 
ATOM      7  C   UNL     1       7.603   1.989   3.464  0.00  0.00    +0.098 C 
ATOM      8  N   UNL     1       7.988   3.170   3.095  0.00  0.00    -0.088 NA
ATOM      9  O   UNL     1       6.924   4.101   3.041  0.00  0.00    -0.380 OA
BRANCH   7  10
ATOM     10  C   UNL     1       8.466   0.814   3.622  0.00  0.00    +0.038 A 
ATOM     11  C   UNL     1       9.832   0.702   3.428  0.00  0.00    +0.019 A 
ATOM     12  C   UNL     1      10.425  -0.519   3.643  0.00  0.00    +0.028 A 
ATOM     13  C   UNL     1       9.657  -1.571   4.036  0.00  0.00    +0.079 A 
ATOM     14  S   UNL     1       8.030  -0.843   4.123  0.00  0.00    -0.075 S 
ATOM     15 CL   UNL     1      10.139  -3.205   4.373  0.00  0.00    -0.076 Cl
ENDBRANCH   7  10
ENDBRANCH   2   5
BRANCH   1  16
ATOM     16  C   UNL     1       3.672   2.182  -0.022  0.00  0.00    +0.139 C 
BRANCH  16  19
ATOM     17  C   UNL     1      -0.017   1.378   0.010  0.00  0.00    +0.003 A 
ATOM     18  C   UNL     1       1.171   2.085   0.002  0.00  0.00    +0.005 A 
ATOM     19  C   UNL     1       2.377   1.411  -0.013  0.00  0.00    -0.028 A 
ATOM     20  C   UNL     1       2.396   0.028  -0.020  0.00  0.00    +0.038 A 
ATOM     21  C   UNL     1       1.209  -0.679  -0.012  0.00  0.00    +0.127 A 
ATOM     22  C   UNL     1       0.002  -0.004   0.002  0.00  0.00    +0.033 A 
BRANCH  21  23
ATOM     23  N   UNL     1       1.229  -2.159  -0.020  0.00  0.00    +0.056 N 
ATOM     24  O   UNL     1       2.284  -2.749  -0.035  0.00  0.00    -0.126 OA
ATOM     25  O   UNL     1       0.190  -2.778  -0.013  0.00  0.00    -0.126 OA
ENDBRANCH  21  23
ENDBRANCH  16  19
ENDBRANCH   1  16
TORSDOF 5
