REMARK  Name = ZINC28866375
REMARK  8 active torsions:
REMARK  status: ('A' for Active; 'I' for Inactive)
REMARK    1  A    between atoms: C_1  and  C_2
REMARK    2  A    between atoms: C_2  and  C_3
REMARK    3  A    between atoms: C_3  and  N_5
REMARK    4  A    between atoms: C_3  and  N_16
REMARK    5  A    between atoms: C_6  and  C_8
REMARK    6  A    between atoms: C_17  and  N_21
REMARK    7  A    between atoms: N_18  and  C_19
REMARK    8  A    between atoms: N_21  and  C_22
REMARK                            x       y       z     vdW  Elec       q    Type
REMARK                         _______ _______ _______ _____ _____    ______ ____
ROOT
ATOM      1  C   UNL     1      -0.773   2.192   1.145  0.00  0.00    +0.206 C 
ENDROOT
BRANCH   1   3
ATOM      2  C   UNL     1      -3.083   1.265   0.923  0.00  0.00    +0.049 C 
ATOM      3  C   UNL     1      -1.905   1.879   0.164  0.00  0.00    +0.152 C 
ATOM      4 CL   UNL     1      -2.438   3.401  -0.643  0.00  0.00    -0.097 Cl
ATOM      5 CL   UNL     1      -1.317   0.714  -1.080  0.00  0.00    -0.097 Cl
ENDBRANCH   1   3
BRANCH   1   6
ATOM      6  N   UNL     1      -0.340   0.956   1.801  0.00  0.00    -0.289 N 
ATOM      7  C   UNL     1       0.974   0.689   1.934  0.00  0.00    +0.246 C 
ATOM      8  O   UNL     1       1.800   1.471   1.505  0.00  0.00    -0.270 OA
ATOM      9  H   UNL     1      -1.087   0.246   2.184  0.00  0.00    +0.151 HD
BRANCH   7  10
ATOM     10  C   UNL     1       1.412  -0.559   2.595  0.00  0.00    +0.039 A 
ATOM     11  C   UNL     1       0.466  -1.456   3.094  0.00  0.00    +0.033 A 
ATOM     12  C   UNL     1       0.881  -2.623   3.705  0.00  0.00    +0.043 A 
ATOM     13  C   UNL     1       2.232  -2.897   3.835  0.00  0.00    +0.040 A 
ATOM     14  C   UNL     1       3.175  -2.008   3.349  0.00  0.00    +0.043 A 
ATOM     15  C   UNL     1       2.772  -0.841   2.730  0.00  0.00    +0.033 A 
ATOM     16 CL   UNL     1       4.866  -2.361   3.516  0.00  0.00    -0.083 Cl
ATOM     17 CL   UNL     1      -0.294  -3.744   4.319  0.00  0.00    -0.083 Cl
ENDBRANCH   7  10
ENDBRANCH   1   6
BRANCH   1  18
ATOM     18  N   UNL     1      -1.251   3.139   2.156  0.00  0.00    -0.333 N 
ATOM     19  C   UNL     1      -0.478   4.210   2.509  0.00  0.00    +0.236 C 
ATOM     20  N   UNL     1       0.730   4.351   1.993  0.00  0.00    -0.136 NA
ATOM     21  H   UNL     1      -2.232   2.989   2.630  0.00  0.00    +0.164 HD
BRANCH  20  22
ATOM     22  C   UNL     1       1.533   5.358   2.413  0.00  0.00    +0.208 C 
ATOM     23  N   UNL     1       2.206   6.202   2.766  0.00  0.00    -0.169 NA
ENDBRANCH  20  22
BRANCH  19  24
ATOM     24  N   UNL     1      -0.955   5.135   3.396  0.00  0.00    -0.211 NA
BRANCH  24  25
ATOM     25  C   UNL     1      -2.279   5.057   3.843  0.00  0.00    +0.086 A 
ATOM     26  C   UNL     1      -2.622   5.505   5.117  0.00  0.00    +0.032 A 
ATOM     27  C   UNL     1      -3.944   5.408   5.515  0.00  0.00    +0.042 A 
ATOM     28  C   UNL     1      -4.875   4.874   4.642  0.00  0.00    +0.129 A 
ATOM     29  N   UNL     1      -4.518   4.459   3.441  0.00  0.00    -0.241 NA
ATOM     30  C   UNL     1      -3.271   4.539   3.022  0.00  0.00    +0.140 A 
ATOM     31 CL   UNL     1      -6.536   4.748   5.132  0.00  0.00    -0.062 Cl
ENDBRANCH  24  25
ENDBRANCH  19  24
ENDBRANCH   1  18
TORSDOF 7
