REMARK  Name = ZINC27313908
REMARK  11 active torsions:
REMARK  status: ('A' for Active; 'I' for Inactive)
REMARK    1  A    between atoms: C_1  and  C_2
REMARK    2  A    between atoms: C_2  and  C_3
REMARK    3  A    between atoms: C_3  and  C_4
REMARK    4  A    between atoms: C_4  and  N_5
REMARK    5  A    between atoms: C_6  and  N_31
REMARK    6  A    between atoms: C_7  and  N_14
REMARK    7  A    between atoms: N_14  and  C_15
REMARK    8  A    between atoms: N_14  and  C_22
REMARK    9  A    between atoms: C_15  and  C_16
REMARK   10  A    between atoms: C_22  and  C_23
REMARK   11  A    between atoms: N_25  and  C_26
REMARK                            x       y       z     vdW  Elec       q    Type
REMARK                         _______ _______ _______ _____ _____    ______ ____
ROOT
ATOM      1  N   UNL     1      -5.120  -3.429   2.690  0.00  0.00    -0.310 N 
ENDROOT
BRANCH   1   4
ATOM      2  N   UNL     1      -3.019  -4.358  -0.172  0.00  0.00    -0.280 N 
ATOM      3  C   UNL     1      -3.517  -4.306   1.110  0.00  0.00    +0.127 A 
ATOM      4  C   UNL     1      -4.589  -3.500   1.381  0.00  0.00    +0.134 A 
ATOM      5  C   UNL     1      -5.154  -2.744   0.339  0.00  0.00    +0.277 A 
ATOM      6  O   UNL     1      -6.110  -2.017   0.557  0.00  0.00    -0.266 OA
ATOM      7  N   UNL     1      -4.633  -2.826  -0.901  0.00  0.00    -0.273 N 
ATOM      8  H   UNL     1      -5.022  -2.304  -1.621  0.00  0.00    +0.173 HD
ATOM      9  C   UNL     1      -3.576  -3.620  -1.149  0.00  0.00    +0.331 A 
ATOM     10  O   UNL     1      -3.120  -3.674  -2.275  0.00  0.00    -0.246 OA
BRANCH   3  11
ATOM     11  N   UNL     1      -2.943  -5.059   2.110  0.00  0.00    -0.343 N 
ATOM     12  H   UNL     1      -2.173  -5.616   1.916  0.00  0.00    +0.144 HD
ATOM     13  H   UNL     1      -3.308  -5.031   3.008  0.00  0.00    +0.144 HD
ENDBRANCH   3  11
BRANCH   2  14
ATOM     14  C   UNL     1      -1.871  -5.218  -0.473  0.00  0.00    +0.128 C 
BRANCH  14  15
ATOM     15  C   UNL     1      -0.576  -4.430  -0.267  0.00  0.00    +0.021 C 
BRANCH  15  17
ATOM     16  C   UNL     1       1.918  -4.540  -0.376  0.00  0.00    +0.004 C 
ATOM     17  C   UNL     1       0.622  -5.328  -0.582  0.00  0.00    -0.002 C 
ENDBRANCH  15  17
ENDBRANCH  14  15
ENDBRANCH   2  14
ENDBRANCH   1   4
BRANCH   1  18
ATOM     18  C   UNL     1      -6.478  -3.910   2.956  0.00  0.00    +0.141 C 
BRANCH  18  19
ATOM     19  C   UNL     1      -6.420  -5.338   3.436  0.00  0.00    -0.030 A 
ATOM     20  C   UNL     1      -6.385  -6.373   2.521  0.00  0.00    +0.005 A 
ATOM     21  C   UNL     1      -6.332  -7.683   2.961  0.00  0.00    +0.000 A 
ATOM     22  C   UNL     1      -6.312  -7.957   4.315  0.00  0.00    +0.000 A 
ATOM     23  C   UNL     1      -6.346  -6.921   5.230  0.00  0.00    +0.000 A 
ATOM     24  C   UNL     1      -6.395  -5.612   4.790  0.00  0.00    +0.005 A 
ENDBRANCH  18  19
ENDBRANCH   1  18
BRANCH   1  25
ATOM     25  C   UNL     1      -4.313  -2.873   3.779  0.00  0.00    +0.201 C 
BRANCH  25  26
ATOM     26  C   UNL     1      -4.655  -1.417   3.966  0.00  0.00    +0.231 C 
ATOM     27  O   UNL     1      -5.490  -0.895   3.258  0.00  0.00    -0.274 OA
ATOM     28  N   UNL     1      -4.032  -0.696   4.918  0.00  0.00    -0.311 N 
ATOM     29  H   UNL     1      -3.364  -1.113   5.484  0.00  0.00    +0.149 HD
BRANCH  28  30
ATOM     30  C   UNL     1      -4.364   0.720   5.099  0.00  0.00    +0.073 C 
ATOM     31  C   UNL     1      -5.552   0.863   6.074  0.00  0.00    +0.022 C 
ATOM     32  C   UNL     1      -4.886   1.123   7.448  0.00  0.00    +0.002 C 
ATOM     33  C   UNL     1      -3.686   2.030   7.081  0.00  0.00    +0.002 C 
ATOM     34  C   UNL     1      -3.178   1.461   5.740  0.00  0.00    +0.022 C 
ENDBRANCH  28  30
ENDBRANCH  25  26
ENDBRANCH   1  25
TORSDOF 10
