REMARK  Name = ZINC22739356
REMARK  10 active torsions:
REMARK  status: ('A' for Active; 'I' for Inactive)
REMARK    1  A    between atoms: C_1  and  C_2
REMARK    2  A    between atoms: C_2  and  C_3
REMARK    3  A    between atoms: C_2  and  C_4
REMARK    4  A    between atoms: C_2  and  C_5
REMARK    5  A    between atoms: C_8  and  C_11
REMARK    6  A    between atoms: C_14  and  S_17
REMARK    7  A    between atoms: N_15  and  N_16
REMARK    8  A    between atoms: S_17  and  C_18
REMARK    9  A    between atoms: C_18  and  C_19
REMARK   10  A    between atoms: N_24  and  C_27
REMARK                            x       y       z     vdW  Elec       q    Type
REMARK                         _______ _______ _______ _____ _____    ______ ____
ROOT
ATOM      1  C   UNL     1      -3.135   8.396   0.269  0.00  0.00    +0.182 A 
ATOM      2  N   UNL     1      -1.844   8.233   0.100  0.00  0.00    -0.127 NA
ATOM      3  N   UNL     1      -1.557   6.981   0.087  0.00  0.00    -0.121 NA
ATOM      4  C   UNL     1      -2.650   6.266   0.239  0.00  0.00    +0.209 A 
ATOM      5  N   UNL     1      -3.691   7.141   0.363  0.00  0.00    -0.224 N 
ENDROOT
BRANCH   1   9
ATOM      6  C   UNL     1      -5.206  12.098   0.484  0.00  0.00    -0.042 A 
ATOM      7  C   UNL     1      -5.815  10.941   0.936  0.00  0.00    +0.005 A 
ATOM      8  C   UNL     1      -5.148   9.736   0.869  0.00  0.00    +0.012 A 
ATOM      9  C   UNL     1      -3.856   9.685   0.344  0.00  0.00    +0.021 A 
ATOM     10  C   UNL     1      -3.246  10.856  -0.106  0.00  0.00    +0.012 A 
ATOM     11  C   UNL     1      -3.926  12.055  -0.039  0.00  0.00    +0.005 A 
BRANCH   6  13
ATOM     12  C   UNL     1      -6.285  13.719   2.019  0.00  0.00    +0.015 C 
ATOM     13  C   UNL     1      -5.941  13.412   0.560  0.00  0.00    -0.013 C 
ATOM     14  C   UNL     1      -5.054  14.525  -0.000  0.00  0.00    +0.015 C 
ATOM     15  C   UNL     1      -7.229  13.324  -0.260  0.00  0.00    +0.015 C 
ENDBRANCH   6  13
ENDBRANCH   1   9
BRANCH   5  16
ATOM     16  N   UNL     1      -5.010   6.834   0.543  0.00  0.00    -0.295 N 
ATOM     17  H   UNL     1      -5.327   5.783   0.602  0.00  0.00    +0.163 HD
ATOM     18  H   UNL     1      -5.755   7.639   0.629  0.00  0.00    +0.163 HD
ENDBRANCH   5  16
BRANCH   4  19
ATOM     19  S   UNL     1      -2.752   4.508   0.281  0.00  0.00    -0.075 S 
BRANCH  19  20
ATOM     20  C   UNL     1      -1.006   4.086   0.056  0.00  0.00    +0.173 C 
BRANCH  20  21
ATOM     21  C   UNL     1      -0.847   2.588   0.059  0.00  0.00    +0.226 C 
ATOM     22  O   UNL     1      -1.818   1.875   0.200  0.00  0.00    -0.275 OA
ATOM     23  N   UNL     1       0.375   2.040  -0.095  0.00  0.00    -0.298 N 
ATOM     24  C   UNL     1       1.565   2.886  -0.273  0.00  0.00    +0.123 C 
ATOM     25  C   UNL     1       2.634   2.440   0.731  0.00  0.00    +0.103 C 
ATOM     26  N   UNL     1       2.869   0.998   0.582  0.00  0.00    -0.295 NA
ATOM     27  C   UNL     1       1.662   0.225   0.902  0.00  0.00    +0.103 C 
ATOM     28  C   UNL     1       0.553   0.580  -0.094  0.00  0.00    +0.123 C 
BRANCH  26  29
ATOM     29  C   UNL     1       4.007   0.562   1.403  0.00  0.00    +0.079 C 
ATOM     30  C   UNL     1       5.239   1.425   1.084  0.00  0.00    +0.043 C 
ATOM     31  C   UNL     1       6.507   0.781   1.694  0.00  0.00    +0.167 C 
ATOM     32  S   UNL     1       6.080  -1.008   1.717  0.00  0.00    -0.029 S 
ATOM     33  O   UNL     1       6.051  -1.460   3.064  0.00  0.00    -0.174 OA
ATOM     34  O   UNL     1       6.890  -1.689   0.768  0.00  0.00    -0.174 OA
ATOM     35  C   UNL     1       4.354  -0.918   1.077  0.00  0.00    +0.184 C 
ENDBRANCH  26  29
ENDBRANCH  20  21
ENDBRANCH  19  20
ENDBRANCH   4  19
TORSDOF 7
