REMARK  Name = ZINC09046540
REMARK  9 active torsions:
REMARK  status: ('A' for Active; 'I' for Inactive)
REMARK    1  A    between atoms: C_1  and  C_2
REMARK    2  A    between atoms: C_13  and  O_15
REMARK    3  A    between atoms: N_21  and  O_22
REMARK    4  A    between atoms: O_22  and  C_23
REMARK    5  A    between atoms: C_23  and  C_24
REMARK    6  A    between atoms: N_26  and  CA_27
REMARK    7  A    between atoms: CA_27  and  C_29
REMARK    8  A    between atoms: CA_27  and  C_35
REMARK    9  A    between atoms: C_39  and  C_40
REMARK                            x       y       z     vdW  Elec       q    Type
REMARK                         _______ _______ _______ _____ _____    ______ ____
ROOT
ATOM      1  C   UNL     1       0.125   4.027  -3.955  0.00  0.00    +0.014 C 
ATOM      2  C   UNL     1       0.655   5.100  -3.002  0.00  0.00    -0.003 C 
ATOM      3  C   UNL     1       2.102   4.836  -2.661  0.00  0.00    +0.010 C 
ATOM      4  C   UNL     1       2.206   4.186  -1.266  0.00  0.00    +0.005 C 
ATOM      5  C   UNL     1       1.056   3.204  -1.113  0.00  0.00    +0.002 C 
ATOM      6  C   UNL     1      -0.249   3.984  -0.911  0.00  0.00    -0.003 C 
ATOM      7  C   UNL     1      -0.218   5.230  -1.739  0.00  0.00    +0.001 C 
ATOM      8  C   UNL     1      -1.553   5.716  -2.322  0.00  0.00    +0.007 C 
ATOM      9  C   UNL     1      -1.112   6.719  -3.424  0.00  0.00    +0.032 C 
ATOM     10  C   UNL     1       0.396   6.467  -3.671  0.00  0.00    +0.121 C 
ATOM     11  C   UNL     1      -1.422   3.041  -1.134  0.00  0.00    +0.008 C 
ATOM     12  C   UNL     1      -1.378   1.995  -0.006  0.00  0.00    +0.031 C 
ATOM     13  C   UNL     1      -0.016   1.324   0.009  0.00  0.00    -0.062 C 
ATOM     14  C   UNL     1       0.002  -0.004   0.002  0.00  0.00    +0.026 C 
ATOM     15  C   UNL     1       1.285  -0.727  -0.044  0.00  0.00    +0.080 C 
ATOM     16  N   UNL     1       1.377  -1.937  -0.493  0.00  0.00    -0.089 NA
ATOM     17  C   UNL     1       2.494   0.036   0.468  0.00  0.00    +0.059 C 
ATOM     18  C   UNL     1       2.504   1.383  -0.252  0.00  0.00    +0.017 C 
ATOM     19  C   UNL     1       1.229   2.175   0.002  0.00  0.00    -0.007 C 
ATOM     20  C   UNL     1       1.369   2.874   1.353  0.00  0.00    +0.016 C 
ENDROOT
BRANCH  10  21
ATOM     21  O   UNL     1       0.666   6.380  -5.068  0.00  0.00    -0.391 OA
ATOM     22  H   UNL     1       0.523   7.207  -5.548  0.00  0.00    +0.210 HD
ENDBRANCH  10  21
BRANCH  16  23
ATOM     23  O   UNL     1       0.220  -2.608  -0.960  0.00  0.00    -0.384 OA
BRANCH  23  24
ATOM     24  C   UNL     1       0.467  -3.936  -1.427  0.00  0.00    +0.358 C 
BRANCH  24  25
ATOM     25  C   UNL     1      -0.825  -4.551  -1.898  0.00  0.00    +0.254 C 
ATOM     26  O   UNL     1      -1.856  -3.915  -1.840  0.00  0.00    -0.272 OA
ATOM     27  N   UNL     1      -0.835  -5.808  -2.383  0.00  0.00    -0.296 N 
ATOM     28  H   UNL     1      -0.010  -6.317  -2.429  0.00  0.00    +0.150 HD
BRANCH  27  29
ATOM     29  CA  UNL     1      -2.091  -6.407  -2.841  0.00  0.00    +0.217 C 
BRANCH  29  30
ATOM     30  C   UNL     1      -1.795  -7.483  -3.854  0.00  0.00    -0.016 A 
ATOM     31  C   UNL     1      -0.716  -8.327  -3.670  0.00  0.00    +0.006 A 
ATOM     32  C   UNL     1      -0.448  -9.317  -4.597  0.00  0.00    +0.000 A 
ATOM     33  C   UNL     1      -1.252  -9.456  -5.713  0.00  0.00    +0.000 A 
ATOM     34  C   UNL     1      -2.328  -8.608  -5.899  0.00  0.00    +0.000 A 
ATOM     35  C   UNL     1      -2.599  -7.621  -4.970  0.00  0.00    +0.006 A 
ENDBRANCH  29  30
BRANCH  29  36
ATOM     36  C   UNL     1      -2.818  -7.009  -1.667  0.00  0.00    +0.380 C 
ATOM     37  O   UNL     1      -2.337  -6.945  -0.560  0.00  0.00    -0.244 OA
ATOM     38  OXT UNL     1      -4.001  -7.617  -1.849  0.00  0.00    -0.244 OA
ENDBRANCH  29  36
ENDBRANCH  27  29
ENDBRANCH  24  25
ENDBRANCH  23  24
ENDBRANCH  16  23
TORSDOF 7
