REMARK  Name = ZINC66363024
REMARK  8 active torsions:
REMARK  status: ('A' for Active; 'I' for Inactive)
REMARK    1  A    between atoms: C_1  and  C_2
REMARK    2  A    between atoms: C_6  and  C_25
REMARK    3  A    between atoms: C_8  and  N_11
REMARK    4  A    between atoms: N_14  and  C_15
REMARK    5  A    between atoms: C_21  and  O_23
REMARK    6  A    between atoms: O_23  and  C_24
REMARK    7  A    between atoms: C_25  and  C_26
REMARK    8  A    between atoms: C_25  and  C_27
REMARK                            x       y       z     vdW  Elec       q    Type
REMARK                         _______ _______ _______ _____ _____    ______ ____
ROOT
ATOM      1  N   UNL     1       2.763  -0.519   2.499  0.00  0.00    -0.296 N 
ATOM      2  C   UNL     1       2.509   0.086   3.676  0.00  0.00    +0.300 C 
ATOM      3  O   UNL     1       1.775   1.055   3.716  0.00  0.00    -0.253 OA
ATOM      4  N   UNL     1       3.069  -0.382   4.809  0.00  0.00    -0.296 N 
ATOM      5  H   UNL     1       3.348  -1.292   2.467  0.00  0.00    +0.151 HD
ATOM      6  H   UNL     1       3.654  -1.155   4.777  0.00  0.00    +0.151 HD
ENDROOT
BRANCH   4   7
ATOM      7  C   UNL     1       2.793   0.276   6.089  0.00  0.00    +0.077 C 
ATOM      8  C   UNL     1       3.753   1.454   6.274  0.00  0.00    +0.041 C 
ATOM      9  C   UNL     1       3.439   2.160   7.596  0.00  0.00    +0.113 C 
ATOM     10  N   UNL     1       3.481   1.171   8.682  0.00  0.00    -0.267 N 
ATOM     11  C   UNL     1       2.664  -0.044   8.563  0.00  0.00    +0.113 C 
ATOM     12  C   UNL     1       2.986  -0.726   7.229  0.00  0.00    +0.041 C 
ATOM     13  C   UNL     1       4.254   1.375   9.767  0.00  0.00    +0.403 C 
ATOM     14  O   UNL     1       4.925   2.384   9.854  0.00  0.00    -0.226 OA
BRANCH  13  15
ATOM     15  O   UNL     1       4.283   0.461  10.755  0.00  0.00    -0.454 OA
ATOM     16  C   UNL     1       5.124   0.742  11.875  0.00  0.00    +0.282 C 
ENDBRANCH  13  15
ENDBRANCH   4   7
BRANCH   1  22
ATOM     17  C   UNL     1       0.055   1.507  -0.102  0.00  0.00    +0.007 C 
ATOM     18  C   UNL     1       0.095  -0.022  -0.147  0.00  0.00    -0.012 C 
ATOM     19  C   UNL     1       0.924  -0.474  -1.351  0.00  0.00    +0.004 C 
ATOM     20  C   UNL     1       2.348   0.070  -1.222  0.00  0.00    +0.006 C 
ATOM     21  C   UNL     1       2.984  -0.462   0.064  0.00  0.00    +0.012 C 
ATOM     22  C   UNL     1       2.155  -0.009   1.267  0.00  0.00    +0.078 C 
ATOM     23  C   UNL     1       0.730  -0.554   1.139  0.00  0.00    +0.026 C 
BRANCH  21  24
ATOM     24  C   UNL     1       4.408   0.082   0.192  0.00  0.00    -0.012 C 
ATOM     25  C   UNL     1       5.276  -0.490  -0.931  0.00  0.00    +0.007 C 
ATOM     26  C   UNL     1       4.382   1.608   0.089  0.00  0.00    +0.007 C 
ENDBRANCH  21  24
ENDBRANCH   1  22
TORSDOF 4
