REMARK  Name = ZINC53263584
REMARK  4 active torsions:
REMARK  status: ('A' for Active; 'I' for Inactive)
REMARK    1  A    between atoms: C_1  and  C_2
REMARK    2  A    between atoms: N_16  and  C_17
REMARK    3  A    between atoms: C_17  and  C_18
REMARK    4  A    between atoms: C_20  and  N_28
REMARK                            x       y       z     vdW  Elec       q    Type
REMARK                         _______ _______ _______ _____ _____    ______ ____
ROOT
ATOM      1  C   UNL     1      -0.121   1.418   0.058  0.00  0.00    +0.031 C 
ATOM      2  C   UNL     1       0.007  -0.105  -0.010  0.00  0.00    +0.101 C 
ATOM      3  C   UNL     1      -1.368  -0.730  -0.021  0.00  0.00    +0.037 A 
ATOM      4  C   UNL     1      -1.690  -1.817   0.717  0.00  0.00    -0.016 A 
ATOM      5  C   UNL     1      -3.079  -2.118   0.450  0.00  0.00    +0.003 A 
ATOM      6  C   UNL     1      -3.943  -3.112   0.919  0.00  0.00    +0.010 A 
ATOM      7  C   UNL     1      -5.229  -3.094   0.439  0.00  0.00    +0.001 A 
ATOM      8  C   UNL     1      -5.663  -2.142  -0.469  0.00  0.00    +0.002 A 
ATOM      9  C   UNL     1      -4.829  -1.148  -0.951  0.00  0.00    +0.026 A 
ATOM     10  C   UNL     1      -3.518  -1.141  -0.481  0.00  0.00    +0.047 A 
ATOM     11  N   UNL     1      -2.457  -0.321  -0.742  0.00  0.00    -0.356 N 
ATOM     12  H   UNL     1      -2.473   0.437  -1.347  0.00  0.00    +0.166 HD
ATOM     13  C   UNL     1      -0.715  -2.523   1.625  0.00  0.00    +0.053 C 
ATOM     14  C   UNL     1       0.700  -2.062   1.253  0.00  0.00    +0.090 C 
ATOM     15  N   UNL     1       0.736  -0.594   1.171  0.00  0.00    -0.290 NA
ENDROOT
BRANCH  15  16
ATOM     16  C   UNL     1       2.118  -0.095   1.180  0.00  0.00    +0.124 C 
BRANCH  16  17
ATOM     17  C   UNL     1       2.711  -0.283   2.553  0.00  0.00    +0.011 A 
ATOM     18  C   UNL     1       3.637  -1.283   2.775  0.00  0.00    +0.041 A 
ATOM     19  C   UNL     1       4.181  -1.456   4.034  0.00  0.00    +0.127 A 
ATOM     20  C   UNL     1       3.797  -0.630   5.074  0.00  0.00    +0.042 A 
ATOM     21  C   UNL     1       2.869   0.372   4.858  0.00  0.00    +0.022 A 
ATOM     22  C   UNL     1       2.330   0.553   3.594  0.00  0.00    +0.133 A 
ATOM     23  O   UNL     1       1.427   1.544   3.364  0.00  0.00    -0.466 OA
ATOM     24  C   UNL     1       0.805   2.131   4.510  0.00  0.00    +0.394 C 
ATOM     25  O   UNL     1       1.819   2.437   5.475  0.00  0.00    -0.339 OA
ATOM     26  C   UNL     1       2.455   1.264   6.000  0.00  0.00    +0.202 C 
BRANCH  19  27
ATOM     27  N   UNL     1       5.174  -2.527   4.269  0.00  0.00    +0.056 N 
ATOM     28  O   UNL     1       5.510  -3.251   3.361  0.00  0.00    -0.126 OA
ATOM     29  O   UNL     1       5.650  -2.680   5.370  0.00  0.00    -0.126 OA
ENDBRANCH  19  27
ENDBRANCH  16  17
ENDBRANCH  15  16
TORSDOF 3
