REMARK  Name = ZINC13551273
REMARK  8 active torsions:
REMARK  status: ('A' for Active; 'I' for Inactive)
REMARK    1  A    between atoms: C_1  and  C_2
REMARK    2  A    between atoms: C_7  and  O_9
REMARK    3  A    between atoms: O_9  and  C_10
REMARK    4  A    between atoms: C_10  and  C_12
REMARK    5  A    between atoms: C_13  and  C_28
REMARK    6  A    between atoms: C_18  and  C_20
REMARK    7  A    between atoms: C_25  and  O_26
REMARK    8  A    between atoms: O_26  and  C_27
REMARK                            x       y       z     vdW  Elec       q    Type
REMARK                         _______ _______ _______ _____ _____    ______ ____
ROOT
ATOM      1  C   UNL     1       0.014   5.826  -1.350  0.00  0.00    +0.078 C 
ATOM      2  C   UNL     1      -0.951   6.670  -1.778  0.00  0.00    +0.019 C 
ATOM      3  N   UNL     1      -1.987   7.026  -0.964  0.00  0.00    -0.300 N 
ATOM      4  C   UNL     1      -2.133   6.580   0.290  0.00  0.00    +0.135 C 
ATOM      5  S   UNL     1      -3.482   7.106   1.203  0.00  0.00    -0.019 S 
ATOM      6  N   UNL     1      -1.253   5.732   0.857  0.00  0.00    -0.315 N 
ATOM      7  C   UNL     1      -0.096   5.287   0.062  0.00  0.00    +0.145 C 
ATOM      8  C   UNL     1      -0.880   7.229  -3.175  0.00  0.00    +0.061 C 
ATOM      9  H   UNL     1      -2.656   7.635  -1.314  0.00  0.00    +0.154 HD
ATOM     10  H   UNL     1      -1.378   5.422   1.768  0.00  0.00    +0.149 HD
ENDROOT
BRANCH   7  11
ATOM     11  C   UNL     1      -0.137   3.783  -0.017  0.00  0.00    +0.019 A 
ATOM     12  C   UNL     1      -0.583   3.163  -1.168  0.00  0.00    +0.009 A 
ATOM     13  C   UNL     1      -0.616   1.783  -1.243  0.00  0.00    +0.001 A 
ATOM     14  C   UNL     1      -0.213   1.020  -0.162  0.00  0.00    +0.004 A 
ATOM     15  C   UNL     1       0.233   1.635   0.991  0.00  0.00    +0.046 A 
ATOM     16  C   UNL     1       0.272   3.020   1.067  0.00  0.00    +0.125 A 
BRANCH  16  17
ATOM     17  O   UNL     1       0.712   3.628   2.200  0.00  0.00    -0.495 OA
ATOM     18  C   UNL     1       1.000   2.785   3.318  0.00  0.00    +0.277 C 
ENDBRANCH  16  17
ENDBRANCH   7  11
BRANCH   1  19
ATOM     19  C   UNL     1       1.088   5.457  -2.192  0.00  0.00    +0.339 C 
ATOM     20  O   UNL     1       1.099   5.812  -3.356  0.00  0.00    -0.245 OA
BRANCH  19  21
ATOM     21  O   UNL     1       2.102   4.712  -1.705  0.00  0.00    -0.458 OA
BRANCH  21  27
ATOM     22  C   UNL     1       3.322   2.040  -3.249  0.00  0.00    +0.011 C 
ATOM     23  C   UNL     1       3.835   3.096  -2.268  0.00  0.00    +0.027 C 
ATOM     24  C   UNL     1       5.356   3.321  -2.459  0.00  0.00    +0.007 C 
ATOM     25  C   UNL     1       5.565   4.746  -1.890  0.00  0.00    +0.004 C 
ATOM     26  C   UNL     1       4.307   5.520  -2.337  0.00  0.00    +0.045 C 
ATOM     27  C   UNL     1       3.208   4.471  -2.578  0.00  0.00    +0.180 C 
ENDBRANCH  21  27
ENDBRANCH  19  21
ENDBRANCH   1  19
TORSDOF 5
