REMARK  Name = ZINC44785369
REMARK  7 active torsions:
REMARK  status: ('A' for Active; 'I' for Inactive)
REMARK    1  A    between atoms: C_1  and  C_2
REMARK    2  A    between atoms: C_2  and  C_3
REMARK    3  A    between atoms: C_2  and  C_4
REMARK    4  A    between atoms: C_2  and  C_8
REMARK    5  A    between atoms: N_5  and  O_6
REMARK    6  A    between atoms: C_14  and  C_17
REMARK    7  A    between atoms: C_17  and  O_18
REMARK                            x       y       z     vdW  Elec       q    Type
REMARK                         _______ _______ _______ _____ _____    ______ ____
ROOT
ATOM      1  C   UNL     1       0.773  -0.390  -1.235  0.00  0.00    +0.228 C 
ATOM      2  O   UNL     1       0.233  -1.031  -2.111  0.00  0.00    -0.275 OA
ATOM      3  N   UNL     1       2.067  -0.034  -1.361  0.00  0.00    -0.300 N 
ATOM      4  C   UNL     1       2.711   0.817  -0.351  0.00  0.00    +0.108 C 
ATOM      5  C   UNL     1       3.983   0.121   0.142  0.00  0.00    +0.019 C 
ATOM      6  C   UNL     1       4.873  -0.214  -1.057  0.00  0.00    +0.009 C 
ATOM      7  C   UNL     1       4.131  -1.171  -1.994  0.00  0.00    +0.032 C 
ATOM      8  C   UNL     1       2.862  -0.495  -2.507  0.00  0.00    +0.113 C 
ENDROOT
BRANCH   1  10
ATOM      9  C   UNL     1       0.647  -0.618   1.231  0.00  0.00    +0.028 C 
ATOM     10  C   UNL     1      -0.002   0.008  -0.005  0.00  0.00    +0.100 C 
ATOM     11  C   UNL     1      -1.445  -0.485  -0.130  0.00  0.00    +0.028 C 
BRANCH  10  12
ATOM     12  C   UNL     1       0.006   1.509   0.129  0.00  0.00    +0.146 C 
ATOM     13  N   UNL     1       0.514   2.061   1.181  0.00  0.00    -0.076 NA
ATOM     14  N   UNL     1      -0.529   2.293  -0.870  0.00  0.00    -0.343 N 
ATOM     15  H   UNL     1      -0.911   1.878  -1.659  0.00  0.00    +0.144 HD
ATOM     16  H   UNL     1      -0.524   3.259  -0.783  0.00  0.00    +0.144 HD
BRANCH  13  17
ATOM     17  O   UNL     1       0.521   3.471   1.307  0.00  0.00    -0.408 OA
ATOM     18  H   UNL     1       0.921   3.791   2.127  0.00  0.00    +0.328 HD
ENDBRANCH  13  17
ENDBRANCH  10  12
ENDBRANCH   1  10
BRANCH   7  19
ATOM     19  C   UNL     1       5.034  -1.532  -3.175  0.00  0.00    +0.160 C 
BRANCH  19  20
ATOM     20  O   UNL     1       6.165  -2.268  -2.702  0.00  0.00    -0.395 OA
ATOM     21  H   UNL     1       6.782  -2.530  -3.399  0.00  0.00    +0.209 HD
ENDBRANCH  19  20
ENDBRANCH   7  19
TORSDOF 5
