REMARK  Name = ZINC39559026
REMARK  4 active torsions:
REMARK  status: ('A' for Active; 'I' for Inactive)
REMARK    1  A    between atoms: C_8  and  C_11
REMARK    2  A    between atoms: N_13  and  C_14
REMARK    3  A    between atoms: C_14  and  C_15
REMARK    4  A    between atoms: N_17  and  C_18
REMARK                            x       y       z     vdW  Elec       q    Type
REMARK                         _______ _______ _______ _____ _____    ______ ____
ROOT
ATOM      1  C   UNL     1      -0.753  -5.239  -0.016  0.00  0.00    +0.200 C 
ENDROOT
BRANCH   1   4
ATOM      2  C   UNL     1       0.231  -3.010  -0.009  0.00  0.00    +0.245 C 
ATOM      3  O   UNL     1      -0.892  -2.546   0.013  0.00  0.00    -0.270 OA
ATOM      4  N   UNL     1       0.408  -4.346  -0.025  0.00  0.00    -0.303 N 
ATOM      5  H   UNL     1       1.305  -4.717  -0.043  0.00  0.00    +0.150 HD
BRANCH   2  13
ATOM      6  C   UNL     1      -0.017   1.363   0.037  0.00  0.00    +0.001 A 
ATOM      7  C   UNL     1       1.153   2.123   0.025  0.00  0.00    +0.004 A 
ATOM      8  C   UNL     1       2.371   1.513  -0.001  0.00  0.00    -0.039 A 
ATOM      9  C   UNL     1       2.404   0.122  -0.014  0.00  0.00    -0.011 A 
ATOM     10  C   UNL     1       3.682  -0.428  -0.040  0.00  0.00    -0.039 A 
ATOM     11  C   UNL     1       3.811  -1.785  -0.054  0.00  0.00    +0.005 A 
ATOM     12  C   UNL     1       2.697  -2.618  -0.044  0.00  0.00    +0.014 A 
ATOM     13  C   UNL     1       1.400  -2.112  -0.019  0.00  0.00    +0.044 A 
ATOM     14  C   UNL     1       1.237  -0.661  -0.001  0.00  0.00    -0.005 A 
ATOM     15  C   UNL     1       0.001  -0.004   0.024  0.00  0.00    +0.009 A 
ATOM     16  C   UNL     1       4.664   0.720  -0.046  0.00  0.00    +0.040 C 
ATOM     17  C   UNL     1       3.799   1.998  -0.020  0.00  0.00    +0.040 C 
ENDBRANCH   2  13
ENDBRANCH   1   4
BRANCH   1  18
ATOM     18  C   UNL     1      -0.285  -6.672  -0.037  0.00  0.00    +0.234 C 
ATOM     19  O   UNL     1       0.901  -6.922  -0.058  0.00  0.00    -0.274 OA
ATOM     20  N   UNL     1      -1.186  -7.675  -0.033  0.00  0.00    -0.284 N 
ATOM     21  H   UNL     1      -2.132  -7.477   0.051  0.00  0.00    +0.155 HD
BRANCH  20  22
ATOM     22  C   UNL     1      -0.756  -9.003  -0.150  0.00  0.00    +0.036 A 
ATOM     23  C   UNL     1      -1.527  -9.923  -0.852  0.00  0.00    +0.025 A 
ATOM     24  C   UNL     1      -1.109 -11.233  -0.971  0.00  0.00    +0.029 A 
ATOM     25  C   UNL     1       0.085 -11.633  -0.390  0.00  0.00    +0.067 A 
ATOM     26  C   UNL     1       0.862 -10.712   0.316  0.00  0.00    +0.069 A 
ATOM     27  C   UNL     1       0.442  -9.396   0.428  0.00  0.00    +0.051 A 
ATOM     28  N   UNL     1       1.983 -11.399   0.775  0.00  0.00    -0.306 N 
ATOM     29  H   UNL     1       2.706 -11.019   1.299  0.00  0.00    +0.170 HD
ATOM     30  C   UNL     1       1.893 -12.679   0.369  0.00  0.00    +0.325 A 
ATOM     31  O   UNL     1       2.712 -13.548   0.604  0.00  0.00    -0.247 OA
ATOM     32  N   UNL     1       0.759 -12.853  -0.336  0.00  0.00    -0.306 N 
ATOM     33  H   UNL     1       0.462 -13.684  -0.738  0.00  0.00    +0.170 HD
ENDBRANCH  20  22
ENDBRANCH   1  18
TORSDOF 4
