REMARK  Name = ZINC44714380
REMARK  7 active torsions:
REMARK  status: ('A' for Active; 'I' for Inactive)
REMARK    1  A    between atoms: C_1  and  C_2
REMARK    2  A    between atoms: C_3  and  C_14
REMARK    3  A    between atoms: C_6  and  C_12
REMARK    4  A    between atoms: C_14  and  C_15
REMARK    5  A    between atoms: C_15  and  N_16
REMARK    6  A    between atoms: C_17  and  C_19
REMARK    7  A    between atoms: C_30  and  C_32
REMARK                            x       y       z     vdW  Elec       q    Type
REMARK                         _______ _______ _______ _____ _____    ______ ____
ROOT
ATOM      1  C   UNL     1       2.894   1.037  -5.977  0.00  0.00    +0.100 C 
ATOM      2  C   UNL     1       1.978   2.255  -6.235  0.00  0.00    +0.121 C 
ATOM      3  N   UNL     1       2.906   3.406  -6.336  0.00  0.00    -0.296 N 
ATOM      4  C   UNL     1       4.071   2.877  -7.085  0.00  0.00    +0.115 C 
ATOM      5  C   UNL     1       4.265   1.448  -6.539  0.00  0.00    -0.004 C 
ATOM      6  C   UNL     1       4.679   0.505  -7.664  0.00  0.00    -0.010 C 
ATOM      7  C   UNL     1       6.071   0.897  -8.168  0.00  0.00    -0.082 C 
ATOM      8  N   UNL     1       7.033   0.823  -7.061  0.00  0.00    +0.379 N 
ATOM      9  C   UNL     1       6.679   1.800  -6.024  0.00  0.00    -0.082 C 
ATOM     10  C   UNL     1       5.313   1.446  -5.430  0.00  0.00    -0.010 C 
ATOM     11  C   UNL     1       2.730   4.653  -5.856  0.00  0.00    +0.249 C 
ATOM     12  O   UNL     1       3.546   5.520  -6.101  0.00  0.00    -0.270 OA
ATOM     13  H   UNL     1       7.018  -0.105  -6.666  0.00  0.00    -0.086 HD
ATOM     14  H   UNL     1       7.959   1.023  -7.408  0.00  0.00    -0.086 HD
ENDROOT
BRANCH  11  15
ATOM     15  C   UNL     1       1.545   4.967  -5.031  0.00  0.00    +0.072 A 
ATOM     16  C   UNL     1       0.321   4.350  -5.299  0.00  0.00    +0.016 A 
ATOM     17  C   UNL     1      -0.781   4.646  -4.526  0.00  0.00    +0.001 A 
ATOM     18  C   UNL     1      -0.678   5.554  -3.485  0.00  0.00    +0.003 A 
ATOM     19  C   UNL     1       0.529   6.170  -3.213  0.00  0.00    +0.039 A 
ATOM     20  C   UNL     1       1.645   5.878  -3.976  0.00  0.00    +0.135 A 
ATOM     21  F   UNL     1       2.826   6.476  -3.706  0.00  0.00    -0.205 F 
ENDBRANCH  11  15
BRANCH   1  23
ATOM     22  N   UNL     1       3.243  -0.490  -4.063  0.00  0.00    -0.315 N 
ATOM     23  C   UNL     1       2.994   0.761  -4.499  0.00  0.00    +0.218 C 
ATOM     24  O   UNL     1       2.851   1.663  -3.702  0.00  0.00    -0.275 OA
ATOM     25  H   UNL     1       3.358  -1.212  -4.700  0.00  0.00    +0.149 HD
BRANCH  22  26
ATOM     26  C   UNL     1       3.341  -0.759  -2.626  0.00  0.00    +0.109 C 
BRANCH  26  27
ATOM     27  C   UNL     1       3.627  -2.246  -2.404  0.00  0.00    +0.056 C 
BRANCH  27  30
ATOM     28  C   UNL     1       1.285  -3.043  -0.529  0.00  0.00    +0.063 C 
ATOM     29  C   UNL     1       2.721  -2.868  -0.107  0.00  0.00    +0.017 A 
ATOM     30  C   UNL     1       3.727  -2.522  -0.926  0.00  0.00    -0.018 A 
ATOM     31  C   UNL     1       4.942  -2.466  -0.108  0.00  0.00    +0.004 A 
ATOM     32  C   UNL     1       6.277  -2.170  -0.378  0.00  0.00    +0.029 A 
ATOM     33  C   UNL     1       7.207  -2.208   0.656  0.00  0.00    +0.052 A 
ATOM     34  C   UNL     1       6.800  -2.542   1.956  0.00  0.00    +0.021 A 
ATOM     35  C   UNL     1       5.495  -2.832   2.222  0.00  0.00    +0.027 A 
ATOM     36  C   UNL     1       4.546  -2.800   1.202  0.00  0.00    +0.047 A 
ATOM     37  N   UNL     1       3.191  -3.032   1.167  0.00  0.00    -0.358 N 
ATOM     38  H   UNL     1       2.649  -3.278   1.933  0.00  0.00    +0.166 HD
BRANCH  33  39
ATOM     39  C   UNL     1       8.582  -1.907   0.393  0.00  0.00    +0.099 C 
ATOM     40  N   UNL     1       9.673  -1.669   0.183  0.00  0.00    -0.191 NA
ENDBRANCH  33  39
ENDBRANCH  27  30
ENDBRANCH  26  27
ENDBRANCH  22  26
ENDBRANCH   1  23
TORSDOF 6
