REMARK  Name = ZINC39685463
REMARK  7 active torsions:
REMARK  status: ('A' for Active; 'I' for Inactive)
REMARK    1  A    between atoms: C_5  and  C_7
REMARK    2  A    between atoms: C_10  and  C_12
REMARK    3  A    between atoms: C_16  and  C_25
REMARK    4  A    between atoms: N_27  and  C_28
REMARK    5  A    between atoms: C_28  and  C_29
REMARK    6  A    between atoms: C_29  and  O_30
REMARK    7  A    between atoms: O_30  and  C_31
REMARK                            x       y       z     vdW  Elec       q    Type
REMARK                         _______ _______ _______ _____ _____    ______ ____
ROOT
ATOM      1  C   UNL     1       2.357  -5.514  -1.356  0.00  0.00    +0.282 C 
ATOM      2  O   UNL     1       2.143  -6.657  -0.995  0.00  0.00    -0.267 OA
ATOM      3  N   UNL     1       3.229  -5.274  -2.355  0.00  0.00    -0.294 N 
ATOM      4  C   UNL     1       3.621  -3.963  -2.923  0.00  0.00    +0.121 C 
ATOM      5  C   UNL     1       5.138  -4.089  -3.184  0.00  0.00    +0.100 C 
ATOM      6  C   UNL     1       5.389  -5.600  -3.323  0.00  0.00    -0.004 C 
ATOM      7  C   UNL     1       4.018  -6.262  -3.129  0.00  0.00    +0.115 C 
ATOM      8  C   UNL     1       6.356  -6.077  -2.244  0.00  0.00    -0.010 C 
ATOM      9  C   UNL     1       6.634  -7.570  -2.437  0.00  0.00    -0.082 C 
ATOM     10  N   UNL     1       7.207  -7.794  -3.770  0.00  0.00    +0.379 N 
ATOM     11  C   UNL     1       6.235  -7.419  -4.803  0.00  0.00    -0.082 C 
ATOM     12  C   UNL     1       5.940  -5.919  -4.710  0.00  0.00    -0.010 C 
ATOM     13  H   UNL     1       8.040  -7.234  -3.874  0.00  0.00    -0.086 HD
ATOM     14  H   UNL     1       7.446  -8.769  -3.872  0.00  0.00    -0.086 HD
ENDROOT
BRANCH   1  18
ATOM     15  C   UNL     1       1.020  -2.360  -0.202  0.00  0.00    +0.139 A 
ATOM     16  C   UNL     1       0.349  -3.202   0.637  0.00  0.00    +0.051 A 
ATOM     17  C   UNL     1       0.754  -4.503   0.325  0.00  0.00    +0.055 A 
ATOM     18  C   UNL     1       1.665  -4.400  -0.704  0.00  0.00    +0.190 A 
ATOM     19  O   UNL     1       1.806  -3.092  -1.009  0.00  0.00    -0.450 OA
BRANCH  15  24
ATOM     20  C   UNL     1      -0.471   1.085  -0.287  0.00  0.00    +0.001 A 
ATOM     21  C   UNL     1       0.667   1.873  -0.267  0.00  0.00    +0.003 A 
ATOM     22  C   UNL     1       1.920   1.289  -0.225  0.00  0.00    +0.039 A 
ATOM     23  C   UNL     1       2.044  -0.087  -0.204  0.00  0.00    +0.134 A 
ATOM     24  C   UNL     1       0.897  -0.888  -0.224  0.00  0.00    +0.052 A 
ATOM     25  C   UNL     1      -0.364  -0.290  -0.266  0.00  0.00    +0.014 A 
ATOM     26  F   UNL     1       3.268  -0.657  -0.164  0.00  0.00    -0.205 F 
ENDBRANCH  15  24
ENDBRANCH   1  18
BRANCH   5  27
ATOM     27  C   UNL     1       5.513  -3.373  -4.457  0.00  0.00    +0.218 C 
ATOM     28  O   UNL     1       4.715  -3.297  -5.367  0.00  0.00    -0.275 OA
ATOM     29  N   UNL     1       6.735  -2.818  -4.583  0.00  0.00    -0.312 N 
ATOM     30  H   UNL     1       7.373  -2.879  -3.855  0.00  0.00    +0.149 HD
BRANCH  29  31
ATOM     31  C   UNL     1       7.099  -2.123  -5.820  0.00  0.00    +0.145 C 
BRANCH  31  32
ATOM     32  C   UNL     1       8.529  -1.590  -5.703  0.00  0.00    +0.247 C 
BRANCH  32  33
ATOM     33  O   UNL     1       9.439  -2.687  -5.604  0.00  0.00    -0.490 OA
BRANCH  33  34
ATOM     34  C   UNL     1      10.759  -2.385  -5.494  0.00  0.00    +0.123 A 
ATOM     35  C   UNL     1      11.170  -1.060  -5.475  0.00  0.00    +0.046 A 
ATOM     36  C   UNL     1      12.512  -0.754  -5.362  0.00  0.00    +0.006 A 
ATOM     37  C   UNL     1      13.448  -1.767  -5.268  0.00  0.00    +0.038 A 
ATOM     38  C   UNL     1      13.042  -3.091  -5.287  0.00  0.00    +0.127 A 
ATOM     39  C   UNL     1      11.698  -3.401  -5.394  0.00  0.00    +0.084 A 
ATOM     40  F   UNL     1      13.959  -4.079  -5.196  0.00  0.00    -0.205 F 
ENDBRANCH  33  34
ENDBRANCH  32  33
ENDBRANCH  31  32
ENDBRANCH  29  31
ENDBRANCH   5  27
TORSDOF 7
