REMARK  Name = ZINC61856830
REMARK  3 active torsions:
REMARK  status: ('A' for Active; 'I' for Inactive)
REMARK    1  A    between atoms: C_6  and  O_7
REMARK    2  A    between atoms: O_7  and  C_8
REMARK    3  A    between atoms: C_11  and  C_15
REMARK                            x       y       z     vdW  Elec       q    Type
REMARK                         _______ _______ _______ _____ _____    ______ ____
ROOT
ATOM      1  C   UNL     1      -1.291  -2.057   0.019  0.00  0.00    +0.130 A 
ATOM      2  C   UNL     1      -0.091  -2.756   0.090  0.00  0.00    +0.047 A 
ATOM      3  C   UNL     1      -0.089  -4.132   0.033  0.00  0.00    +0.016 A 
ATOM      4  C   UNL     1      -1.294  -4.827  -0.096  0.00  0.00    +0.031 A 
ATOM      5  C   UNL     1      -2.499  -4.121  -0.167  0.00  0.00    +0.055 A 
ATOM      6  C   UNL     1      -2.493  -2.743  -0.104  0.00  0.00    +0.067 A 
ATOM      7 CL   UNL     1      -4.000  -4.978  -0.329  0.00  0.00    -0.083 Cl
ENDROOT
BRANCH   4   8
ATOM      8  C   UNL     1      -1.295  -6.302  -0.158  0.00  0.00    +0.096 C 
ATOM      9  N   UNL     1      -1.847  -6.925  -1.200  0.00  0.00    -0.387 N 
ATOM     10  N   UNL     1      -0.745  -7.011   0.827  0.00  0.00    -0.345 N 
ATOM     11  H   UNL     1      -1.805  -7.891  -1.265  0.00  0.00    +0.157 HD
ATOM     12  H   UNL     1      -0.344  -6.558   1.585  0.00  0.00    +0.144 HD
ATOM     13  H   UNL     1      -0.746  -7.980   0.786  0.00  0.00    +0.144 HD
ATOM     14  H   UNL     1      -2.289  -6.411  -1.893  0.00  0.00    +0.157 HD
ENDBRANCH   4   8
BRANCH   1  15
ATOM     15  O   UNL     1      -1.289  -0.701   0.076  0.00  0.00    -0.456 OA
BRANCH  15  21
ATOM     16  C   UNL     1      -1.099  -0.699  -2.295  0.00  0.00    +0.047 A 
ATOM     17  C   UNL     1      -0.994   0.002  -3.481  0.00  0.00    +0.019 A 
ATOM     18  C   UNL     1      -0.973   1.385  -3.469  0.00  0.00    +0.018 A 
ATOM     19  C   UNL     1      -1.059   2.070  -2.270  0.00  0.00    +0.019 A 
ATOM     20  C   UNL     1      -1.164   1.373  -1.082  0.00  0.00    +0.047 A 
ATOM     21  C   UNL     1      -1.185  -0.014  -1.091  0.00  0.00    +0.129 A 
ATOM     22 BR   UNL     1      -0.828   2.341  -5.094  0.00  0.00    -0.050 Br
ENDBRANCH  15  21
ENDBRANCH   1  15
TORSDOF 3
