REMARK  Name = ZINC48560146
REMARK  7 active torsions:
REMARK  status: ('A' for Active; 'I' for Inactive)
REMARK    1  A    between atoms: C_1  and  C_2
REMARK    2  A    between atoms: C_2  and  C_4
REMARK    3  A    between atoms: C_2  and  N_11
REMARK    4  A    between atoms: C_4  and  C_5
REMARK    5  A    between atoms: C_5  and  C_6
REMARK    6  A    between atoms: N_14  and  C_15
REMARK    7  A    between atoms: C_18  and  N_22
REMARK                            x       y       z     vdW  Elec       q    Type
REMARK                         _______ _______ _______ _____ _____    ______ ____
ROOT
ATOM      1  N   UNL     1      -1.370  -0.517   0.012  0.00  0.00    -0.297 N 
ATOM      2  C   UNL     1      -2.051  -0.641  -1.144  0.00  0.00    +0.304 C 
ATOM      3  O   UNL     1      -1.526  -0.331  -2.196  0.00  0.00    -0.253 OA
ATOM      4  N   UNL     1      -3.315  -1.109  -1.135  0.00  0.00    -0.269 N 
ATOM      5  H   UNL     1      -1.790  -0.764   0.851  0.00  0.00    +0.151 HD
ATOM      6  H   UNL     1      -3.711  -1.420  -0.306  0.00  0.00    +0.156 HD
ENDROOT
BRANCH   4   7
ATOM      7  C   UNL     1      -4.057  -1.148  -2.324  0.00  0.00    +0.036 A 
ATOM      8  C   UNL     1      -5.424  -0.903  -2.297  0.00  0.00    +0.025 A 
ATOM      9  C   UNL     1      -6.155  -0.941  -3.468  0.00  0.00    +0.026 A 
ATOM     10  C   UNL     1      -5.525  -1.224  -4.672  0.00  0.00    +0.049 A 
ATOM     11  C   UNL     1      -4.157  -1.469  -4.699  0.00  0.00    +0.064 A 
ATOM     12  C   UNL     1      -3.425  -1.425  -3.528  0.00  0.00    +0.045 A 
ATOM     13 CL   UNL     1      -3.368  -1.824  -6.204  0.00  0.00    -0.082 Cl
BRANCH  10  14
ATOM     14  N   UNL     1      -6.266  -1.264  -5.859  0.00  0.00    -0.318 N 
ATOM     15  C   UNL     1      -6.893  -2.510  -6.329  0.00  0.00    +0.124 C 
ATOM     16  C   UNL     1      -8.407  -2.293  -6.382  0.00  0.00    +0.123 C 
ATOM     17  N   UNL     1      -8.725  -1.030  -7.034  0.00  0.00    -0.313 N 
ATOM     18  C   UNL     1      -7.883  -0.003  -7.145  0.00  0.00    +0.230 C 
ATOM     19  O   UNL     1      -8.289   1.028  -7.640  0.00  0.00    -0.274 OA
ATOM     20  C   UNL     1      -6.457  -0.061  -6.683  0.00  0.00    +0.200 C 
ATOM     21  H   UNL     1      -9.612  -0.930  -7.413  0.00  0.00    +0.149 HD
ENDBRANCH  10  14
ENDBRANCH   4   7
BRANCH   1  23
ATOM     22  C   UNL     1      -0.019   1.522   0.021  0.00  0.00    +0.028 C 
ATOM     23  C   UNL     1       0.003  -0.008   0.002  0.00  0.00    +0.072 C 
BRANCH  23  24
ATOM     24  C   UNL     1       0.747  -0.522   1.236  0.00  0.00    +0.030 C 
BRANCH  24  25
ATOM     25  C   UNL     1       0.879  -2.045   1.154  0.00  0.00    +0.076 C 
BRANCH  25  26
ATOM     26  C   UNL     1       1.611  -2.551   2.370  0.00  0.00    +0.105 A 
ATOM     27  C   UNL     1       1.043  -2.932   3.529  0.00  0.00    +0.044 A 
ATOM     28  C   UNL     1       2.093  -3.333   4.387  0.00  0.00    +0.041 A 
ATOM     29  C   UNL     1       3.239  -3.174   3.701  0.00  0.00    +0.195 A 
ATOM     30  O   UNL     1       2.941  -2.706   2.478  0.00  0.00    -0.468 OA
ENDBRANCH  25  26
ENDBRANCH  24  25
ENDBRANCH  23  24
ENDBRANCH   1  23
TORSDOF 6
