REMARK  Name = ZINC44699342
REMARK  8 active torsions:
REMARK  status: ('A' for Active; 'I' for Inactive)
REMARK    1  A    between atoms: C_1  and  C_2
REMARK    2  A    between atoms: C_4  and  O_32
REMARK    3  A    between atoms: C_13  and  O_21
REMARK    4  A    between atoms: C_15  and  C_16
REMARK    5  A    between atoms: C_15  and  O_20
REMARK    6  A    between atoms: C_16  and  C_18
REMARK    7  A    between atoms: C_18  and  O_19
REMARK    8  A    between atoms: C_30  and  C_31
REMARK                            x       y       z     vdW  Elec       q    Type
REMARK                         _______ _______ _______ _____ _____    ______ ____
ROOT
ATOM      1  C   UNL     1      -0.019   1.526   0.010  0.00  0.00    +0.015 C 
ATOM      2  C   UNL     1       0.002  -0.004   0.002  0.00  0.00    +0.012 C 
ATOM      3  C   UNL     1       0.647  -0.500  -1.277  0.00  0.00    +0.042 C 
ATOM      4  C   UNL     1       2.035   0.156  -1.375  0.00  0.00    +0.120 C 
ATOM      5  C   UNL     1       2.889  -0.176  -0.151  0.00  0.00    +0.035 C 
ATOM      6  C   UNL     1       2.166   0.212   1.145  0.00  0.00    -0.000 C 
ATOM      7  C   UNL     1       0.859  -0.523   1.189  0.00  0.00    +0.004 C 
ATOM      8  C   UNL     1      -0.051  -0.220   2.383  0.00  0.00    +0.039 C 
ATOM      9  C   UNL     1      -1.456  -0.628   1.861  0.00  0.00    +0.154 C 
ATOM     10  C   UNL     1      -1.391  -0.539   0.316  0.00  0.00    +0.157 C 
ATOM     11  C   UNL     1       3.058  -0.171   2.331  0.00  0.00    +0.008 C 
ATOM     12  C   UNL     1       3.026  -1.694   2.469  0.00  0.00    +0.032 C 
ATOM     13  C   UNL     1       3.319  -2.337   1.144  0.00  0.00    -0.056 C 
ATOM     14  C   UNL     1       3.608  -3.659   1.126  0.00  0.00    +0.051 C 
ATOM     15  C   UNL     1       3.836  -4.230  -0.230  0.00  0.00    +0.179 C 
ATOM     16  O   UNL     1       4.721  -5.032  -0.463  0.00  0.00    -0.288 OA
ATOM     17  C   UNL     1       2.897  -3.745  -1.278  0.00  0.00    +0.047 C 
ATOM     18  C   UNL     1       2.620  -2.424  -1.231  0.00  0.00    -0.012 C 
ATOM     19  C   UNL     1       3.274  -1.629  -0.157  0.00  0.00    +0.013 C 
ATOM     20  C   UNL     1       4.739  -1.639  -0.600  0.00  0.00    +0.020 C 
ENDROOT
BRANCH  10  21
ATOM     21  C   UNL     1      -1.575  -1.905  -0.294  0.00  0.00    +0.193 C 
ATOM     22  O   UNL     1      -0.625  -2.637  -0.435  0.00  0.00    -0.292 OA
BRANCH  21  23
ATOM     23  C   UNL     1      -2.945  -2.358  -0.728  0.00  0.00    +0.233 C 
BRANCH  23  24
ATOM     24  O   UNL     1      -2.861  -3.677  -1.271  0.00  0.00    -0.387 OA
ATOM     25  H   UNL     1      -3.709  -4.033  -1.572  0.00  0.00    +0.210 HD
ENDBRANCH  23  24
ENDBRANCH  21  23
ENDBRANCH  10  21
BRANCH  10  26
ATOM     26  O   UNL     1      -2.388   0.360  -0.171  0.00  0.00    -0.378 OA
ATOM     27  H   UNL     1      -3.295   0.072  -0.000  0.00  0.00    +0.211 HD
ENDBRANCH  10  26
BRANCH   9  28
ATOM     28  O   UNL     1      -1.760  -1.965   2.264  0.00  0.00    -0.388 OA
ATOM     29  H   UNL     1      -1.791  -2.090   3.223  0.00  0.00    +0.210 HD
ENDBRANCH   9  28
BRANCH   4  30
ATOM     30  O   UNL     1       1.879   1.573  -1.467  0.00  0.00    -0.391 OA
ATOM     31  H   UNL     1       1.367   1.864  -2.234  0.00  0.00    +0.210 HD
ENDBRANCH   4  30
TORSDOF 6
