REMARK  Name = ZINC13981182
REMARK  13 active torsions:
REMARK  status: ('A' for Active; 'I' for Inactive)
REMARK    1  A    between atoms: C_1  and  C_2
REMARK    2  A    between atoms: C_2  and  C_3
REMARK    3  A    between atoms: C_2  and  C_4
REMARK    4  A    between atoms: C_7  and  O_10
REMARK    5  A    between atoms: O_10  and  C_11
REMARK    6  A    between atoms: C_11  and  C_12
REMARK    7  A    between atoms: N_14  and  N_15
REMARK    8  A    between atoms: N_15  and  C_16
REMARK    9  A    between atoms: C_16  and  N_18
REMARK   10  A    between atoms: C_19  and  C_21
REMARK   11  A    between atoms: C_22  and  C_23
REMARK   12  A    between atoms: C_26  and  O_29
REMARK   13  A    between atoms: O_29  and  C_30
REMARK                            x       y       z     vdW  Elec       q    Type
REMARK                         _______ _______ _______ _____ _____    ______ ____
ROOT
ATOM      1  N   UNL     1       3.070   7.820   0.013  0.00  0.00    -0.245 N 
ATOM      2  H   UNL     1       2.170   8.180   0.024  0.00  0.00    +0.172 HD
ENDROOT
BRANCH   1   5
ATOM      3  C   UNL     1       2.211   5.600   0.010  0.00  0.00    +0.267 C 
ATOM      4  O   UNL     1       1.085   6.051   0.023  0.00  0.00    -0.271 OA
ATOM      5  N   UNL     1       3.270   6.433   0.004  0.00  0.00    -0.232 N 
ATOM      6  H   UNL     1       4.171   6.073  -0.006  0.00  0.00    +0.173 HD
BRANCH   3   7
ATOM      7  C   UNL     1       2.426   4.108   0.001  0.00  0.00    +0.326 C 
BRANCH   7   8
ATOM      8  O   UNL     1       1.160   3.445   0.009  0.00  0.00    -0.483 OA
BRANCH   8  12
ATOM      9  C   UNL     1       1.208  -0.680  -0.013  0.00  0.00    -0.045 A 
ATOM     10  C   UNL     1       0.002  -0.004   0.002  0.00  0.00    +0.007 A 
ATOM     11  C   UNL     1      -0.017   1.377   0.010  0.00  0.00    +0.046 A 
ATOM     12  C   UNL     1       1.176   2.086   0.002  0.00  0.00    +0.121 A 
ATOM     13  C   UNL     1       2.385   1.405  -0.013  0.00  0.00    +0.046 A 
ATOM     14  C   UNL     1       2.398   0.024  -0.021  0.00  0.00    +0.007 A 
BRANCH   9  16
ATOM     15  C   UNL     1       1.940  -2.682  -1.280  0.00  0.00    +0.012 C 
ATOM     16  C   UNL     1       1.226  -2.187  -0.021  0.00  0.00    +0.013 C 
ATOM     17  C   UNL     1       1.965  -2.695   1.219  0.00  0.00    +0.012 C 
ENDBRANCH   9  16
ENDBRANCH   8  12
ENDBRANCH   7   8
ENDBRANCH   3   7
ENDBRANCH   1   5
BRANCH   1  18
ATOM     18  C   UNL     1       4.130   8.653   0.007  0.00  0.00    +0.153 C 
ATOM     19  S   UNL     1       3.886  10.348   0.018  0.00  0.00    -0.017 S 
BRANCH  18  20
ATOM     20  N   UNL     1       5.381   8.153  -0.007  0.00  0.00    -0.263 N 
ATOM     21  C   UNL     1       6.440   8.986  -0.012  0.00  0.00    +0.242 C 
ATOM     22  O   UNL     1       6.267  10.191  -0.005  0.00  0.00    -0.270 OA
ATOM     23  H   UNL     1       5.519   7.193  -0.013  0.00  0.00    +0.157 HD
BRANCH  21  24
ATOM     24  C   UNL     1       7.797   8.444  -0.028  0.00  0.00    +0.068 C 
ATOM     25  C   UNL     1       8.858   9.279  -0.034  0.00  0.00    +0.013 C 
BRANCH  25  26
ATOM     26  C   UNL     1      10.223   8.733  -0.049  0.00  0.00    -0.025 A 
ATOM     27  C   UNL     1      10.425   7.348  -0.052  0.00  0.00    +0.011 A 
ATOM     28  C   UNL     1      11.705   6.842  -0.073  0.00  0.00    +0.046 A 
ATOM     29  C   UNL     1      12.796   7.704  -0.079  0.00  0.00    +0.120 A 
ATOM     30  C   UNL     1      12.600   9.080  -0.070  0.00  0.00    +0.046 A 
ATOM     31  C   UNL     1      11.325   9.596  -0.055  0.00  0.00    +0.011 A 
BRANCH  29  32
ATOM     32  O   UNL     1      14.056   7.199  -0.093  0.00  0.00    -0.495 OA
ATOM     33  C   UNL     1      14.185   5.776  -0.102  0.00  0.00    +0.277 C 
ENDBRANCH  29  32
ENDBRANCH  25  26
ENDBRANCH  21  24
ENDBRANCH  18  20
ENDBRANCH   1  18
TORSDOF 10
