REMARK  Name = ZINC39030132
REMARK  1 active torsions:
REMARK  status: ('A' for Active; 'I' for Inactive)
REMARK    1  A    between atoms: C_10  and  C_11
REMARK                            x       y       z     vdW  Elec       q    Type
REMARK                         _______ _______ _______ _____ _____    ______ ____
ROOT
ATOM      1  C   UNL     1       4.960   0.161  -0.046  0.00  0.00    +0.074 C 
ATOM      2  C   UNL     1       5.824  -0.288  -1.234  0.00  0.00    +0.152 C 
ATOM      3  C   UNL     1       6.457  -1.617  -0.904  0.00  0.00    +0.116 C 
ATOM      4  N   UNL     1       6.267  -2.671  -1.643  0.00  0.00    -0.205 NA
ATOM      5  C   UNL     1       5.490  -2.650  -2.732  0.00  0.00    +0.206 C 
ATOM      6  N   UNL     1       4.858  -1.553  -3.121  0.00  0.00    -0.147 NA
ATOM      7  C   UNL     1       4.967  -0.415  -2.460  0.00  0.00    +0.250 C 
ATOM      8  O   UNL     1       4.356   0.557  -2.860  0.00  0.00    -0.273 OA
ATOM      9  N   UNL     1       5.343  -3.795  -3.465  0.00  0.00    -0.329 N 
ATOM     10  N   UNL     1       7.244  -1.690   0.219  0.00  0.00    -0.301 N 
ATOM     11  C   UNL     1       6.779  -0.979   1.314  0.00  0.00    +0.048 C 
ATOM     12  C   UNL     1       5.724  -0.109   1.230  0.00  0.00    +0.030 C 
ATOM     13  C   UNL     1       5.485   0.471   2.500  0.00  0.00    +0.192 C 
ATOM     14  O   UNL     1       4.623   1.286   2.767  0.00  0.00    -0.287 OA
ATOM     15  C   UNL     1       6.474  -0.097   3.442  0.00  0.00    +0.031 A 
ATOM     16  C   UNL     1       7.276  -1.000   2.695  0.00  0.00    +0.007 A 
ATOM     17  C   UNL     1       8.306  -1.704   3.296  0.00  0.00    +0.010 A 
ATOM     18  C   UNL     1       8.512  -1.483   4.661  0.00  0.00    +0.001 A 
ATOM     19  C   UNL     1       7.734  -0.609   5.383  0.00  0.00    +0.001 A 
ATOM     20  C   UNL     1       6.689   0.114   4.790  0.00  0.00    +0.012 A 
ATOM     21  H   UNL     1       5.800  -4.607  -3.193  0.00  0.00    +0.145 HD
ATOM     22  H   UNL     1       4.783  -3.796  -4.257  0.00  0.00    +0.145 HD
ATOM     23  H   UNL     1       8.067  -2.204   0.244  0.00  0.00    +0.153 HD
ENDROOT
BRANCH   1  33
ATOM     24  C   UNL     1       0.009   1.307  -0.654  0.00  0.00    +0.001 A 
ATOM     25  C   UNL     1       1.194   2.041  -0.665  0.00  0.00    +0.001 A 
ATOM     26  C   UNL     1       2.396   1.434  -0.466  0.00  0.00    +0.009 A 
ATOM     27  C   UNL     1       2.446   0.047  -0.246  0.00  0.00    -0.014 A 
ATOM     28  C   UNL     1       1.241  -0.699  -0.234  0.00  0.00    -0.018 A 
ATOM     29  C   UNL     1       0.019  -0.038  -0.444  0.00  0.00    +0.008 A 
ATOM     30  C   UNL     1       1.292  -2.086  -0.014  0.00  0.00    +0.008 A 
ATOM     31  C   UNL     1       2.494  -2.693   0.185  0.00  0.00    +0.001 A 
ATOM     32  C   UNL     1       3.678  -1.959   0.174  0.00  0.00    +0.005 A 
ATOM     33  C   UNL     1       3.668  -0.615  -0.037  0.00  0.00    -0.031 A 
ENDBRANCH   1  33
TORSDOF 1
