REMARK  Name = ZINC35134975
REMARK  5 active torsions:
REMARK  status: ('A' for Active; 'I' for Inactive)
REMARK    1  A    between atoms: C_1  and  C_2
REMARK    2  A    between atoms: C_2  and  C_4
REMARK    3  A    between atoms: C_2  and  N_9
REMARK    4  A    between atoms: N_9  and  C_10
REMARK    5  A    between atoms: C_13  and  N_20
REMARK                            x       y       z     vdW  Elec       q    Type
REMARK                         _______ _______ _______ _____ _____    ______ ____
ROOT
ATOM      1  C   UNL     1       2.075  -0.591  -1.215  0.00  0.00    +0.037 A 
ATOM      2  C   UNL     1       2.811  -0.266  -0.094  0.00  0.00    +0.026 A 
ATOM      3  C   UNL     1       4.197  -0.378  -0.099  0.00  0.00    +0.037 A 
ATOM      4  C   UNL     1       4.865  -0.809  -1.205  0.00  0.00    +0.152 A 
ATOM      5  C   UNL     1       4.155  -1.149  -2.368  0.00  0.00    +0.103 A 
ATOM      6  C   UNL     1       2.742  -1.045  -2.372  0.00  0.00    +0.023 A 
ATOM      7  C   UNL     1       2.035  -1.392  -3.536  0.00  0.00    +0.013 A 
ATOM      8  C   UNL     1       2.748  -1.824  -4.619  0.00  0.00    +0.020 A 
ATOM      9  C   UNL     1       4.136  -1.910  -4.548  0.00  0.00    +0.111 A 
ATOM     10  N   UNL     1       4.793  -1.574  -3.465  0.00  0.00    -0.253 NA
ENDROOT
BRANCH   4  11
ATOM     11  N   UNL     1       6.341  -0.918  -1.181  0.00  0.00    +0.059 N 
ATOM     12  O   UNL     1       6.953  -0.624  -0.180  0.00  0.00    -0.126 OA
ATOM     13  O   UNL     1       6.935  -1.300  -2.162  0.00  0.00    -0.126 OA
ENDBRANCH   4  11
BRANCH   1  14
ATOM     14  N   UNL     1       0.688  -0.476  -1.203  0.00  0.00    -0.336 N 
ATOM     15  H   UNL     1       0.175  -0.710  -1.993  0.00  0.00    +0.147 HD
BRANCH  14  17
ATOM     16  C   UNL     1      -0.019   1.526   0.010  0.00  0.00    +0.033 C 
ATOM     17  C   UNL     1       0.002  -0.004   0.002  0.00  0.00    +0.104 C 
BRANCH  17  18
ATOM     18  C   UNL     1      -1.412  -0.526   0.013  0.00  0.00    +0.010 A 
ATOM     19  C   UNL     1      -2.141  -0.993   1.055  0.00  0.00    +0.013 A 
ATOM     20  C   UNL     1      -3.435  -1.424   0.828  0.00  0.00    +0.008 A 
ATOM     21  C   UNL     1      -3.936  -1.367  -0.430  0.00  0.00    +0.045 A 
ATOM     22  S   UNL     1      -2.563  -0.681  -1.343  0.00  0.00    -0.100 S 
ENDBRANCH  17  18
ENDBRANCH  14  17
ENDBRANCH   1  14
TORSDOF 4
