REMARK  Name = ZINC11592557
REMARK  7 active torsions:
REMARK  status: ('A' for Active; 'I' for Inactive)
REMARK    1  A    between atoms: C_1  and  C_2
REMARK    2  A    between atoms: C_15  and  O_30
REMARK    3  A    between atoms: C_18  and  C_29
REMARK    4  A    between atoms: C_23  and  C_24
REMARK    5  A    between atoms: C_23  and  O_28
REMARK    6  A    between atoms: C_24  and  C_26
REMARK    7  A    between atoms: C_26  and  O_27
REMARK                            x       y       z     vdW  Elec       q    Type
REMARK                         _______ _______ _______ _____ _____    ______ ____
ROOT
ATOM      1  C   UNL     1      -4.311   3.214  -1.957  0.00  0.00    +0.016 C 
ATOM      2  C   UNL     1      -3.300   4.079  -1.202  0.00  0.00    -0.005 C 
ATOM      3  C   UNL     1      -4.017   5.323  -0.659  0.00  0.00    +0.019 C 
ATOM      4  C   UNL     1      -4.678   6.101  -1.794  0.00  0.00    +0.080 C 
ATOM      5  C   UNL     1      -3.691   6.350  -2.904  0.00  0.00    +0.156 C 
ATOM      6  O   UNL     1      -3.922   7.203  -3.739  0.00  0.00    -0.293 OA
ATOM      7  C   UNL     1      -2.456   5.573  -2.986  0.00  0.00    +0.046 C 
ATOM      8  C   UNL     1      -2.254   4.528  -2.195  0.00  0.00    -0.060 C 
ATOM      9  C   UNL     1      -0.957   3.756  -2.237  0.00  0.00    +0.032 C 
ATOM     10  C   UNL     1      -0.283   3.971  -0.885  0.00  0.00    +0.008 C 
ATOM     11  C   UNL     1      -1.251   3.848   0.271  0.00  0.00    -0.001 C 
ATOM     12  C   UNL     1      -2.650   3.340  -0.042  0.00  0.00    +0.031 C 
ATOM     13  C   UNL     1      -2.827   1.840  -0.041  0.00  0.00    +0.119 C 
ATOM     14  C   UNL     1      -2.181   1.177   1.199  0.00  0.00    +0.041 C 
ATOM     15  C   UNL     1      -0.729   1.579   1.267  0.00  0.00    +0.009 C 
ATOM     16  C   UNL     1      -0.665   3.109   1.446  0.00  0.00    +0.002 C 
ATOM     17  C   UNL     1       0.823   3.330   1.745  0.00  0.00    +0.008 C 
ATOM     18  C   UNL     1       1.128   2.178   2.744  0.00  0.00    +0.043 C 
ATOM     19  C   UNL     1       0.081   1.069   2.465  0.00  0.00    +0.131 C 
ATOM     20  C   UNL     1      -0.013   1.086   0.008  0.00  0.00    +0.015 C 
ENDROOT
BRANCH  19  21
ATOM     21  C   UNL     1      -0.791   0.860   3.671  0.00  0.00    +0.190 C 
ATOM     22  O   UNL     1      -1.822   1.479   3.786  0.00  0.00    -0.292 OA
BRANCH  21  23
ATOM     23  C   UNL     1      -0.380  -0.123   4.737  0.00  0.00    +0.233 C 
BRANCH  23  24
ATOM     24  O   UNL     1      -1.365  -0.144   5.772  0.00  0.00    -0.387 OA
ATOM     25  H   UNL     1      -1.165  -0.756   6.493  0.00  0.00    +0.210 HD
ENDBRANCH  23  24
ENDBRANCH  21  23
ENDBRANCH  19  21
BRANCH  19  26
ATOM     26  O   UNL     1       0.741  -0.150   2.113  0.00  0.00    -0.380 OA
ATOM     27  H   UNL     1       1.273  -0.529   2.826  0.00  0.00    +0.211 HD
ENDBRANCH  19  26
BRANCH  13  28
ATOM     28  O   UNL     1      -4.226   1.508   0.076  0.00  0.00    -0.391 OA
ATOM     29  H   UNL     1      -4.406   0.558   0.083  0.00  0.00    +0.210 HD
ENDBRANCH  13  28
TORSDOF 5
