REMARK  Name = ZINC64684127
REMARK  8 active torsions:
REMARK  status: ('A' for Active; 'I' for Inactive)
REMARK    1  A    between atoms: C_4  and  C_7
REMARK    2  A    between atoms: C_11  and  S_14
REMARK    3  A    between atoms: S_14  and  C_15
REMARK    4  A    between atoms: C_15  and  C_16
REMARK    5  A    between atoms: N_18  and  CA_19
REMARK    6  A    between atoms: CA_19  and  CB_21
REMARK    7  A    between atoms: CA_19  and  C_31
REMARK    8  A    between atoms: CB_21  and  CG_22
REMARK                            x       y       z     vdW  Elec       q    Type
REMARK                         _______ _______ _______ _____ _____    ______ ____
ROOT
ATOM      1  C   UNK A   0       8.590  -0.921  -1.360  0.00  0.00    +0.224 C 
ATOM      2  O   UNK A   0       9.022  -1.588  -2.276  0.00  0.00    -0.275 OA
ATOM      3  N   TRP A   1       9.391  -0.036  -0.735  0.00  0.00    -0.301 N 
ATOM      4  H   TRP A   1       9.046   0.498  -0.002  0.00  0.00    +0.150 HD
ENDROOT
BRANCH   1   5
ATOM      5  C   UNK A   0       7.157  -1.081  -0.922  0.00  0.00    +0.168 C 
BRANCH   5   6
ATOM      6  S   UNK A   0       6.347  -2.337  -1.950  0.00  0.00    -0.104 S 
BRANCH   6  10
ATOM      7  C   UNK A   0       3.711  -0.707  -0.038  0.00  0.00    +0.234 C 
ATOM      8  N   UNK A   0       3.603  -1.979   0.724  0.00  0.00    -0.222 NA
ATOM      9  N   UNK A   0       4.676  -2.794   0.127  0.00  0.00    -0.218 NA
ATOM     10  C   UNK A   0       4.654  -2.408  -1.303  0.00  0.00    +0.263 C 
ATOM     11  O   UNK A   0       4.043  -1.110  -1.379  0.00  0.00    -0.328 OA
ATOM     12  H   UNK A   0       2.702  -2.410   0.583  0.00  0.00    +0.144 HD
ATOM     13  H   UNK A   0       5.569  -2.579   0.546  0.00  0.00    +0.144 HD
BRANCH   7  17
ATOM     14  C   UNK A   0      -0.016   1.380   0.013  0.00  0.00    +0.000 A 
ATOM     15  C   UNK A   0       0.438   0.748   1.155  0.00  0.00    +0.000 A 
ATOM     16  C   UNK A   0       1.644   0.072   1.139  0.00  0.00    +0.007 A 
ATOM     17  C   UNK A   0       2.396   0.029  -0.020  0.00  0.00    -0.003 A 
ATOM     18  C   UNK A   0       1.942   0.660  -1.163  0.00  0.00    +0.007 A 
ATOM     19  C   UNK A   0       0.737   1.337  -1.146  0.00  0.00    +0.000 A 
ENDBRANCH   7  17
ENDBRANCH   6  10
ENDBRANCH   5   6
ENDBRANCH   1   5
BRANCH   3  20
ATOM     20  CA  TRP A   1      10.784   0.120  -1.161  0.00  0.00    +0.190 C 
BRANCH  20  21
ATOM     21  C   TRP A   1      11.638  -0.917  -0.477  0.00  0.00    +0.376 C 
ATOM     22  O   TRP A   1      12.637  -1.345  -1.030  0.00  0.00    -0.244 OA
ATOM     23  OXT TRP A   1      11.329  -1.329   0.628  0.00  0.00    -0.244 OA
ENDBRANCH  20  21
BRANCH  20  24
ATOM     24  CB  TRP A   1      11.280   1.517  -0.784  0.00  0.00    +0.067 C 
BRANCH  24  25
ATOM     25  CG  TRP A   1      10.507   2.551  -1.562  0.00  0.00    -0.039 C 
ATOM     26  CD2 TRP A   1       9.411   3.228  -1.149  0.00  0.00    -0.001 A 
ATOM     27  CE3 TRP A   1       8.639   3.204   0.100  0.00  0.00    +0.010 A 
ATOM     28  CZ3 TRP A   1       7.564   4.015   0.222  0.00  0.00    +0.001 A 
ATOM     29  CH2 TRP A   1       7.168   4.875  -0.811  0.00  0.00    +0.002 A 
ATOM     30  CZ2 TRP A   1       7.827   4.953  -1.987  0.00  0.00    +0.026 A 
ATOM     31  CE2 TRP A   1       8.973   4.145  -2.224  0.00  0.00    +0.043 A 
ATOM     32  NE1 TRP A   1       9.767   4.040  -3.262  0.00  0.00    -0.380 N 
ATOM     33  CD1 TRP A   1      10.803   3.047  -2.959  0.00  0.00    +0.144 C 
ATOM     34  HE1 TRP A   1       9.685   4.538  -4.090  0.00  0.00    +0.160 HD
ENDBRANCH  24  25
ENDBRANCH  20  24
ENDBRANCH   3  20
TORSDOF 8
