REMARK  Name = ZINC44699795
REMARK  9 active torsions:
REMARK  status: ('A' for Active; 'I' for Inactive)
REMARK    1  A    between atoms: C_1  and  C_2
REMARK    2  A    between atoms: C_5  and  C_8
REMARK    3  A    between atoms: C_8  and  C_30
REMARK    4  A    between atoms: N_11  and  C_15
REMARK    5  A    between atoms: C_15  and  C_16
REMARK    6  A    between atoms: N_18  and  C_19
REMARK    7  A    between atoms: C_21  and  C_27
REMARK    8  A    between atoms: C_24  and  O_25
REMARK    9  A    between atoms: O_25  and  C_26
REMARK                            x       y       z     vdW  Elec       q    Type
REMARK                         _______ _______ _______ _____ _____    ______ ____
ROOT
ATOM      1  C   UNL     1      -2.754  -6.263   1.375  0.00  0.00    +0.214 C 
ENDROOT
BRANCH   1   5
ATOM      2  C   UNL     1       0.049  -4.286  -0.050  0.00  0.00    +0.135 C 
ATOM      3  C   UNL     1      -0.733  -4.836   1.126  0.00  0.00    +0.251 C 
ATOM      4  O   UNL     1      -0.498  -4.670   2.304  0.00  0.00    -0.272 OA
ATOM      5  N   UNL     1      -1.743  -5.550   0.590  0.00  0.00    -0.215 N 
ATOM      6  C   UNL     1      -1.708  -5.526  -0.747  0.00  0.00    +0.310 C 
ATOM      7  O   UNL     1      -2.516  -6.097  -1.454  0.00  0.00    -0.252 OA
ATOM      8  N   UNL     1      -0.680  -4.801  -1.222  0.00  0.00    -0.281 N 
ATOM      9  C   UNL     1       1.487  -4.809  -0.037  0.00  0.00    +0.047 C 
ATOM     10  H   UNL     1      -0.461  -4.646  -2.154  0.00  0.00    +0.152 HD
BRANCH   2  15
ATOM     11  C   UNL     1      -0.008   1.493   0.000  0.00  0.00    +0.044 C 
ATOM     12  C   UNL     1       0.007  -0.014  -0.013  0.00  0.00    -0.050 A 
ATOM     13  C   UNL     1       0.000  -0.695  -1.216  0.00  0.00    +0.004 A 
ATOM     14  C   UNL     1       0.014  -2.077  -1.228  0.00  0.00    +0.006 A 
ATOM     15  C   UNL     1       0.035  -2.779  -0.037  0.00  0.00    -0.015 A 
ATOM     16  C   UNL     1       0.043  -2.098   1.166  0.00  0.00    +0.006 A 
ATOM     17  C   UNL     1       0.033  -0.716   1.178  0.00  0.00    +0.004 A 
ENDBRANCH   2  15
ENDBRANCH   1   5
BRANCH   1  18
ATOM     18  C   UNL     1      -3.920  -5.347   1.644  0.00  0.00    +0.235 C 
ATOM     19  O   UNL     1      -3.907  -4.210   1.222  0.00  0.00    -0.274 OA
ATOM     20  N   UNL     1      -4.976  -5.791   2.354  0.00  0.00    -0.281 N 
ATOM     21  H   UNL     1      -5.015  -6.718   2.636  0.00  0.00    +0.155 HD
BRANCH  20  22
ATOM     22  C   UNL     1      -6.017  -4.913   2.684  0.00  0.00    +0.076 A 
ATOM     23  C   UNL     1      -6.383  -3.911   1.804  0.00  0.00    +0.040 A 
ATOM     24  C   UNL     1      -7.422  -3.039   2.137  0.00  0.00    +0.038 A 
ATOM     25  C   UNL     1      -8.086  -3.182   3.358  0.00  0.00    +0.017 A 
ATOM     26  C   UNL     1      -7.717  -4.181   4.231  0.00  0.00    +0.048 A 
ATOM     27  C   UNL     1      -6.689  -5.053   3.899  0.00  0.00    +0.141 A 
BRANCH  24  28
ATOM     28  C   UNL     1      -7.816  -1.967   1.201  0.00  0.00    +0.242 C 
ATOM     29  O   UNL     1      -7.237  -1.844   0.140  0.00  0.00    -0.270 OA
ATOM     30  N   UNL     1      -8.819  -1.126   1.524  0.00  0.00    -0.325 N 
ATOM     31  H   UNL     1      -9.281  -1.225   2.371  0.00  0.00    +0.145 HD
ATOM     32  H   UNL     1      -9.078  -0.422   0.909  0.00  0.00    +0.145 HD
ENDBRANCH  24  28
BRANCH  27  33
ATOM     33  O   UNL     1      -6.333  -6.040   4.761  0.00  0.00    -0.493 OA
ATOM     34  C   UNL     1      -7.062  -6.126   5.987  0.00  0.00    +0.277 C 
ENDBRANCH  27  33
ENDBRANCH  20  22
ENDBRANCH   1  18
TORSDOF 6
