REMARK  Name = ZINC37227494
REMARK  5 active torsions:
REMARK  status: ('A' for Active; 'I' for Inactive)
REMARK    1  A    between atoms: C_1  and  C_2
REMARK    2  A    between atoms: C_2  and  C_4
REMARK    3  A    between atoms: C_2  and  C_13
REMARK    4  A    between atoms: C_4  and  N_5
REMARK    5  A    between atoms: C_7  and  N_12
REMARK                            x       y       z     vdW  Elec       q    Type
REMARK                         _______ _______ _______ _____ _____    ______ ____
ROOT
ATOM      1  N   UNL     1      -0.008  -0.140   2.444  0.00  0.00    -0.313 N 
ATOM      2  C   UNL     1       0.242   1.051   3.052  0.00  0.00    +0.111 A 
ATOM      3  C   UNL     1      -0.443   1.415   4.168  0.00  0.00    +0.041 A 
ATOM      4  C   UNL     1      -1.418   0.554   4.702  0.00  0.00    +0.029 A 
ATOM      5  C   UNL     1      -1.663  -0.638   4.087  0.00  0.00    +0.072 A 
ATOM      6  C   UNL     1      -0.941  -0.980   2.931  0.00  0.00    +0.251 A 
ATOM      7  O   UNL     1      -1.157  -2.043   2.370  0.00  0.00    -0.268 OA
ENDROOT
BRANCH   3   8
ATOM      8  N   UNL     1      -0.176   2.646   4.787  0.00  0.00    -0.357 N 
ATOM      9  H   UNL     1       0.498   3.238   4.418  0.00  0.00    +0.142 HD
ATOM     10  H   UNL     1      -0.665   2.904   5.583  0.00  0.00    +0.142 HD
ENDBRANCH   3   8
BRANCH   1  11
ATOM     11  C   UNL     1       0.742  -0.511   1.242  0.00  0.00    +0.137 C 
BRANCH  11  13
ATOM     12  C   UNL     1      -0.019   1.526   0.010  0.00  0.00    +0.019 C 
ATOM     13  C   UNL     1       0.002  -0.004   0.002  0.00  0.00    +0.091 C 
BRANCH  13  14
ATOM     14  C   UNL     1       0.707  -0.490  -1.238  0.00  0.00    +0.215 C 
ATOM     15  O   UNL     1       1.704  -1.174  -1.140  0.00  0.00    -0.276 OA
ATOM     16  N   UNL     1       0.231  -0.164  -2.456  0.00  0.00    -0.329 N 
ATOM     17  H   UNL     1      -0.566   0.383  -2.534  0.00  0.00    +0.145 HD
ATOM     18  H   UNL     1       0.685  -0.477  -3.254  0.00  0.00    +0.145 HD
ENDBRANCH  13  14
ENDBRANCH  11  13
ENDBRANCH   1  11
TORSDOF 4
