REMARK  Name = ZINC56644419
REMARK  9 active torsions:
REMARK  status: ('A' for Active; 'I' for Inactive)
REMARK    1  A    between atoms: C_1  and  C_2
REMARK    2  A    between atoms: C_2  and  C_4
REMARK    3  A    between atoms: C_2  and  N_14
REMARK    4  A    between atoms: C_4  and  O_5
REMARK    5  A    between atoms: O_5  and  C_6
REMARK    6  A    between atoms: N_17  and  C_18
REMARK    7  A    between atoms: C_23  and  S_24
REMARK    8  A    between atoms: S_24  and  C_25
REMARK    9  A    between atoms: C_25  and  C_26
REMARK                            x       y       z     vdW  Elec       q    Type
REMARK                         _______ _______ _______ _____ _____    ______ ____
ROOT
ATOM      1  N   UNL     1       0.706  -0.505   1.185  0.00  0.00    -0.293 N 
ATOM      2  C   UNL     1       0.049  -0.640   2.354  0.00  0.00    +0.304 C 
ATOM      3  O   UNL     1      -1.133  -0.363   2.423  0.00  0.00    -0.252 OA
ATOM      4  N   UNL     1       0.703  -1.080   3.447  0.00  0.00    -0.268 N 
ATOM      5  H   UNL     1       1.649  -0.726   1.130  0.00  0.00    +0.151 HD
ATOM      6  H   UNL     1       1.629  -1.362   3.378  0.00  0.00    +0.156 HD
ENDROOT
BRANCH   4   7
ATOM      7  C   UNL     1       0.045  -1.131   4.684  0.00  0.00    +0.048 A 
ATOM      8  C   UNL     1      -1.304  -1.441   4.742  0.00  0.00    +0.024 A 
ATOM      9  C   UNL     1      -1.951  -1.490   5.963  0.00  0.00    +0.002 A 
ATOM     10  C   UNL     1      -1.256  -1.230   7.130  0.00  0.00    +0.001 A 
ATOM     11  C   UNL     1       0.090  -0.920   7.082  0.00  0.00    +0.016 A 
ATOM     12  C   UNL     1       0.749  -0.874   5.862  0.00  0.00    +0.030 A 
BRANCH  12  13
ATOM     13  S   UNL     1       2.466  -0.486   5.798  0.00  0.00    -0.114 S 
BRANCH  13  14
ATOM     14  C   UNL     1       2.925  -0.240   7.536  0.00  0.00    +0.169 C 
BRANCH  14  15
ATOM     15  C   UNL     1       4.390   0.102   7.625  0.00  0.00    +0.221 C 
ATOM     16  O   UNL     1       5.059   0.173   6.615  0.00  0.00    -0.275 OA
ATOM     17  N   UNL     1       4.957   0.330   8.826  0.00  0.00    -0.329 N 
ATOM     18  H   UNL     1       4.422   0.273   9.633  0.00  0.00    +0.145 HD
ATOM     19  H   UNL     1       5.900   0.550   8.883  0.00  0.00    +0.145 HD
ENDBRANCH  14  15
ENDBRANCH  13  14
ENDBRANCH  12  13
ENDBRANCH   4   7
BRANCH   1  21
ATOM     20  C   UNL     1      -0.022   1.503  -0.006  0.00  0.00    +0.031 C 
ATOM     21  C   UNL     1      -0.005  -0.027  -0.004  0.00  0.00    +0.109 C 
BRANCH  21  22
ATOM     22  C   UNL     1       0.706  -0.531  -1.261  0.00  0.00    +0.251 C 
BRANCH  22  23
ATOM     23  O   UNL     1       2.008   0.053  -1.338  0.00  0.00    -0.487 OA
BRANCH  23  24
ATOM     24  C   UNL     1       2.778  -0.293  -2.404  0.00  0.00    +0.156 A 
ATOM     25  C   UNL     1       2.288  -1.171  -3.358  0.00  0.00    +0.051 A 
ATOM     26  C   UNL     1       3.071  -1.522  -4.441  0.00  0.00    +0.042 A 
ATOM     27  C   UNL     1       4.345  -0.998  -4.575  0.00  0.00    +0.126 A 
ATOM     28  C   UNL     1       4.838  -0.120  -3.624  0.00  0.00    +0.080 A 
ATOM     29  C   UNL     1       4.054   0.238  -2.542  0.00  0.00    +0.168 A 
ATOM     30  F   UNL     1       4.532   1.099  -1.617  0.00  0.00    -0.202 F 
ATOM     31  F   UNL     1       5.109  -1.343  -5.635  0.00  0.00    -0.205 F 
ENDBRANCH  23  24
ENDBRANCH  22  23
ENDBRANCH  21  22
ENDBRANCH   1  21
TORSDOF 8
