REMARK  Name = ZINC20178078
REMARK  3 active torsions:
REMARK  status: ('A' for Active; 'I' for Inactive)
REMARK    1  A    between atoms: C_1  and  C_2
REMARK    2  A    between atoms: C_2  and  C_3
REMARK    3  A    between atoms: N_16  and  C_17
REMARK                            x       y       z     vdW  Elec       q    Type
REMARK                         _______ _______ _______ _____ _____    ______ ____
ROOT
ATOM      1  C   UNL     1      -0.758   1.629   1.304  0.00  0.00    +0.140 A 
ATOM      2  N   UNL     1      -1.884   1.167   1.783  0.00  0.00    -0.134 NA
ATOM      3  N   UNL     1      -2.476   2.072   2.482  0.00  0.00    -0.129 NA
ATOM      4  C   UNL     1      -1.754   3.166   2.488  0.00  0.00    +0.173 A 
ATOM      5  N   UNL     1      -0.628   2.913   1.737  0.00  0.00    -0.250 N 
ATOM      6  C   UNL     1       0.314   3.892   1.559  0.00  0.00    +0.208 A 
ATOM      7  N   UNL     1       0.205   5.082   2.089  0.00  0.00    -0.215 NA
ATOM      8  C   UNL     1      -0.859   5.438   2.852  0.00  0.00    +0.078 A 
ATOM      9  C   UNL     1      -1.889   4.499   3.088  0.00  0.00    +0.045 A 
ATOM     10  C   UNL     1      -2.987   4.851   3.868  0.00  0.00    +0.014 A 
ATOM     11  C   UNL     1      -3.062   6.117   4.407  0.00  0.00    +0.001 A 
ATOM     12  C   UNL     1      -2.052   7.042   4.179  0.00  0.00    +0.002 A 
ATOM     13  C   UNL     1      -0.958   6.714   3.410  0.00  0.00    +0.028 A 
ATOM     14  N   UNL     1       1.423   3.609   0.798  0.00  0.00    -0.284 N 
ATOM     15  H   UNL     1       1.491   2.652   0.259  0.00  0.00    +0.155 HD
ENDROOT
BRANCH  14  16
ATOM     16  C   UNL     1       2.465   4.537   0.708  0.00  0.00    +0.048 A 
ATOM     17  C   UNL     1       2.663   5.462   1.724  0.00  0.00    +0.024 A 
ATOM     18  C   UNL     1       3.695   6.375   1.634  0.00  0.00    +0.002 A 
ATOM     19  C   UNL     1       4.527   6.375   0.529  0.00  0.00    +0.001 A 
ATOM     20  C   UNL     1       4.330   5.459  -0.488  0.00  0.00    +0.017 A 
ATOM     21  C   UNL     1       3.302   4.540  -0.402  0.00  0.00    +0.039 A 
ATOM     22 BR   UNL     1       3.034   3.287  -1.793  0.00  0.00    -0.048 Br
ENDBRANCH  14  16
BRANCH   1  24
ATOM     23  C   UNL     1      -0.045   1.204  -1.032  0.00  0.00    +0.012 C 
ATOM     24  C   UNL     1       0.218   0.876   0.439  0.00  0.00    +0.073 C 
ENDBRANCH   1  24
TORSDOF 2
