REMARK  Name = ZINC37566311
REMARK  4 active torsions:
REMARK  status: ('A' for Active; 'I' for Inactive)
REMARK    1  A    between atoms: C_8  and  C_10
REMARK    2  A    between atoms: C_10  and  N_11
REMARK    3  A    between atoms: N_11  and  C_12
REMARK    4  A    between atoms: C_16  and  N_18
REMARK                            x       y       z     vdW  Elec       q    Type
REMARK                         _______ _______ _______ _____ _____    ______ ____
ROOT
ATOM      1  N   UNL     1       5.297  -0.763   1.086  0.00  0.00    -0.343 N 
ATOM      2  H   UNL     1       5.492  -0.268   0.275  0.00  0.00    +0.146 HD
ENDROOT
BRANCH   1   3
ATOM      3  C   UNL     1       6.236  -0.807   2.119  0.00  0.00    +0.029 A 
ATOM      4  C   UNL     1       5.962  -1.521   3.279  0.00  0.00    +0.023 A 
ATOM      5  C   UNL     1       6.892  -1.563   4.299  0.00  0.00    +0.004 A 
ATOM      6  C   UNL     1       8.096  -0.896   4.166  0.00  0.00    +0.033 A 
ATOM      7  C   UNL     1       8.372  -0.184   3.013  0.00  0.00    +0.128 A 
ATOM      8  C   UNL     1       7.448  -0.142   1.987  0.00  0.00    +0.055 A 
BRANCH   7   9
ATOM      9  N   UNL     1       9.662   0.530   2.876  0.00  0.00    +0.056 N 
ATOM     10  O   UNL     1      10.473   0.490   3.772  0.00  0.00    -0.126 OA
ATOM     11  O   UNL     1       9.904   1.152   1.868  0.00  0.00    -0.126 OA
ENDBRANCH   7   9
ENDBRANCH   1   3
BRANCH   1  12
ATOM     12  C   UNL     1       4.019  -1.465   1.227  0.00  0.00    +0.110 C 
BRANCH  12  20
ATOM     13  C   UNL     1      -0.017   1.376   0.010  0.00  0.00    +0.000 A 
ATOM     14  C   UNL     1       1.169   2.087   0.002  0.00  0.00    +0.000 A 
ATOM     15  C   UNL     1       2.374   1.411  -0.013  0.00  0.00    +0.004 A 
ATOM     16  C   UNL     1       2.394   0.028  -0.021  0.00  0.00    -0.039 A 
ATOM     17  C   UNL     1       1.211  -0.689  -0.014  0.00  0.00    -0.043 A 
ATOM     18  C   UNL     1       0.002  -0.004   0.002  0.00  0.00    +0.004 A 
ATOM     19  C   UNL     1       1.874  -2.050  -0.028  0.00  0.00    +0.045 C 
ATOM     20  C   UNL     1       3.181  -1.257  -0.036  0.00  0.00    +0.041 C 
ENDBRANCH  12  20
ENDBRANCH   1  12
TORSDOF 4
