REMARK  Name = ZINC38506998
REMARK  10 active torsions:
REMARK  status: ('A' for Active; 'I' for Inactive)
REMARK    1  A    between atoms: C_1  and  C_2
REMARK    2  A    between atoms: C_2  and  C_3
REMARK    3  A    between atoms: C_3  and  N_4
REMARK    4  A    between atoms: C_10  and  N_15
REMARK    5  A    between atoms: C_11  and  C_12
REMARK    6  A    between atoms: C_16  and  C_18
REMARK    7  A    between atoms: C_20  and  C_26
REMARK    8  A    between atoms: N_22  and  C_23
REMARK    9  A    between atoms: C_23  and  C_24
REMARK   10  A    between atoms: C_23  and  C_25
REMARK                            x       y       z     vdW  Elec       q    Type
REMARK                         _______ _______ _______ _____ _____    ______ ____
ROOT
ATOM      1  N   UNL     1       0.738  -1.967  -1.257  0.00  0.00    +0.383 N 
ATOM      2  C   UNL     1       1.530  -2.438  -2.400  0.00  0.00    -0.074 C 
ATOM      3  C   UNL     1       1.827  -3.934  -2.258  0.00  0.00    +0.018 C 
ATOM      4  C   UNL     1       0.507  -4.650  -2.006  0.00  0.00    -0.027 A 
ATOM      5  C   UNL     1      -0.580  -3.952  -1.607  0.00  0.00    -0.021 A 
ATOM      6  S   UNL     1      -1.855  -5.164  -1.445  0.00  0.00    -0.079 S 
ATOM      7  C   UNL     1      -0.998  -6.542  -1.881  0.00  0.00    +0.085 A 
ATOM      8  C   UNL     1       0.279  -6.074  -2.156  0.00  0.00    +0.068 A 
ATOM      9  C   UNL     1      -0.642  -2.476  -1.366  0.00  0.00    -0.035 C 
ATOM     10  H   UNL     1       1.153  -2.303  -0.400  0.00  0.00    -0.081 HD
ENDROOT
BRANCH   8  11
ATOM     11  C   UNL     1       1.351  -6.980  -2.579  0.00  0.00    +0.244 C 
ATOM     12  O   UNL     1       2.067  -7.506  -1.747  0.00  0.00    -0.270 OA
ATOM     13  N   UNL     1       1.544  -7.231  -3.889  0.00  0.00    -0.325 N 
ATOM     14  H   UNL     1       0.973  -6.812  -4.552  0.00  0.00    +0.145 HD
ATOM     15  H   UNL     1       2.253  -7.831  -4.169  0.00  0.00    +0.145 HD
ENDBRANCH   8  11
BRANCH   7  16
ATOM     16  N   UNL     1      -1.460  -7.846  -1.950  0.00  0.00    -0.274 N 
ATOM     17  C   UNL     1      -2.744  -8.123  -1.645  0.00  0.00    +0.267 C 
ATOM     18  O   UNL     1      -3.470  -7.245  -1.219  0.00  0.00    -0.268 OA
ATOM     19  H   UNL     1      -0.860  -8.559  -2.217  0.00  0.00    +0.156 HD
BRANCH  17  20
ATOM     20  C   UNL     1      -3.265  -9.486  -1.827  0.00  0.00    +0.124 A 
ATOM     21  C   UNL     1      -2.545 -10.608  -2.202  0.00  0.00    +0.057 A 
ATOM     22  C   UNL     1      -3.475 -11.649  -2.237  0.00  0.00    +0.061 A 
ATOM     23  N   UNL     1      -4.642 -11.157  -1.905  0.00  0.00    -0.176 NA
ATOM     24  N   UNL     1      -4.555  -9.900  -1.654  0.00  0.00    -0.256 N 
ATOM     25  C   UNL     1      -3.187 -13.085  -2.593  0.00  0.00    +0.067 C 
BRANCH  24  26
ATOM     26  C   UNL     1      -5.671  -9.042  -1.249  0.00  0.00    +0.102 C 
ATOM     27  C   UNL     1      -6.801  -9.157  -2.273  0.00  0.00    +0.032 C 
ATOM     28  C   UNL     1      -6.180  -9.482   0.125  0.00  0.00    +0.032 C 
ENDBRANCH  24  26
ENDBRANCH  17  20
ENDBRANCH   7  16
BRANCH   1  29
ATOM     29  C   UNL     1       0.717  -0.498  -1.248  0.00  0.00    -0.079 C 
BRANCH  29  31
ATOM     30  C   UNL     1      -0.019   1.524   0.022  0.00  0.00    +0.002 C 
ATOM     31  C   UNL     1       0.003  -0.006   0.013  0.00  0.00    -0.022 C 
ENDBRANCH  29  31
ENDBRANCH   1  29
TORSDOF 6
