REMARK  Name = ZINC67004490
REMARK  5 active torsions:
REMARK  status: ('A' for Active; 'I' for Inactive)
REMARK    1  A    between atoms: C_10  and  C_11
REMARK    2  A    between atoms: C_10  and  O_23
REMARK    3  A    between atoms: C_11  and  N_12
REMARK    4  A    between atoms: N_14  and  C_15
REMARK    5  A    between atoms: C_15  and  C_16
REMARK                            x       y       z     vdW  Elec       q    Type
REMARK                         _______ _______ _______ _____ _____    ______ ____
ROOT
ATOM      1  N   UNL     1       4.733   1.477  -0.622  0.00  0.00    -0.355 N 
ATOM      2  C   UNL     1       5.432   2.360  -1.410  0.00  0.00    +0.169 C 
ATOM      3  N   UNL     1       5.487   3.621  -1.085  0.00  0.00    -0.355 N 
ATOM      4  N   UNL     1       6.072   1.913  -2.541  0.00  0.00    -0.371 N 
ATOM      5  H   UNL     1       4.281   1.792   0.177  0.00  0.00    +0.163 HD
ATOM      6  H   UNL     1       6.031   0.975  -2.784  0.00  0.00    +0.159 HD
ATOM      7  H   UNL     1       6.566   2.537  -3.098  0.00  0.00    +0.159 HD
ATOM      8  H   UNL     1       5.035   3.936  -0.286  0.00  0.00    +0.162 HD
ENDROOT
BRANCH   1   9
ATOM      9  C   UNL     1       4.671   0.060  -0.987  0.00  0.00    +0.155 C 
BRANCH   9  19
ATOM     10  C   UNL     1       3.645  -4.800  -1.151  0.00  0.00    +0.000 A 
ATOM     11  C   UNL     1       3.611  -3.801  -2.106  0.00  0.00    +0.000 A 
ATOM     12  C   UNL     1       3.647  -2.478  -1.715  0.00  0.00    +0.007 A 
ATOM     13  C   UNL     1       3.720  -2.142  -0.370  0.00  0.00    -0.011 A 
ATOM     14  C   UNL     1       3.759  -3.136   0.581  0.00  0.00    -0.041 A 
ATOM     15  C   UNL     1       3.718  -4.467   0.186  0.00  0.00    +0.004 A 
ATOM     16  C   UNL     1       3.855  -2.845   2.056  0.00  0.00    +0.035 C 
ATOM     17  C   UNL     1       3.461  -1.398   2.344  0.00  0.00    +0.008 C 
ATOM     18  C   UNL     1       4.262  -0.482   1.412  0.00  0.00    +0.042 C 
ATOM     19  C   UNL     1       3.749  -0.678  -0.014  0.00  0.00    +0.108 C 
BRANCH  19  20
ATOM     20  O   UNL     1       2.429  -0.142  -0.117  0.00  0.00    -0.382 OA
ATOM     21  H   UNL     1       2.043  -0.215  -1.001  0.00  0.00    +0.211 HD
ENDBRANCH  19  20
ENDBRANCH   9  19
ENDBRANCH   1   9
BRANCH   3  22
ATOM     22  C   UNL     1       6.232   4.562  -1.925  0.00  0.00    +0.147 C 
BRANCH  22  23
ATOM     23  C   UNL     1       6.139   5.966  -1.324  0.00  0.00    +0.137 C 
ATOM     24  C   UNL     1       6.818   6.985  -2.265  0.00  0.00    +0.035 C 
ATOM     25  C   UNL     1       7.533   7.933  -1.263  0.00  0.00    +0.031 C 
ATOM     26  C   UNL     1       7.924   6.936  -0.143  0.00  0.00    +0.160 C 
ATOM     27  O   UNL     1       6.830   6.005  -0.070  0.00  0.00    -0.375 OA
ENDBRANCH  22  23
ENDBRANCH   3  22
TORSDOF 5
