REMARK  Name = ZINC38800699
REMARK  15 active torsions:
REMARK  status: ('A' for Active; 'I' for Inactive)
REMARK    1  A    between atoms: C_1  and  C_2
REMARK    2  A    between atoms: C_2  and  C_3
REMARK    3  A    between atoms: C_3  and  C_4
REMARK    4  A    between atoms: C_4  and  N_5
REMARK    5  A    between atoms: C_6  and  N_37
REMARK    6  A    between atoms: C_8  and  N_15
REMARK    7  A    between atoms: N_15  and  C_16
REMARK    8  A    between atoms: C_16  and  C_17
REMARK    9  A    between atoms: C_17  and  C_18
REMARK   10  A    between atoms: C_17  and  C_19
REMARK   11  A    between atoms: C_20  and  C_22
REMARK   12  A    between atoms: C_22  and  S_23
REMARK   13  A    between atoms: S_23  and  C_24
REMARK   14  A    between atoms: C_28  and  C_30
REMARK   15  A    between atoms: C_33  and  C_36
REMARK                            x       y       z     vdW  Elec       q    Type
REMARK                         _______ _______ _______ _____ _____    ______ ____
ROOT
ATOM      1  N   UNL     1       0.852  -5.302  -3.548  0.00  0.00    -0.289 N 
ATOM      2  C   UNL     1       1.253  -5.719  -2.330  0.00  0.00    +0.226 C 
ATOM      3  O   UNL     1       1.891  -4.976  -1.615  0.00  0.00    -0.275 OA
ENDROOT
BRANCH   1   6
ATOM      4  N   UNL     1       1.605  -2.918  -1.887  0.00  0.00    -0.296 N 
ATOM      5  C   UNL     1       0.798  -2.895  -3.110  0.00  0.00    +0.047 C 
ATOM      6  C   UNL     1       1.284  -3.997  -4.054  0.00  0.00    +0.167 C 
ATOM      7  C   UNL     1       2.789  -3.959  -4.130  0.00  0.00    +0.261 C 
ATOM      8  O   UNL     1       3.408  -4.296  -5.273  0.00  0.00    -0.272 OA
ATOM      9  N   UNL     1       3.495  -3.601  -3.094  0.00  0.00    -0.126 NA
ATOM     10  C   UNL     1       2.914  -3.216  -1.944  0.00  0.00    +0.327 C 
ATOM     11  O   UNL     1       3.587  -3.139  -0.933  0.00  0.00    -0.250 OA
BRANCH   5  12
ATOM     12  N   UNL     1       0.938  -1.588  -3.765  0.00  0.00    +0.392 N 
ATOM     13  H   UNL     1       1.907  -1.431  -3.999  0.00  0.00    -0.087 HD
ATOM     14  H   UNL     1       0.382  -1.572  -4.607  0.00  0.00    -0.087 HD
ATOM     15  H   UNL     1       0.621  -0.862  -3.140  0.00  0.00    -0.087 HD
ENDBRANCH   5  12
BRANCH   4  16
ATOM     16  C   UNL     1       0.983  -2.610  -0.597  0.00  0.00    +0.107 C 
BRANCH  16  17
ATOM     17  C   UNL     1       1.075  -1.106  -0.332  0.00  0.00    +0.019 C 
BRANCH  17  19
ATOM     18  C   UNL     1       0.518   0.720   1.280  0.00  0.00    +0.004 C 
ATOM     19  C   UNL     1       0.425  -0.785   1.015  0.00  0.00    -0.002 C 
ENDBRANCH  17  19
ENDBRANCH  16  17
ENDBRANCH   4  16
ENDBRANCH   1   6
BRANCH   1  20
ATOM     20  C   UNL     1      -0.016  -6.154  -4.364  0.00  0.00    +0.111 C 
BRANCH  20  21
ATOM     21  C   UNL     1      -1.477  -5.760  -4.136  0.00  0.00    +0.000 C 
ATOM     22  C   UNL     1      -1.725  -4.363  -4.707  0.00  0.00    +0.009 C 
ATOM     23  C   UNL     1      -2.392  -6.767  -4.837  0.00  0.00    +0.009 C 
ENDBRANCH  20  21
ENDBRANCH   1  20
BRANCH   2  24
ATOM     24  C   UNL     1       0.908  -7.108  -1.858  0.00  0.00    +0.173 C 
BRANCH  24  25
ATOM     25  S   UNL     1       1.453  -7.315  -0.141  0.00  0.00    -0.077 S 
BRANCH  25  26
ATOM     26  C   UNL     1       0.985  -8.966   0.259  0.00  0.00    +0.185 A 
ATOM     27  N   UNL     1       1.180  -9.582   1.446  0.00  0.00    -0.253 N 
ATOM     28  H   UNL     1       1.601  -9.203   2.234  0.00  0.00    +0.191 HD
ATOM     29  N   UNL     1       0.654 -10.877   1.315  0.00  0.00    -0.152 NA
ATOM     30  C   UNL     1       0.182 -10.976   0.093  0.00  0.00    +0.182 A 
ATOM     31  N   UNL     1       0.379  -9.813  -0.544  0.00  0.00    -0.201 NA
BRANCH  30  32
ATOM     32  C   UNL     1      -0.469 -12.178  -0.485  0.00  0.00    +0.021 A 
ATOM     33  C   UNL     1      -0.925 -12.160  -1.802  0.00  0.00    +0.012 A 
ATOM     34  C   UNL     1      -1.530 -13.281  -2.335  0.00  0.00    +0.004 A 
ATOM     35  C   UNL     1      -1.684 -14.419  -1.565  0.00  0.00    -0.050 A 
ATOM     36  C   UNL     1      -1.233 -14.442  -0.258  0.00  0.00    +0.004 A 
ATOM     37  C   UNL     1      -0.622 -13.329   0.284  0.00  0.00    +0.012 A 
ATOM     38  C   UNL     1      -2.345 -15.639  -2.152  0.00  0.00    +0.044 C 
ENDBRANCH  30  32
ENDBRANCH  25  26
ENDBRANCH  24  25
ENDBRANCH   2  24
TORSDOF 11
