REMARK  Name = ZINC14944213
REMARK  6 active torsions:
REMARK  status: ('A' for Active; 'I' for Inactive)
REMARK    1  A    between atoms: C_1  and  C_2
REMARK    2  A    between atoms: C_3  and  C_40
REMARK    3  A    between atoms: N_7  and  S_8
REMARK    4  A    between atoms: S_8  and  C_11
REMARK    5  A    between atoms: C_28  and  C_31
REMARK    6  A    between atoms: C_35  and  C_37
REMARK                            x       y       z     vdW  Elec       q    Type
REMARK                         _______ _______ _______ _____ _____    ______ ____
ROOT
ATOM      1  C   UNL     1       3.935  -5.121   1.202  0.00  0.00    +0.113 A 
ATOM      2  C   UNL     1       4.179  -6.074   2.174  0.00  0.00    +0.031 A 
ATOM      3  C   UNL     1       4.652  -7.321   1.807  0.00  0.00    +0.025 A 
ATOM      4  C   UNL     1       4.885  -7.596   0.473  0.00  0.00    +0.031 A 
ATOM      5  C   UNL     1       4.670  -6.634  -0.507  0.00  0.00    -0.021 A 
ATOM      6  C   UNL     1       4.171  -5.398  -0.130  0.00  0.00    +0.034 A 
ATOM      7  C   UNL     1       5.006  -6.895  -1.943  0.00  0.00    +0.029 C 
ATOM      8  C   UNL     1       6.453  -6.366  -2.206  0.00  0.00    -0.003 C 
ATOM      9  C   UNL     1       7.306  -7.005  -1.067  0.00  0.00    +0.004 C 
ATOM     10  C   UNL     1       7.356  -8.510  -1.416  0.00  0.00    +0.004 C 
ATOM     11  C   UNL     1       6.537  -8.638  -2.736  0.00  0.00    -0.005 C 
ATOM     12  C   UNL     1       6.868  -7.250  -3.435  0.00  0.00    +0.008 C 
ATOM     13  C   UNL     1       5.058  -8.373  -2.330  0.00  0.00    +0.024 C 
ATOM     14  C   UNL     1       4.695  -9.324  -1.204  0.00  0.00    +0.105 C 
ATOM     15  N   UNL     1       5.319  -8.861   0.047  0.00  0.00    -0.336 N 
ATOM     16  H   UNL     1       5.976  -9.385   0.532  0.00  0.00    +0.147 HD
ENDROOT
BRANCH  14  17
ATOM     17  C   UNL     1       3.197  -9.353  -1.034  0.00  0.00    -0.026 A 
ATOM     18  C   UNL     1       2.375  -9.266  -2.143  0.00  0.00    +0.005 A 
ATOM     19  C   UNL     1       0.999  -9.292  -1.997  0.00  0.00    +0.001 A 
ATOM     20  C   UNL     1       0.438  -9.405  -0.742  0.00  0.00    +0.015 A 
ATOM     21  C   UNL     1       1.262  -9.494   0.383  0.00  0.00    +0.063 A 
ATOM     22  C   UNL     1       2.651  -9.473   0.226  0.00  0.00    +0.020 A 
BRANCH  21  23
ATOM     23  C   UNL     1       0.669  -9.616   1.728  0.00  0.00    +0.387 C 
ATOM     24  O   UNL     1      -0.546  -9.639   1.861  0.00  0.00    -0.241 OA
ATOM     25  O   UNL     1       1.394  -9.693   2.711  0.00  0.00    -0.241 OA
ENDBRANCH  21  23
ENDBRANCH  14  17
BRANCH   1  26
ATOM     26  S   UNL     1       3.312  -3.539   1.668  0.00  0.00    +0.103 S 
ATOM     27  O   UNL     1       3.677  -2.638   0.632  0.00  0.00    -0.146 OA
ATOM     28  O   UNL     1       3.691  -3.337   3.022  0.00  0.00    -0.146 OA
BRANCH  26  35
ATOM     29  C   UNL     1       0.331   0.892   2.978  0.00  0.00    +0.067 C 
ATOM     30  C   UNL     1       0.303  -0.554   2.557  0.00  0.00    +0.055 A 
ATOM     31  C   UNL     1      -0.781  -1.286   2.350  0.00  0.00    +0.125 A 
ATOM     32  O   UNL     1      -0.407  -2.535   1.983  0.00  0.00    -0.427 OA
ATOM     33  C   UNL     1       0.939  -2.595   1.957  0.00  0.00    +0.319 A 
ATOM     34  N   UNL     1       1.413  -1.358   2.310  0.00  0.00    -0.309 N 
ATOM     35  N   UNL     1       1.660  -3.639   1.648  0.00  0.00    -0.073 NA
ATOM     36  C   UNL     1      -2.202  -0.806   2.498  0.00  0.00    +0.088 C 
ATOM     37  H   UNL     1       2.343  -1.093   2.377  0.00  0.00    +0.170 HD
ENDBRANCH  26  35
ENDBRANCH   1  26
TORSDOF 4
