REMARK  Name = ZINC66136125
REMARK  9 active torsions:
REMARK  status: ('A' for Active; 'I' for Inactive)
REMARK    1  A    between atoms: C_1  and  C_2
REMARK    2  A    between atoms: C_2  and  N_3
REMARK    3  A    between atoms: C_4  and  C_6
REMARK    4  A    between atoms: C_7  and  C_24
REMARK    5  A    between atoms: C_11  and  C_12
REMARK    6  A    between atoms: C_12  and  O_13
REMARK    7  A    between atoms: O_13  and  C_14
REMARK    8  A    between atoms: C_15  and  C_22
REMARK    9  A    between atoms: C_19  and  C_20
REMARK                            x       y       z     vdW  Elec       q    Type
REMARK                         _______ _______ _______ _____ _____    ______ ____
ROOT
ATOM      1  C   UNL     1       1.518  -2.275  -2.639  0.00  0.00    +0.082 A 
ATOM      2  C   UNL     1       2.900  -2.501  -2.637  0.00  0.00    +0.056 A 
ATOM      3  N   UNL     1       3.481  -2.926  -3.744  0.00  0.00    -0.219 NA
ATOM      4  C   UNL     1       2.773  -3.139  -4.846  0.00  0.00    +0.213 A 
ATOM      5  N   UNL     1       1.462  -2.937  -4.888  0.00  0.00    -0.215 NA
ATOM      6  C   UNL     1       0.807  -2.517  -3.822  0.00  0.00    +0.096 A 
ATOM      7  N   UNL     1       3.418  -3.584  -5.981  0.00  0.00    -0.327 N 
ATOM      8  C   UNL     1       3.713  -2.262  -1.391  0.00  0.00    +0.066 C 
ATOM      9  H   UNL     1       4.376  -3.736  -5.965  0.00  0.00    +0.145 HD
ATOM     10  H   UNL     1       2.915  -3.744  -6.794  0.00  0.00    +0.145 HD
ENDROOT
BRANCH   1  12
ATOM     11  N   UNL     1       0.688  -0.476  -1.203  0.00  0.00    -0.312 N 
ATOM     12  C   UNL     1       0.827  -1.799  -1.425  0.00  0.00    +0.248 C 
ATOM     13  O   UNL     1       0.383  -2.599  -0.625  0.00  0.00    -0.270 OA
ATOM     14  H   UNL     1       1.042   0.162  -1.842  0.00  0.00    +0.149 HD
BRANCH  11  16
ATOM     15  C   UNL     1      -0.019   1.526   0.010  0.00  0.00    +0.024 C 
ATOM     16  C   UNL     1       0.002  -0.004   0.002  0.00  0.00    +0.101 C 
ENDBRANCH  11  16
ENDBRANCH   1  12
BRANCH   6  17
ATOM     17  C   UNL     1      -0.683  -2.297  -3.878  0.00  0.00    +0.285 C 
BRANCH  17  18
ATOM     18  O   UNL     1      -0.951  -0.952  -4.279  0.00  0.00    -0.485 OA
BRANCH  18  19
ATOM     19  C   UNL     1      -2.256  -0.586  -4.380  0.00  0.00    +0.127 A 
ATOM     20  C   UNL     1      -2.932  -0.749  -5.580  0.00  0.00    -0.007 A 
ATOM     21  C   UNL     1      -4.258  -0.377  -5.681  0.00  0.00    +0.022 A 
ATOM     22  C   UNL     1      -4.912   0.158  -4.585  0.00  0.00    +0.019 A 
ATOM     23  C   UNL     1      -4.240   0.323  -3.388  0.00  0.00    +0.022 A 
ATOM     24  C   UNL     1      -2.915  -0.054  -3.281  0.00  0.00    -0.007 A 
ATOM     25  C   UNL     1      -2.184   0.118  -1.974  0.00  0.00    +0.047 C 
ATOM     26 BR   UNL     1      -6.728   0.667  -4.726  0.00  0.00    -0.050 Br
ATOM     27  C   UNL     1      -2.220  -1.332  -6.774  0.00  0.00    +0.047 C 
ENDBRANCH  18  19
ENDBRANCH  17  18
ENDBRANCH   6  17
TORSDOF 5
