REMARK  Name = ZINC48704654
REMARK  7 active torsions:
REMARK  status: ('A' for Active; 'I' for Inactive)
REMARK    1  A    between atoms: C_1  and  C_2
REMARK    2  A    between atoms: C_2  and  C_3
REMARK    3  A    between atoms: C_6  and  N_12
REMARK    4  A    between atoms: C_8  and  N_9
REMARK    5  A    between atoms: C_13  and  C_15
REMARK    6  A    between atoms: N_17  and  C_18
REMARK    7  A    between atoms: C_18  and  C_19
REMARK                            x       y       z     vdW  Elec       q    Type
REMARK                         _______ _______ _______ _____ _____    ______ ____
ROOT
ATOM      1  N   UNL     1       2.743  -1.883   4.593  0.00  0.00    -0.278 N 
ATOM      2  C   UNL     1       4.055  -2.182   4.517  0.00  0.00    +0.303 C 
ATOM      3  O   UNL     1       4.628  -2.135   3.447  0.00  0.00    -0.265 OA
ATOM      4  H   UNL     1       2.272  -1.979   5.435  0.00  0.00    +0.155 HD
ENDROOT
BRANCH   1   8
ATOM      5  C   UNL     1       0.715  -0.544   1.211  0.00  0.00    -0.017 A 
ATOM      6  C   UNL     1       0.383  -0.044   2.457  0.00  0.00    +0.007 A 
ATOM      7  C   UNL     1       1.054  -0.486   3.581  0.00  0.00    +0.024 A 
ATOM      8  C   UNL     1       2.062  -1.434   3.458  0.00  0.00    +0.036 A 
ATOM      9  C   UNL     1       2.393  -1.933   2.205  0.00  0.00    +0.056 A 
ATOM     10  C   UNL     1       1.715  -1.491   1.086  0.00  0.00    +0.131 A 
BRANCH  10  11
ATOM     11  N   UNL     1       2.063  -2.026  -0.250  0.00  0.00    +0.057 N 
ATOM     12  O   UNL     1       2.876  -2.915  -0.351  0.00  0.00    -0.126 OA
ATOM     13  O   UNL     1       1.534  -1.575  -1.238  0.00  0.00    -0.126 OA
ENDBRANCH  10  11
BRANCH   5  15
ATOM     14  C   UNL     1      -1.070  -1.094  -0.420  0.00  0.00    +0.009 C 
ATOM     15  C   UNL     1      -0.019  -0.059  -0.013  0.00  0.00    +0.034 C 
ENDBRANCH   5  15
ENDBRANCH   1   8
BRANCH   2  16
ATOM     16  C   UNL     1       4.805  -2.571   5.749  0.00  0.00    +0.299 C 
ATOM     17  O   UNL     1       4.233  -2.617   6.818  0.00  0.00    -0.265 OA
ATOM     18  N   UNL     1       6.117  -2.870   5.673  0.00  0.00    -0.304 N 
ATOM     19  H   UNL     1       6.574  -2.832   4.818  0.00  0.00    +0.149 HD
BRANCH  18  20
ATOM     20  C   UNL     1       6.852  -3.251   6.881  0.00  0.00    +0.152 C 
BRANCH  20  21
ATOM     21  C   UNL     1       8.312  -3.537   6.522  0.00  0.00    +0.228 C 
ATOM     22  C   UNL     1       9.065  -4.028   7.765  0.00  0.00    +0.275 C 
ATOM     23  O   UNL     1      10.427  -4.272   7.397  0.00  0.00    -0.485 OA
ATOM     24  C   UNL     1      11.041  -3.310   6.656  0.00  0.00    +0.162 A 
ATOM     25  C   UNL     1      12.426  -3.296   6.572  0.00  0.00    +0.049 A 
ATOM     26  C   UNL     1      13.064  -2.328   5.821  0.00  0.00    +0.004 A 
ATOM     27  C   UNL     1      12.325  -1.370   5.151  0.00  0.00    +0.004 A 
ATOM     28  C   UNL     1      10.945  -1.377   5.232  0.00  0.00    +0.049 A 
ATOM     29  C   UNL     1      10.299  -2.345   5.986  0.00  0.00    +0.163 A 
ATOM     30  O   UNL     1       8.940  -2.335   6.063  0.00  0.00    -0.480 OA
ENDBRANCH  20  21
ENDBRANCH  18  20
ENDBRANCH   2  16
TORSDOF 6
