REMARK  Name = ZINC08597051
REMARK  10 active torsions:
REMARK  status: ('A' for Active; 'I' for Inactive)
REMARK    1  A    between atoms: C_1  and  C_2
REMARK    2  A    between atoms: C_2  and  O_3
REMARK    3  A    between atoms: O_3  and  C_4
REMARK    4  A    between atoms: C_4  and  C_6
REMARK    5  A    between atoms: C_7  and  C_25
REMARK    6  A    between atoms: C_11  and  N_16
REMARK    7  A    between atoms: C_13  and  C_15
REMARK    8  A    between atoms: N_16  and  C_17
REMARK    9  A    between atoms: C_19  and  C_24
REMARK   10  A    between atoms: C_21  and  C_23
REMARK                            x       y       z     vdW  Elec       q    Type
REMARK                         _______ _______ _______ _____ _____    ______ ____
ROOT
ATOM      1  C   UNL     1       1.334  -2.812  -2.391  0.00  0.00    +0.112 A 
ATOM      2  C   UNL     1       2.623  -3.240  -2.485  0.00  0.00    +0.119 A 
ATOM      3  O   UNL     1       2.896  -3.580  -3.751  0.00  0.00    -0.441 OA
ATOM      4  C   UNL     1       1.829  -3.401  -4.549  0.00  0.00    +0.233 A 
ATOM      5  C   UNL     1       0.781  -2.915  -3.753  0.00  0.00    +0.094 A 
ATOM      6  C   UNL     1      -0.456  -2.648  -4.349  0.00  0.00    +0.138 A 
ATOM      7  N   UNL     1      -0.589  -2.872  -5.654  0.00  0.00    -0.217 NA
ATOM      8  C   UNL     1       0.421  -3.333  -6.368  0.00  0.00    +0.132 A 
ATOM      9  N   UNL     1       1.602  -3.589  -5.847  0.00  0.00    -0.197 NA
ATOM     10  C   UNL     1       0.215  -3.568  -7.842  0.00  0.00    +0.088 C 
ATOM     11  C   UNL     1       3.597  -3.319  -1.337  0.00  0.00    +0.087 C 
ENDROOT
BRANCH   1  12
ATOM     12  C   UNL     1       0.637  -2.349  -1.182  0.00  0.00    +0.343 C 
ATOM     13  O   UNL     1       0.041  -3.144  -0.482  0.00  0.00    -0.245 OA
BRANCH  12  14
ATOM     14  O   UNL     1       0.660  -1.042  -0.850  0.00  0.00    -0.461 OA
BRANCH  14  16
ATOM     15  C   UNL     1       0.099   0.846   0.551  0.00  0.00    +0.048 C 
ATOM     16  C   UNL     1      -0.038  -0.663   0.338  0.00  0.00    +0.229 C 
ENDBRANCH  14  16
ENDBRANCH  12  14
ENDBRANCH   1  12
BRANCH   6  17
ATOM     17  N   UNL     1      -1.515  -2.165  -3.599  0.00  0.00    -0.299 N 
ATOM     18  H   UNL     1      -1.382  -1.927  -2.668  0.00  0.00    +0.154 HD
BRANCH  17  19
ATOM     19  C   UNL     1      -2.776  -2.019  -4.185  0.00  0.00    +0.033 A 
ATOM     20  C   UNL     1      -3.204  -2.921  -5.150  0.00  0.00    +0.026 A 
ATOM     21  C   UNL     1      -4.450  -2.774  -5.726  0.00  0.00    -0.048 A 
ATOM     22  C   UNL     1      -5.272  -1.731  -5.343  0.00  0.00    +0.006 A 
ATOM     23  C   UNL     1      -4.850  -0.831  -4.381  0.00  0.00    -0.048 A 
ATOM     24  C   UNL     1      -3.607  -0.975  -3.798  0.00  0.00    +0.026 A 
ATOM     25  C   UNL     1      -5.749   0.305  -3.967  0.00  0.00    +0.044 C 
ATOM     26  C   UNL     1      -4.915  -3.752  -6.774  0.00  0.00    +0.044 C 
ENDBRANCH  17  19
ENDBRANCH   6  17
TORSDOF 5
