REMARK  Name = ZINC20982235
REMARK  10 active torsions:
REMARK  status: ('A' for Active; 'I' for Inactive)
REMARK    1  A    between atoms: C_1  and  C_2
REMARK    2  A    between atoms: C_2  and  C_4
REMARK    3  A    between atoms: C_2  and  O_17
REMARK    4  A    between atoms: N_6  and  C_7
REMARK    5  A    between atoms: C_9  and  N_14
REMARK    6  A    between atoms: O_17  and  C_18
REMARK    7  A    between atoms: C_18  and  C_20
REMARK    8  A    between atoms: C_20  and  C_21
REMARK    9  A    between atoms: C_21  and  C_23
REMARK   10  A    between atoms: C_21  and  N_30
REMARK                            x       y       z     vdW  Elec       q    Type
REMARK                         _______ _______ _______ _____ _____    ______ ____
ROOT
ATOM      1  C   UNL     1      -2.346   3.852   2.622  0.00  0.00    +0.310 C 
ATOM      2  O   UNL     1      -1.291   4.406   2.421  0.00  0.00    -0.251 OA
ENDROOT
BRANCH   1   3
ATOM      3  O   UNL     1      -2.763   3.641   3.881  0.00  0.00    -0.452 OA
BRANCH   3   5
ATOM      4  C   UNL     1      -2.264   5.545   5.315  0.00  0.00    +0.062 C 
ATOM      5  C   UNL     1      -1.897   4.106   4.949  0.00  0.00    +0.259 C 
BRANCH   5   6
ATOM      6  C   UNL     1      -2.070   3.220   6.156  0.00  0.00    +0.258 C 
ATOM      7  O   UNL     1      -2.847   2.290   6.120  0.00  0.00    -0.271 OA
ATOM      8  N   UNL     1      -1.361   3.463   7.277  0.00  0.00    -0.281 N 
ATOM      9  H   UNL     1      -0.590   4.248   7.281  0.00  0.00    +0.155 HD
BRANCH   8  10
ATOM     10  C   UNL     1      -1.604   2.715   8.435  0.00  0.00    +0.054 A 
ATOM     11  C   UNL     1      -2.843   2.118   8.630  0.00  0.00    +0.057 A 
ATOM     12  C   UNL     1      -3.080   1.381   9.773  0.00  0.00    +0.128 A 
ATOM     13  C   UNL     1      -2.086   1.235  10.723  0.00  0.00    +0.034 A 
ATOM     14  C   UNL     1      -0.852   1.828  10.533  0.00  0.00    +0.024 A 
ATOM     15  C   UNL     1      -0.606   2.563   9.389  0.00  0.00    +0.062 A 
ATOM     16 CL   UNL     1       0.947   3.302   9.147  0.00  0.00    -0.082 Cl
BRANCH  12  17
ATOM     17  N   UNL     1      -4.400   0.744   9.981  0.00  0.00    +0.056 N 
ATOM     18  O   UNL     1      -5.276   0.872   9.145  0.00  0.00    -0.126 OA
ATOM     19  O   UNL     1      -4.610   0.094  10.989  0.00  0.00    -0.126 OA
ENDBRANCH  12  17
ENDBRANCH   8  10
ENDBRANCH   5   6
ENDBRANCH   3   5
ENDBRANCH   1   3
BRANCH   1  20
ATOM     20  C   UNL     1      -3.193   3.398   1.462  0.00  0.00    +0.147 C 
BRANCH  20  21
ATOM     21  C   UNL     1      -2.493   3.756   0.149  0.00  0.00    +0.115 C 
BRANCH  21  22
ATOM     22  C   UNL     1      -3.394   3.414  -1.010  0.00  0.00    -0.027 A 
ATOM     23  C   UNL     1      -3.558   2.095  -1.391  0.00  0.00    +0.007 A 
ATOM     24  C   UNL     1      -4.388   1.780  -2.450  0.00  0.00    +0.020 A 
ATOM     25  C   UNL     1      -5.046   2.785  -3.136  0.00  0.00    +0.041 A 
ATOM     26  C   UNL     1      -4.877   4.105  -2.758  0.00  0.00    +0.020 A 
ATOM     27  C   UNL     1      -4.051   4.419  -1.695  0.00  0.00    +0.007 A 
ATOM     28 CL   UNL     1      -6.082   2.391  -4.472  0.00  0.00    -0.084 Cl
ENDBRANCH  21  22
BRANCH  21  29
ATOM     29  N   UNL     1      -1.244   2.998   0.038  0.00  0.00    -0.292 N 
ATOM     30  C   UNL     1      -0.200   3.516  -0.638  0.00  0.00    +0.298 C 
ATOM     31  O   UNL     1      -0.322   4.569  -1.233  0.00  0.00    -0.253 OA
ATOM     32  N   UNL     1       0.981   2.866  -0.656  0.00  0.00    -0.313 N 
ATOM     33  H   UNL     1      -1.159   2.007   0.506  0.00  0.00    +0.151 HD
ATOM     34  H   UNL     1       1.833   3.288  -1.207  0.00  0.00    +0.146 HD
ATOM     35  H   UNL     1       1.091   1.913  -0.118  0.00  0.00    +0.146 HD
ENDBRANCH  21  29
ENDBRANCH  20  21
ENDBRANCH   1  20
TORSDOF 9
