REMARK  Name = ZINC39344766
REMARK  12 active torsions:
REMARK  status: ('A' for Active; 'I' for Inactive)
REMARK    1  A    between atoms: C_1  and  C_2
REMARK    2  A    between atoms: C_6  and  C_8
REMARK    3  A    between atoms: C_8  and  N_9
REMARK    4  A    between atoms: N_9  and  C_10
REMARK    5  A    between atoms: N_16  and  C_29
REMARK    6  A    between atoms: C_17  and  C_25
REMARK    7  A    between atoms: C_19  and  N_21
REMARK    8  A    between atoms: C_22  and  C_24
REMARK    9  A    between atoms: C_25  and  O_27
REMARK   10  A    between atoms: O_27  and  C_28
REMARK   11  A    between atoms: C_29  and  C_30
REMARK   12  A    between atoms: C_30  and  C_31
REMARK                            x       y       z     vdW  Elec       q    Type
REMARK                         _______ _______ _______ _____ _____    ______ ____
ROOT
ATOM      1  C   UNL     1       1.219  -3.485   4.446  0.00  0.00    +0.044 A 
ATOM      2  C   UNL     1       2.571  -3.767   4.642  0.00  0.00    +0.033 A 
ATOM      3  C   UNL     1       2.930  -4.548   5.724  0.00  0.00    +0.015 A 
ATOM      4  C   UNL     1       1.956  -5.031   6.587  0.00  0.00    +0.105 A 
ATOM      5  N   UNL     1       0.675  -4.737   6.362  0.00  0.00    -0.348 N 
ATOM      6  C   UNL     1       0.294  -3.992   5.346  0.00  0.00    +0.107 A 
ATOM      7  N   UNL     1       2.513  -5.793   7.611  0.00  0.00    -0.301 N 
ATOM      8  C   UNL     1       3.970  -5.852   7.463  0.00  0.00    +0.208 C 
ATOM      9  C   UNL     1       4.280  -5.024   6.204  0.00  0.00    +0.138 C 
ATOM     10  H   UNL     1       0.002  -5.080   6.971  0.00  0.00    +0.167 HD
ENDROOT
BRANCH   9  11
ATOM     11  N   UNL     1       5.136  -3.884   6.540  0.00  0.00    -0.306 N 
ATOM     12  C   UNL     1       5.874  -3.290   5.582  0.00  0.00    +0.210 C 
ATOM     13  O   UNL     1       5.830  -3.699   4.441  0.00  0.00    -0.276 OA
ATOM     14  C   UNL     1       6.754  -2.116   5.928  0.00  0.00    +0.109 C 
ATOM     15  H   UNL     1       5.172  -3.556   7.453  0.00  0.00    +0.149 HD
ENDBRANCH   9  11
BRANCH   1  16
ATOM     16  N   UNL     1       0.805  -2.698   3.364  0.00  0.00    -0.339 N 
ATOM     17  H   UNL     1       1.460  -2.348   2.740  0.00  0.00    +0.146 HD
BRANCH  16  18
ATOM     18  C   UNL     1      -0.618  -2.405   3.175  0.00  0.00    +0.137 C 
BRANCH  18  24
ATOM     19  C   UNL     1      -0.893   2.119   1.052  0.00  0.00    +0.044 C 
ATOM     20  C   UNL     1      -0.927   0.618   0.933  0.00  0.00    -0.050 A 
ATOM     21  C   UNL     1      -1.121   0.026  -0.302  0.00  0.00    +0.003 A 
ATOM     22  C   UNL     1      -1.152  -1.351  -0.411  0.00  0.00    +0.001 A 
ATOM     23  C   UNL     1      -0.990  -2.138   0.714  0.00  0.00    +0.005 A 
ATOM     24  C   UNL     1      -0.795  -1.547   1.948  0.00  0.00    -0.030 A 
ATOM     25  C   UNL     1      -0.759  -0.169   2.057  0.00  0.00    +0.008 A 
ENDBRANCH  18  24
ENDBRANCH  16  18
ENDBRANCH   1  16
BRANCH   8  26
ATOM     26  C   UNL     1       4.419  -7.278   7.277  0.00  0.00    +0.330 C 
ATOM     27  O   UNL     1       3.663  -8.094   6.804  0.00  0.00    -0.249 OA
BRANCH  26  28
ATOM     28  O   UNL     1       5.660  -7.643   7.637  0.00  0.00    -0.467 OA
ATOM     29  C   UNL     1       6.019  -9.011   7.433  0.00  0.00    +0.280 C 
ENDBRANCH  26  28
ENDBRANCH   8  26
BRANCH   7  30
ATOM     30  C   UNL     1       1.753  -6.442   8.682  0.00  0.00    +0.112 C 
BRANCH  30  31
ATOM     31  C   UNL     1       1.564  -5.461   9.840  0.00  0.00    +0.056 C 
BRANCH  31  32
ATOM     32  C   UNL     1       0.817  -6.141  10.958  0.00  0.00    -0.021 A 
ATOM     33  C   UNL     1       1.397  -6.974  12.014  0.00  0.00    +0.003 A 
ATOM     34  C   UNL     1       2.696  -7.384  12.323  0.00  0.00    +0.010 A 
ATOM     35  C   UNL     1       2.914  -8.184  13.409  0.00  0.00    +0.001 A 
ATOM     36  C   UNL     1       1.855  -8.592  14.208  0.00  0.00    +0.002 A 
ATOM     37  C   UNL     1       0.566  -8.200  13.921  0.00  0.00    +0.026 A 
ATOM     38  C   UNL     1       0.321  -7.385  12.821  0.00  0.00    +0.047 A 
ATOM     39  N   UNL     1      -0.822  -6.836  12.284  0.00  0.00    -0.360 N 
ATOM     40  C   UNL     1      -0.506  -6.094  11.178  0.00  0.00    +0.087 A 
ATOM     41  H   UNL     1      -1.717  -6.955  12.638  0.00  0.00    +0.165 HD
ENDBRANCH  31  32
ENDBRANCH  30  31
ENDBRANCH   7  30
TORSDOF 9
