REMARK  Name = ZINC07087786
REMARK  7 active torsions:
REMARK  status: ('A' for Active; 'I' for Inactive)
REMARK    1  A    between atoms: C_1  and  C_2
REMARK    2  A    between atoms: C_2  and  C_4
REMARK    3  A    between atoms: C_2  and  N_9
REMARK    4  A    between atoms: C_10  and  C_12
REMARK    5  A    between atoms: C_12  and  N_13
REMARK    6  A    between atoms: C_16  and  C_20
REMARK    7  A    between atoms: C_16  and  C_21
REMARK                            x       y       z     vdW  Elec       q    Type
REMARK                         _______ _______ _______ _____ _____    ______ ____
ROOT
ATOM      1  N   UNL     1      -3.835   4.442  -1.822  0.00  0.00    -0.215 N 
ATOM      2  C   UNL     1      -2.736   4.943  -1.225  0.00  0.00    +0.251 C 
ATOM      3  O   UNL     1      -2.035   5.849  -1.623  0.00  0.00    -0.272 OA
ATOM      4  C   UNL     1      -2.558   4.140   0.048  0.00  0.00    +0.138 C 
ATOM      5  N   UNL     1      -3.684   3.190   0.018  0.00  0.00    -0.281 N 
ATOM      6  C   UNL     1      -4.371   3.444  -1.110  0.00  0.00    +0.310 C 
ATOM      7  O   UNL     1      -5.368   2.835  -1.446  0.00  0.00    -0.252 OA
ATOM      8  C   UNL     1      -2.651   5.046   1.278  0.00  0.00    +0.047 C 
ATOM      9  H   UNL     1      -3.889   2.514   0.682  0.00  0.00    +0.152 HD
ENDROOT
BRANCH   4  10
ATOM     10  C   UNL     1      -1.243   3.404   0.032  0.00  0.00    +0.022 A 
ATOM     11  C   UNL     1      -1.224   2.023   0.019  0.00  0.00    +0.047 A 
ATOM     12  C   UNL     1      -0.016   1.347   0.009  0.00  0.00    +0.124 A 
ATOM     13  C   UNL     1       1.173   2.055   0.002  0.00  0.00    +0.041 A 
ATOM     14  C   UNL     1       1.155   3.437   0.010  0.00  0.00    +0.041 A 
ATOM     15  C   UNL     1      -0.054   4.113   0.026  0.00  0.00    +0.129 A 
ATOM     16  F   UNL     1      -0.072   5.464   0.034  0.00  0.00    -0.205 F 
ATOM     17  F   UNL     1       0.002  -0.004   0.002  0.00  0.00    -0.205 F 
ENDBRANCH   4  10
BRANCH   1  18
ATOM     18  C   UNL     1      -4.376   4.930  -3.093  0.00  0.00    +0.213 C 
BRANCH  18  20
ATOM     19  N   UNL     1      -5.999   6.635  -3.853  0.00  0.00    -0.304 N 
ATOM     20  C   UNL     1      -5.369   6.032  -2.826  0.00  0.00    +0.232 C 
ATOM     21  O   UNL     1      -5.602   6.375  -1.686  0.00  0.00    -0.274 OA
ATOM     22  H   UNL     1      -5.813   6.360  -4.765  0.00  0.00    +0.149 HD
BRANCH  19  24
ATOM     23  C   UNL     1      -6.224   9.038  -3.457  0.00  0.00    +0.036 C 
ATOM     24  C   UNL     1      -6.964   7.706  -3.594  0.00  0.00    +0.136 C 
BRANCH  24  25
ATOM     25  C   UNL     1      -7.941   7.790  -4.738  0.00  0.00    +0.125 A 
ATOM     26  C   UNL     1      -9.264   8.007  -4.628  0.00  0.00    +0.046 A 
ATOM     27  C   UNL     1      -9.789   8.008  -5.941  0.00  0.00    +0.041 A 
ATOM     28  C   UNL     1      -8.756   7.791  -6.774  0.00  0.00    +0.195 A 
ATOM     29  O   UNL     1      -7.638   7.665  -6.040  0.00  0.00    -0.466 OA
ENDBRANCH  24  25
ENDBRANCH  19  24
ENDBRANCH  18  20
ENDBRANCH   1  18
TORSDOF 5
