REMARK  Name = ZINC40674210
REMARK  7 active torsions:
REMARK  status: ('A' for Active; 'I' for Inactive)
REMARK    1  A    between atoms: C_1  and  C_2
REMARK    2  A    between atoms: C_2  and  C_4
REMARK    3  A    between atoms: C_2  and  N_14
REMARK    4  A    between atoms: N_14  and  C_15
REMARK    5  A    between atoms: C_15  and  C_16
REMARK    6  A    between atoms: C_15  and  C_17
REMARK    7  A    between atoms: C_15  and  C_18
REMARK                            x       y       z     vdW  Elec       q    Type
REMARK                         _______ _______ _______ _____ _____    ______ ____
ROOT
ATOM      1  C   UNL     1       0.054   2.014  -0.896  0.00  0.00    -0.006 C 
ATOM      2  C   UNL     1       0.130   0.537  -0.503  0.00  0.00    -0.006 C 
ENDROOT
BRANCH   2   3
ATOM      3  C   UNL     1       1.116   0.367   0.624  0.00  0.00    +0.092 A 
ATOM      4  C   UNL     1       0.786   0.196   1.911  0.00  0.00    +0.051 A 
ATOM      5  C   UNL     1       2.052   0.075   2.645  0.00  0.00    +0.021 A 
ATOM      6  C   UNL     1       2.387  -0.115   3.985  0.00  0.00    +0.027 A 
ATOM      7  C   UNL     1       3.714  -0.186   4.351  0.00  0.00    +0.019 A 
ATOM      8  C   UNL     1       4.711  -0.070   3.392  0.00  0.00    +0.019 A 
ATOM      9  C   UNL     1       4.392   0.117   2.065  0.00  0.00    +0.048 A 
ATOM     10  C   UNL     1       3.061   0.192   1.675  0.00  0.00    +0.135 A 
ATOM     11  O   UNL     1       2.453   0.360   0.483  0.00  0.00    -0.461 OA
ATOM     12 BR   UNL     1       4.178  -0.443   6.166  0.00  0.00    -0.050 Br
ENDBRANCH   2   3
BRANCH   2  13
ATOM     13  N   UNL     1       0.568  -0.255  -1.661  0.00  0.00    +0.394 N 
ATOM     14  H   UNL     1      -0.002  -0.025  -2.461  0.00  0.00    -0.083 HD
ATOM     15  H   UNL     1       1.534  -0.046  -1.865  0.00  0.00    -0.083 HD
BRANCH  13  16
ATOM     16  C   UNL     1       0.431  -1.685  -1.355  0.00  0.00    +0.005 C 
ATOM     17  C   UNL     1       1.408  -2.065  -0.241  0.00  0.00    -0.001 C 
ATOM     18  C   UNL     1      -1.001  -1.974  -0.898  0.00  0.00    -0.001 C 
BRANCH  16  19
ATOM     19  C   UNL     1       0.737  -2.494  -2.589  0.00  0.00    +0.199 C 
ATOM     20  O   UNL     1       1.293  -3.567  -2.488  0.00  0.00    -0.278 OA
ATOM     21  N   UNL     1       0.391  -2.026  -3.804  0.00  0.00    -0.330 N 
ATOM     22  H   UNL     1      -0.054  -1.168  -3.885  0.00  0.00    +0.145 HD
ATOM     23  H   UNL     1       0.588  -2.546  -4.599  0.00  0.00    +0.145 HD
ENDBRANCH  16  19
ENDBRANCH  13  16
ENDBRANCH   2  13
TORSDOF 4
