REMARK  Name = ZINC03905608
REMARK  11 active torsions:
REMARK  status: ('A' for Active; 'I' for Inactive)
REMARK    1  A    between atoms: C_1  and  C_2
REMARK    2  A    between atoms: C_6  and  C_9
REMARK    3  A    between atoms: C_10  and  N_60
REMARK    4  A    between atoms: C_15  and  C_16
REMARK    5  A    between atoms: C_15  and  N_62
REMARK    6  A    between atoms: C_18  and  O_26
REMARK    7  A    between atoms: C_19  and  O_24
REMARK    8  A    between atoms: C_21  and  O_22
REMARK    9  A    between atoms: O_22  and  C_23
REMARK   10  A    between atoms: O_24  and  C_25
REMARK   11  A    between atoms: O_26  and  C_27
REMARK                            x       y       z     vdW  Elec       q    Type
REMARK                         _______ _______ _______ _____ _____    ______ ____
ROOT
ATOM      1  C   UNL     1      -6.502  -3.488   4.362  0.00  0.00    -0.072 C 
ATOM      2  C   UNL     1      -7.485  -3.255   3.211  0.00  0.00    -0.034 C 
ATOM      3  C   UNL     1      -7.451  -1.779   2.808  0.00  0.00    -0.080 C 
ATOM      4  C   UNL     1      -5.136  -1.584   3.498  0.00  0.00    -0.080 C 
ATOM      5  C   UNL     1      -5.101  -3.055   3.921  0.00  0.00    -0.034 C 
ATOM      6  N   UNL     1      -6.082  -1.432   2.372  0.00  0.00    +0.382 N 
ATOM      7  H   UNL     1      -5.803  -2.066   1.615  0.00  0.00    -0.081 HD
ENDROOT
BRANCH   1  15
ATOM      8  C   UNL     1      -4.613  -6.945   7.311  0.00  0.00    +0.036 C 
ATOM      9  C   UNL     1      -5.523  -6.677   6.111  0.00  0.00    +0.099 C 
ATOM     10  C   UNL     1      -5.552  -5.174   5.818  0.00  0.00    -0.047 C 
ATOM     11  C   UNL     1      -7.837  -5.387   5.052  0.00  0.00    -0.047 C 
ATOM     12  C   UNL     1      -7.785  -6.887   5.353  0.00  0.00    +0.099 C 
ATOM     13  O   UNL     1      -6.849  -7.125   6.407  0.00  0.00    -0.378 OA
ATOM     14  C   UNL     1      -7.346  -7.646   4.099  0.00  0.00    +0.036 C 
ATOM     15  N   UNL     1      -6.479  -4.929   4.693  0.00  0.00    +0.385 N 
ATOM     16  H   UNL     1      -6.155  -5.455   3.872  0.00  0.00    -0.081 HD
ENDBRANCH   1  15
BRANCH   6  17
ATOM     17  C   UNL     1      -6.049  -0.042   1.871  0.00  0.00    -0.039 C 
BRANCH  17  18
ATOM     18  C   UNL     1      -4.614   0.383   1.688  0.00  0.00    -0.019 A 
ATOM     19  C   UNL     1      -4.006   1.184   2.636  0.00  0.00    +0.054 A 
ATOM     20  C   UNL     1      -2.688   1.575   2.471  0.00  0.00    +0.162 A 
ATOM     21  C   UNL     1      -1.976   1.163   1.348  0.00  0.00    +0.165 A 
ATOM     22  C   UNL     1      -2.589   0.365   0.396  0.00  0.00    +0.095 A 
ATOM     23  C   UNL     1      -3.907  -0.030   0.569  0.00  0.00    +0.125 A 
BRANCH  23  24
ATOM     24  O   UNL     1      -4.508  -0.817  -0.362  0.00  0.00    -0.495 OA
ATOM     25  C   UNL     1      -3.720  -1.205  -1.490  0.00  0.00    +0.277 C 
ENDBRANCH  23  24
BRANCH  21  26
ATOM     26  O   UNL     1      -0.682   1.547   1.184  0.00  0.00    -0.491 OA
ATOM     27  C   UNL     1      -0.013   1.086   0.008  0.00  0.00    +0.277 C 
ENDBRANCH  21  26
BRANCH  20  28
ATOM     28  O   UNL     1      -2.089   2.364   3.405  0.00  0.00    -0.491 OA
ATOM     29  C   UNL     1      -2.879   2.749   4.531  0.00  0.00    +0.277 C 
ENDBRANCH  20  28
ENDBRANCH  17  18
ENDBRANCH   6  17
TORSDOF 6
