REMARK  Name = ZINC62768830
REMARK  6 active torsions:
REMARK  status: ('A' for Active; 'I' for Inactive)
REMARK    1  A    between atoms: C_1  and  C_2
REMARK    2  A    between atoms: C_5  and  C_19
REMARK    3  A    between atoms: C_7  and  N_8
REMARK    4  A    between atoms: N_8  and  C_9
REMARK    5  A    between atoms: C_9  and  C_10
REMARK    6  A    between atoms: N_12  and  C_13
REMARK                            x       y       z     vdW  Elec       q    Type
REMARK                         _______ _______ _______ _____ _____    ______ ____
ROOT
ATOM      1  N   UNL     1       0.025  -0.009   2.416  0.00  0.00    -0.335 N 
ATOM      2  H   UNL     1       0.011   0.961   2.419  0.00  0.00    +0.147 HD
ENDROOT
BRANCH   1   9
ATOM      3  C   UNL     1      -0.018   1.503   0.010  0.00  0.00    +0.045 C 
ATOM      4  C   UNL     1       0.002  -0.004   0.002  0.00  0.00    -0.030 A 
ATOM      5  C   UNL     1       0.006  -0.686  -1.200  0.00  0.00    +0.006 A 
ATOM      6  C   UNL     1       0.024  -2.066  -1.216  0.00  0.00    +0.019 A 
ATOM      7  C   UNL     1       0.040  -2.778  -0.015  0.00  0.00    +0.054 A 
ATOM      8  C   UNL     1       0.037  -2.090   1.198  0.00  0.00    +0.042 A 
ATOM      9  C   UNL     1       0.023  -0.703   1.203  0.00  0.00    +0.032 A 
BRANCH   7  10
ATOM     10  C   UNL     1       0.059  -4.210  -0.029  0.00  0.00    +0.099 C 
ATOM     11  N   UNL     1       0.074  -5.346  -0.040  0.00  0.00    -0.191 NA
ENDBRANCH   7  10
ENDBRANCH   1   9
BRANCH   1  12
ATOM     12  C   UNL     1       0.046  -0.745   3.682  0.00  0.00    +0.197 C 
BRANCH  12  13
ATOM     13  C   UNL     1       0.043   0.230   4.830  0.00  0.00    +0.230 C 
ATOM     14  O   UNL     1       0.025   1.423   4.613  0.00  0.00    -0.274 OA
ATOM     15  N   UNL     1       0.062  -0.223   6.099  0.00  0.00    -0.311 N 
ATOM     16  H   UNL     1       0.077  -1.178   6.273  0.00  0.00    +0.149 HD
BRANCH  15  17
ATOM     17  C   UNL     1       0.059   0.725   7.216  0.00  0.00    +0.077 C 
ATOM     18  C   UNL     1       1.495   1.164   7.519  0.00  0.00    +0.050 C 
ATOM     19  C   UNL     1       1.490   2.092   8.737  0.00  0.00    +0.161 C 
ATOM     20  O   UNL     1       0.901   1.415   9.848  0.00  0.00    -0.380 OA
ATOM     21  C   UNL     1      -0.457   1.022   9.640  0.00  0.00    +0.161 C 
ATOM     22  C   UNL     1      -0.530   0.051   8.459  0.00  0.00    +0.050 C 
ENDBRANCH  15  17
ENDBRANCH  12  13
ENDBRANCH   1  12
TORSDOF 5
