REMARK  Name = ZINC04567874
REMARK  6 active torsions:
REMARK  status: ('A' for Active; 'I' for Inactive)
REMARK    1  A    between atoms: C_1  and  C_2
REMARK    2  A    between atoms: C_2  and  N_51
REMARK    3  A    between atoms: C_5  and  C_6
REMARK    4  A    between atoms: C_15  and  C_23
REMARK    5  A    between atoms: C_17  and  C_21
REMARK    6  A    between atoms: C_18  and  N_20
REMARK                            x       y       z     vdW  Elec       q    Type
REMARK                         _______ _______ _______ _____ _____    ______ ____
ROOT
ATOM      1  C   UNL     1      -1.109  -2.269   0.597  0.00  0.00    -0.039 C 
ATOM      2  C   UNL     1      -1.135  -0.755   0.621  0.00  0.00    -0.021 C 
ATOM      3  C   UNL     1      -2.192  -0.084   1.111  0.00  0.00    +0.013 C 
ATOM      4  C   UNL     1       0.044  -0.043   0.087  0.00  0.00    +0.130 C 
ATOM      5  C   UNL     1       1.158  -0.723  -0.187  0.00  0.00    -0.031 C 
ATOM      6  C   UNL     1       1.235  -2.216   0.010  0.00  0.00    -0.042 C 
ATOM      7  C   UNL     1       2.379  -0.008  -0.714  0.00  0.00    +0.092 C 
ATOM      8  C   UNL     1       2.275   1.468  -0.454  0.00  0.00    +0.098 C 
ATOM      9  C   UNL     1       1.079   2.038  -0.165  0.00  0.00    +0.199 C 
ATOM     10  O   UNL     1      -0.041   1.297  -0.102  0.00  0.00    -0.441 OA
ATOM     11  N   UNL     1       0.255  -2.668   1.010  0.00  0.00    +0.385 N 
ATOM     12  H   UNL     1       0.472  -2.229   1.913  0.00  0.00    -0.081 HD
ENDROOT
BRANCH   3  13
ATOM     13  C   UNL     1      -3.420  -0.810   1.481  0.00  0.00    -0.025 A 
ATOM     14  C   UNL     1      -3.801  -1.952   0.770  0.00  0.00    +0.008 A 
ATOM     15  C   UNL     1      -4.948  -2.630   1.126  0.00  0.00    +0.001 A 
ATOM     16  C   UNL     1      -5.726  -2.177   2.176  0.00  0.00    +0.000 A 
ATOM     17  C   UNL     1      -5.358  -1.044   2.881  0.00  0.00    +0.001 A 
ATOM     18  C   UNL     1      -4.211  -0.359   2.541  0.00  0.00    +0.008 A 
ENDBRANCH   3  13
BRANCH   7  19
ATOM     19  C   UNL     1       2.494  -0.246  -2.198  0.00  0.00    -0.035 A 
ATOM     20  C   UNL     1       1.474   0.152  -3.042  0.00  0.00    +0.004 A 
ATOM     21  C   UNL     1       1.582  -0.062  -4.404  0.00  0.00    +0.000 A 
ATOM     22  C   UNL     1       2.704  -0.682  -4.920  0.00  0.00    +0.000 A 
ATOM     23  C   UNL     1       3.721  -1.085  -4.074  0.00  0.00    +0.000 A 
ATOM     24  C   UNL     1       3.616  -0.866  -2.713  0.00  0.00    +0.004 A 
ENDBRANCH   7  19
BRANCH   9  25
ATOM     25  N   UNL     1       1.011   3.389   0.068  0.00  0.00    -0.328 N 
ATOM     26  H   UNL     1       0.159   3.804   0.275  0.00  0.00    +0.145 HD
ATOM     27  H   UNL     1       1.815   3.930   0.024  0.00  0.00    +0.145 HD
ENDBRANCH   9  25
BRANCH  11  29
ATOM     28  C   UNL     1      -0.863  -4.620   1.988  0.00  0.00    -0.017 C 
ATOM     29  C   UNL     1       0.330  -4.139   1.159  0.00  0.00    -0.081 C 
ENDBRANCH  11  29
BRANCH   8  30
ATOM     30  C   UNL     1       3.452   2.282  -0.512  0.00  0.00    +0.101 C 
ATOM     31  N   UNL     1       4.386   2.927  -0.559  0.00  0.00    -0.191 NA
ENDBRANCH   8  30
TORSDOF 5
