REMARK  Name = ZINC04236632
REMARK  13 active torsions:
REMARK  status: ('A' for Active; 'I' for Inactive)
REMARK    1  A    between atoms: C_1  and  C_2
REMARK    2  A    between atoms: C_8  and  C_10
REMARK    3  A    between atoms: C_10  and  C_11
REMARK    4  A    between atoms: C_13  and  O_36
REMARK    5  A    between atoms: C_19  and  C_35
REMARK    6  A    between atoms: C_22  and  O_28
REMARK    7  A    between atoms: C_24  and  C_25
REMARK    8  A    between atoms: C_24  and  C_26
REMARK    9  A    between atoms: C_26  and  O_27
REMARK   10  A    between atoms: O_28  and  C_29
REMARK   11  A    between atoms: N_31  and  C_32
REMARK   12  A    between atoms: C_32  and  C_33
REMARK   13  A    between atoms: C_32  and  C_34
REMARK                            x       y       z     vdW  Elec       q    Type
REMARK                         _______ _______ _______ _____ _____    ______ ____
ROOT
ATOM      1  C   UNL     1       1.769  -0.331  -1.187  0.00  0.00    +0.032 C 
ATOM      2  C   UNL     1       0.352  -0.908  -1.206  0.00  0.00    +0.119 C 
ATOM      3  C   UNL     1      -0.397  -0.464   0.052  0.00  0.00    +0.032 C 
ATOM      4  C   UNL     1      -0.469   1.064   0.090  0.00  0.00    +0.007 C 
ATOM      5  C   UNL     1       0.948   1.641   0.110  0.00  0.00    +0.007 C 
ATOM      6  C   UNL     1       1.697   1.197  -1.148  0.00  0.00    -0.023 C 
ATOM      7  C   UNL     1       3.114   1.774  -1.129  0.00  0.00    +0.011 C 
ATOM      8  C   UNL     1       3.042   3.302  -1.090  0.00  0.00    +0.046 C 
ATOM      9  C   UNL     1       2.293   3.746   0.168  0.00  0.00    +0.186 C 
ATOM     10  C   UNL     1       0.876   3.169   0.148  0.00  0.00    +0.031 C 
ATOM     11  C   UNL     1       0.127   3.612   1.406  0.00  0.00    +0.017 C 
ATOM     12  C   UNL     1       0.957   1.704  -2.388  0.00  0.00    +0.012 C 
ENDROOT
BRANCH   2  13
ATOM     13  O   UNL     1      -0.339  -0.435  -2.364  0.00  0.00    -0.391 OA
ATOM     14  H   UNL     1      -1.246  -0.761  -2.442  0.00  0.00    +0.210 HD
ENDBRANCH   2  13
BRANCH   1  15
ATOM     15  C   UNL     1       2.518  -0.775  -2.445  0.00  0.00    +0.102 C 
BRANCH  15  23
ATOM     16  C   UNL     1       6.979  -4.310  -5.108  0.00  0.00    +0.007 C 
ATOM     17  C   UNL     1       5.503  -3.971  -4.893  0.00  0.00    -0.011 C 
ATOM     18  C   UNL     1       5.003  -4.660  -3.621  0.00  0.00    +0.022 C 
ATOM     19  C   UNL     1       3.515  -4.347  -3.427  0.00  0.00    +0.108 C 
ATOM     20  N   UNL     1       3.334  -2.889  -3.435  0.00  0.00    -0.301 N 
ATOM     21  C   UNL     1       3.854  -2.119  -4.573  0.00  0.00    +0.108 C 
ATOM     22  C   UNL     1       5.342  -2.456  -4.751  0.00  0.00    +0.022 C 
ATOM     23  C   UNL     1       2.697  -2.271  -2.421  0.00  0.00    +0.216 C 
ATOM     24  O   UNL     1       2.267  -2.918  -1.490  0.00  0.00    -0.276 OA
ENDBRANCH  15  23
ENDBRANCH   1  15
BRANCH  10  25
ATOM     25  C   UNL     1       0.136   3.675  -1.091  0.00  0.00    +0.166 C 
BRANCH  25  26
ATOM     26  O   UNL     1      -0.104   5.078  -0.963  0.00  0.00    -0.394 OA
ATOM     27  H   UNL     1      -0.571   5.468  -1.714  0.00  0.00    +0.209 HD
ENDBRANCH  25  26
ENDBRANCH  10  25
BRANCH   9  28
ATOM     28  O   UNL     1       2.224   5.196   0.204  0.00  0.00    -0.446 OA
BRANCH  28  29
ATOM     29  C   UNL     1       3.231   5.840   0.824  0.00  0.00    +0.401 C 
ATOM     30  O   UNL     1       4.142   5.208   1.321  0.00  0.00    -0.226 OA
ATOM     31  N   UNL     1       3.228   7.186   0.893  0.00  0.00    -0.279 N 
ATOM     32  H   UNL     1       2.501   7.691   0.496  0.00  0.00    +0.152 HD
BRANCH  31  33
ATOM     33  C   UNL     1       4.324   7.887   1.568  0.00  0.00    +0.070 C 
ATOM     34  C   UNL     1       5.482   8.086   0.588  0.00  0.00    +0.027 C 
ATOM     35  C   UNL     1       3.832   9.249   2.059  0.00  0.00    +0.027 C 
ENDBRANCH  31  33
ENDBRANCH  28  29
ENDBRANCH   9  28
TORSDOF 8
