REMARK  Name = ZINC05195768
REMARK  6 active torsions:
REMARK  status: ('A' for Active; 'I' for Inactive)
REMARK    1  A    between atoms: C_1  and  C_2
REMARK    2  A    between atoms: C_5  and  N_12
REMARK    3  A    between atoms: C_8  and  C_10
REMARK    4  A    between atoms: C_8  and  C_11
REMARK    5  A    between atoms: N_15  and  C_16
REMARK    6  A    between atoms: N_21  and  C_23
REMARK                            x       y       z     vdW  Elec       q    Type
REMARK                         _______ _______ _______ _____ _____    ______ ____
ROOT
ATOM      1  N   UNL     1      -1.388  -0.505  -0.012  0.00  0.00    -0.297 N 
ATOM      2  C   UNL     1      -1.646  -1.729   0.488  0.00  0.00    +0.300 C 
ATOM      3  O   UNL     1      -0.740  -2.408   0.933  0.00  0.00    -0.253 OA
ATOM      4  N   UNL     1      -2.908  -2.202   0.495  0.00  0.00    -0.295 N 
ATOM      5  H   UNL     1      -2.111   0.036  -0.367  0.00  0.00    +0.151 HD
ATOM      6  H   UNL     1      -3.631  -1.661   0.140  0.00  0.00    +0.151 HD
ENDROOT
BRANCH   1  10
ATOM      7  C   UNL     1       2.868  -0.459  -2.527  0.00  0.00    +0.007 C 
ATOM      8  C   UNL     1       2.142   0.043  -1.277  0.00  0.00    -0.012 C 
ATOM      9  C   UNL     1       0.710  -0.493  -1.269  0.00  0.00    +0.025 C 
ATOM     10  C   UNL     1      -0.016   0.009  -0.020  0.00  0.00    +0.075 C 
ATOM     11  C   UNL     1      -0.045   1.539  -0.027  0.00  0.00    +0.028 C 
ATOM     12  C   UNL     1       1.388   2.076  -0.035  0.00  0.00    -0.033 C 
ATOM     13  C   UNL     1       2.114   1.573  -1.285  0.00  0.00    +0.009 C 
ATOM     14  C   UNL     1       1.360   3.605  -0.042  0.00  0.00    +0.011 C 
ATOM     15  C   UNL     1       2.123   1.585   1.214  0.00  0.00    +0.011 C 
ENDBRANCH   1  10
BRANCH   4  16
ATOM     16  C   UNL     1      -3.189  -3.533   1.039  0.00  0.00    +0.101 C 
ATOM     17  C   UNL     1      -3.150  -4.605  -0.075  0.00  0.00    +0.120 C 
ATOM     18  C   UNL     1      -4.255  -5.568   0.299  0.00  0.00    +0.222 C 
ATOM     19  O   UNL     1      -4.381  -6.689  -0.148  0.00  0.00    -0.275 OA
ATOM     20  N   UNL     1      -5.078  -5.002   1.198  0.00  0.00    -0.270 N 
ATOM     21  C   UNL     1      -4.652  -3.635   1.524  0.00  0.00    +0.136 C 
BRANCH  20  22
ATOM     22  C   UNL     1      -6.196  -5.634   1.754  0.00  0.00    +0.036 A 
ATOM     23  C   UNL     1      -6.591  -6.882   1.292  0.00  0.00    +0.025 A 
ATOM     24  C   UNL     1      -7.691  -7.507   1.846  0.00  0.00    +0.022 A 
ATOM     25  C   UNL     1      -8.408  -6.884   2.853  0.00  0.00    +0.041 A 
ATOM     26  C   UNL     1      -8.020  -5.637   3.311  0.00  0.00    +0.022 A 
ATOM     27  C   UNL     1      -6.917  -5.011   2.764  0.00  0.00    +0.025 A 
ATOM     28 CL   UNL     1      -9.794  -7.668   3.542  0.00  0.00    -0.084 Cl
ENDBRANCH  20  22
ENDBRANCH   4  16
TORSDOF 3
