REMARK  Name = ZINC39273138
REMARK  7 active torsions:
REMARK  status: ('A' for Active; 'I' for Inactive)
REMARK    1  A    between atoms: C_1  and  C_2
REMARK    2  A    between atoms: C_4  and  C_16
REMARK    3  A    between atoms: C_6  and  C_14
REMARK    4  A    between atoms: C_7  and  N_13
REMARK    5  A    between atoms: N_18  and  C_27
REMARK    6  A    between atoms: C_20  and  C_21
REMARK    7  A    between atoms: C_27  and  C_28
REMARK                            x       y       z     vdW  Elec       q    Type
REMARK                         _______ _______ _______ _____ _____    ______ ____
ROOT
ATOM      1  C   UNL     1      -2.755   0.867   0.756  0.00  0.00    +0.010 A 
ATOM      2  C   UNL     1      -2.315   1.276   1.966  0.00  0.00    +0.114 A 
ATOM      3  N   UNL     1      -2.716   2.553   2.146  0.00  0.00    -0.266 N 
ATOM      4  N   UNL     1      -3.429   2.950   1.008  0.00  0.00    -0.171 NA
ATOM      5  C   UNL     1      -3.451   1.939   0.165  0.00  0.00    +0.097 A 
ENDROOT
BRANCH   1   9
ATOM      6  C   UNL     1      -0.018   1.503   0.010  0.00  0.00    +0.067 C 
ATOM      7  C   UNL     1       0.002  -0.004   0.002  0.00  0.00    +0.066 C 
ATOM      8  C   UNL     1      -1.064  -0.768   0.003  0.00  0.00    +0.030 C 
ATOM      9  C   UNL     1      -2.536  -0.493   0.145  0.00  0.00    +0.101 C 
ATOM     10  C   UNL     1      -3.065  -1.577   1.066  0.00  0.00    +0.098 C 
ATOM     11  C   UNL     1      -2.303  -2.628   1.436  0.00  0.00    +0.195 C 
ATOM     12  O   UNL     1      -1.023  -2.853   1.091  0.00  0.00    -0.448 OA
ATOM     13  C   UNL     1      -0.529  -2.198  -0.081  0.00  0.00    +0.343 C 
ATOM     14  N   UNL     1       0.921  -1.985  -0.028  0.00  0.00    -0.138 NA
ATOM     15  N   UNL     1       1.127  -0.765  -0.013  0.00  0.00    -0.155 NA
BRANCH  11  16
ATOM     16  N   UNL     1      -2.896  -3.562   2.247  0.00  0.00    -0.329 N 
ATOM     17  H   UNL     1      -3.818  -3.448   2.526  0.00  0.00    +0.145 HD
ATOM     18  H   UNL     1      -2.393  -4.337   2.542  0.00  0.00    +0.145 HD
ENDBRANCH  11  16
BRANCH  10  19
ATOM     19  C   UNL     1      -4.407  -1.482   1.556  0.00  0.00    +0.101 C 
ATOM     20  N   UNL     1      -5.472  -1.407   1.944  0.00  0.00    -0.191 NA
ENDBRANCH  10  19
ENDBRANCH   1   9
BRANCH   5  21
ATOM     21  C   UNL     1      -4.097   1.930  -1.171  0.00  0.00    +0.002 A 
ATOM     22  C   UNL     1      -3.526   1.211  -2.219  0.00  0.00    +0.010 A 
ATOM     23  C   UNL     1      -4.131   1.206  -3.459  0.00  0.00    +0.001 A 
ATOM     24  C   UNL     1      -5.303   1.914  -3.663  0.00  0.00    +0.000 A 
ATOM     25  C   UNL     1      -5.874   2.629  -2.626  0.00  0.00    +0.001 A 
ATOM     26  C   UNL     1      -5.280   2.636  -1.380  0.00  0.00    +0.010 A 
ENDBRANCH   5  21
BRANCH   3  27
ATOM     27  C   UNL     1      -2.450   3.379   3.326  0.00  0.00    +0.178 C 
BRANCH  27  28
ATOM     28  C   UNL     1      -1.778   4.659   2.903  0.00  0.00    -0.026 A 
ATOM     29  C   UNL     1      -0.399   4.723   2.827  0.00  0.00    +0.006 A 
ATOM     30  C   UNL     1       0.218   5.897   2.438  0.00  0.00    +0.015 A 
ATOM     31  C   UNL     1      -0.544   7.008   2.124  0.00  0.00    +0.018 A 
ATOM     32  C   UNL     1      -1.923   6.943   2.200  0.00  0.00    +0.015 A 
ATOM     33  C   UNL     1      -2.540   5.767   2.584  0.00  0.00    +0.006 A 
ATOM     34 BR   UNL     1       0.300   8.614   1.593  0.00  0.00    -0.050 Br
ENDBRANCH  27  28
ENDBRANCH   3  27
TORSDOF 6
