REMARK  Name = ZINC22133182
REMARK  7 active torsions:
REMARK  status: ('A' for Active; 'I' for Inactive)
REMARK    1  A    between atoms: C_1  and  C_2
REMARK    2  A    between atoms: C_4  and  N_25
REMARK    3  A    between atoms: C_6  and  S_8
REMARK    4  A    between atoms: S_8  and  C_9
REMARK    5  A    between atoms: C_9  and  C_11
REMARK    6  A    between atoms: C_9  and  C_12
REMARK    7  A    between atoms: C_22  and  C_24
REMARK                            x       y       z     vdW  Elec       q    Type
REMARK                         _______ _______ _______ _____ _____    ______ ____
ROOT
ATOM      1  C   UNL     1      -2.462  -0.177   0.138  0.00  0.00    +0.137 C 
ATOM      2  C   UNL     1      -3.012   0.140  -1.254  0.00  0.00    +0.029 C 
ENDROOT
BRANCH   1   3
ATOM      3  C   UNL     1      -1.092  -0.792   0.008  0.00  0.00    +0.233 C 
ATOM      4  O   UNL     1      -0.959  -1.996   0.061  0.00  0.00    -0.274 OA
ATOM      5  N   UNL     1      -0.013  -0.003  -0.167  0.00  0.00    -0.267 N 
ATOM      6  C   UNL     1      -0.055   1.382  -0.356  0.00  0.00    +0.040 A 
ATOM      7  C   UNL     1      -1.159   2.236  -0.401  0.00  0.00    +0.024 A 
ATOM      8  C   UNL     1      -0.984   3.588  -0.603  0.00  0.00    +0.002 A 
ATOM      9  C   UNL     1       0.287   4.111  -0.753  0.00  0.00    +0.000 A 
ATOM     10  C   UNL     1       1.385   3.273  -0.704  0.00  0.00    +0.005 A 
ATOM     11  C   UNL     1       1.214   1.916  -0.507  0.00  0.00    -0.024 A 
ATOM     12  C   UNL     1       2.223   0.793  -0.412  0.00  0.00    +0.059 C 
ATOM     13  C   UNL     1       1.376  -0.470  -0.186  0.00  0.00    +0.083 C 
ATOM     14  C   UNL     1       1.736  -1.118   1.152  0.00  0.00    +0.029 C 
ENDBRANCH   1   3
BRANCH   1  15
ATOM     15  S   UNL     1      -3.568  -1.341   0.973  0.00  0.00    -0.073 S 
BRANCH  15  21
ATOM     16  C   UNL     1      -8.412  -0.706   2.497  0.00  0.00    +0.066 C 
ATOM     17  C   UNL     1      -7.191  -0.120   1.835  0.00  0.00    +0.044 A 
ATOM     18  C   UNL     1      -7.210   1.177   1.359  0.00  0.00    +0.066 A 
ATOM     19  C   UNL     1      -6.058   1.681   0.753  0.00  0.00    +0.121 A 
ATOM     20  N   UNL     1      -4.987   0.900   0.654  0.00  0.00    -0.207 NA
ATOM     21  C   UNL     1      -5.009  -0.339   1.124  0.00  0.00    +0.191 A 
ATOM     22  N   UNL     1      -6.091  -0.845   1.699  0.00  0.00    -0.227 NA
BRANCH  19  23
ATOM     23  N   UNL     1      -6.031   2.975   0.261  0.00  0.00    -0.343 N 
ATOM     24  H   UNL     1      -5.119   3.364  -0.215  0.00  0.00    +0.144 HD
ATOM     25  H   UNL     1      -6.922   3.615   0.347  0.00  0.00    +0.144 HD
ENDBRANCH  19  23
ENDBRANCH  15  21
ENDBRANCH   1  15
TORSDOF 4
