REMARK  Name = ZINC36629490
REMARK  7 active torsions:
REMARK  status: ('A' for Active; 'I' for Inactive)
REMARK    1  A    between atoms: C_1  and  C_2
REMARK    2  A    between atoms: C_2  and  C_3
REMARK    3  A    between atoms: C_2  and  N_4
REMARK    4  A    between atoms: C_10  and  N_15
REMARK    5  A    between atoms: C_11  and  C_12
REMARK    6  A    between atoms: C_16  and  C_18
REMARK    7  A    between atoms: N_23  and  C_25
REMARK                            x       y       z     vdW  Elec       q    Type
REMARK                         _______ _______ _______ _____ _____    ______ ____
ROOT
ATOM      1  N   UNL     1      -1.658  -0.654   0.347  0.00  0.00    +0.384 N 
ATOM      2  C   UNL     1      -1.772  -2.084   0.660  0.00  0.00    -0.073 C 
ATOM      3  C   UNL     1      -3.131  -2.379   1.302  0.00  0.00    +0.018 C 
ATOM      4  C   UNL     1      -4.210  -1.794   0.401  0.00  0.00    -0.027 A 
ATOM      5  C   UNL     1      -3.887  -0.873  -0.536  0.00  0.00    -0.021 A 
ATOM      6  S   UNL     1      -5.418  -0.488  -1.329  0.00  0.00    -0.079 S 
ATOM      7  C   UNL     1      -6.450  -1.494  -0.465  0.00  0.00    +0.084 A 
ATOM      8  C   UNL     1      -5.618  -2.135   0.442  0.00  0.00    +0.068 A 
ATOM      9  C   UNL     1      -2.520  -0.328  -0.804  0.00  0.00    -0.035 C 
ATOM     10  H   UNL     1      -1.947  -0.112   1.147  0.00  0.00    -0.081 HD
ENDROOT
BRANCH   8  11
ATOM     11  C   UNL     1      -6.141  -3.114   1.400  0.00  0.00    +0.244 C 
ATOM     12  O   UNL     1      -6.525  -2.748   2.495  0.00  0.00    -0.270 OA
ATOM     13  N   UNL     1      -6.196  -4.419   1.067  0.00  0.00    -0.325 N 
ATOM     14  H   UNL     1      -5.891  -4.710   0.194  0.00  0.00    +0.145 HD
ATOM     15  H   UNL     1      -6.542  -5.066   1.701  0.00  0.00    +0.145 HD
ENDBRANCH   8  11
BRANCH   7  16
ATOM     16  N   UNL     1      -7.819  -1.648  -0.622  0.00  0.00    -0.279 N 
ATOM     17  C   UNL     1      -8.474  -0.939  -1.562  0.00  0.00    +0.223 C 
ATOM     18  O   UNL     1      -7.865  -0.166  -2.272  0.00  0.00    -0.275 OA
ATOM     19  H   UNL     1      -8.306  -2.266  -0.054  0.00  0.00    +0.155 HD
BRANCH  17  20
ATOM     20  C   UNL     1      -9.962  -1.106  -1.733  0.00  0.00    +0.102 C 
ATOM     21  C   UNL     1     -10.720  -0.631  -0.472  0.00  0.00    +0.110 C 
ATOM     22  C   UNL     1     -11.063   0.812  -0.767  0.00  0.00    +0.221 C 
ATOM     23  O   UNL     1     -11.408   1.628   0.061  0.00  0.00    -0.275 OA
ATOM     24  N   UNL     1     -10.930   1.059  -2.082  0.00  0.00    -0.271 N 
ATOM     25  C   UNL     1     -10.507  -0.143  -2.811  0.00  0.00    +0.127 C 
BRANCH  24  26
ATOM     26  C   UNL     1     -11.165   2.303  -2.679  0.00  0.00    +0.036 A 
ATOM     27  C   UNL     1     -11.457   3.409  -1.892  0.00  0.00    +0.023 A 
ATOM     28  C   UNL     1     -11.688   4.635  -2.485  0.00  0.00    +0.002 A 
ATOM     29  C   UNL     1     -11.630   4.761  -3.861  0.00  0.00    +0.000 A 
ATOM     30  C   UNL     1     -11.341   3.661  -4.647  0.00  0.00    +0.002 A 
ATOM     31  C   UNL     1     -11.102   2.434  -4.060  0.00  0.00    +0.023 A 
ENDBRANCH  24  26
ENDBRANCH  17  20
ENDBRANCH   7  16
BRANCH   1  33
ATOM     32  C   UNL     1      -0.158   1.136  -0.392  0.00  0.00    -0.014 C 
ATOM     33  C   UNL     1      -0.262  -0.335   0.018  0.00  0.00    -0.074 C 
ATOM     34  C   UNL     1       0.620  -0.586   1.243  0.00  0.00    -0.014 C 
ENDBRANCH   1  33
TORSDOF 5
