REMARK  Name = ZINC13298315
REMARK  14 active torsions:
REMARK  status: ('A' for Active; 'I' for Inactive)
REMARK    1  A    between atoms: C_1  and  C_2
REMARK    2  A    between atoms: C_2  and  C_3
REMARK    3  A    between atoms: C_3  and  C_4
REMARK    4  A    between atoms: C_7  and  C_11
REMARK    5  A    between atoms: C_10  and  N_60
REMARK    6  A    between atoms: N_13  and  C_14
REMARK    7  A    between atoms: C_14  and  C_16
REMARK    8  A    between atoms: C_14  and  C_32
REMARK    9  A    between atoms: C_18  and  O_31
REMARK   10  A    between atoms: C_20  and  O_30
REMARK   11  A    between atoms: C_22  and  O_29
REMARK   12  A    between atoms: C_24  and  S_27
REMARK   13  A    between atoms: S_27  and  C_28
REMARK   14  A    between atoms: C_32  and  C_34
REMARK                            x       y       z     vdW  Elec       q    Type
REMARK                         _______ _______ _______ _____ _____    ______ ____
ROOT
ATOM      1  C   UNL     1       2.422   1.183  -0.015  0.00  0.00    +0.122 C 
ENDROOT
BRANCH   1   2
ATOM      2  C   UNL     1       3.499   2.078  -0.630  0.00  0.00    +0.172 C 
ATOM      3  C   UNL     1       3.045   2.547  -2.015  0.00  0.00    +0.176 C 
ATOM      4  C   UNL     1       4.101   3.490  -2.598  0.00  0.00    +0.177 C 
ATOM      5  C   UNL     1       4.316   4.659  -1.631  0.00  0.00    +0.184 C 
ATOM      6  C   UNL     1       4.722   4.109  -0.261  0.00  0.00    +0.207 C 
ATOM      7  O   UNL     1       3.711   3.215   0.210  0.00  0.00    -0.356 OA
BRANCH   6   8
ATOM      8  S   UNL     1       4.911   5.481   0.910  0.00  0.00    -0.131 S 
ATOM      9  C   UNL     1       5.674   4.714   2.365  0.00  0.00    +0.087 C 
ENDBRANCH   6   8
BRANCH   5  10
ATOM     10  O   UNL     1       3.105   5.406  -1.508  0.00  0.00    -0.386 OA
ATOM     11  H   UNL     1       3.168   6.162  -0.909  0.00  0.00    +0.210 HD
ENDBRANCH   5  10
BRANCH   4  12
ATOM     12  O   UNL     1       5.329   2.782  -2.776  0.00  0.00    -0.386 OA
ATOM     13  H   UNL     1       6.044   3.319  -3.143  0.00  0.00    +0.210 HD
ENDBRANCH   4  12
BRANCH   3  14
ATOM     14  O   UNL     1       2.888   1.416  -2.874  0.00  0.00    -0.387 OA
ATOM     15  H   UNL     1       2.601   1.639  -3.770  0.00  0.00    +0.210 HD
ENDBRANCH   3  14
ENDBRANCH   1   2
BRANCH   1  18
ATOM     16  C   UNL     1      -0.014   1.209   0.009  0.00  0.00    +0.200 C 
ATOM     17  O   UNL     1       0.002  -0.004   0.002  0.00  0.00    -0.278 OA
ATOM     18  N   UNL     1       1.143   1.898   0.001  0.00  0.00    -0.310 N 
ATOM     19  H   UNL     1       1.130   2.868   0.007  0.00  0.00    +0.149 HD
BRANCH  16  22
ATOM     20  C   UNL     1      -3.198   2.245   1.575  0.00  0.00    -0.029 C 
ATOM     21  C   UNL     1      -1.670   2.419   1.448  0.00  0.00    -0.005 C 
ATOM     22  C   UNL     1      -1.330   1.944   0.019  0.00  0.00    +0.019 C 
ATOM     23  C   UNL     1      -3.652   1.681   0.211  0.00  0.00    -0.075 C 
ATOM     24  C   UNL     1      -2.544   0.879  -1.803  0.00  0.00    -0.095 C 
ATOM     25  N   UNL     1      -2.444   1.052  -0.320  0.00  0.00    +0.386 N 
ATOM     26  H   UNL     1      -2.305   0.134   0.119  0.00  0.00    -0.081 HD
BRANCH  20  27
ATOM     27  C   UNL     1      -3.866   3.596   1.839  0.00  0.00    +0.001 C 
BRANCH  27  29
ATOM     28  C   UNL     1      -6.029   4.737   2.350  0.00  0.00    +0.004 C 
ATOM     29  C   UNL     1      -5.361   3.386   2.085  0.00  0.00    -0.003 C 
ENDBRANCH  27  29
ENDBRANCH  20  27
ENDBRANCH  16  22
ENDBRANCH   1  18
BRANCH   1  30
ATOM     30  C   UNL     1       2.819   0.817   1.417  0.00  0.00    +0.100 C 
ATOM     31  C   UNL     1       1.742  -0.079   2.032  0.00  0.00    +0.026 C 
ATOM     32 CL   UNL     1       4.393  -0.063   1.397  0.00  0.00    -0.120 Cl
ENDBRANCH   1  30
TORSDOF 10
