REMARK  Name = ZINC67175254
REMARK  8 active torsions:
REMARK  status: ('A' for Active; 'I' for Inactive)
REMARK    1  A    between atoms: C_1  and  C_2
REMARK    2  A    between atoms: N_4  and  C_5
REMARK    3  A    between atoms: C_8  and  O_27
REMARK    4  A    between atoms: C_9  and  C_11
REMARK    5  A    between atoms: N_13  and  C_14
REMARK    6  A    between atoms: C_14  and  C_15
REMARK    7  A    between atoms: C_15  and  C_16
REMARK    8  A    between atoms: C_16  and  C_17
REMARK                            x       y       z     vdW  Elec       q    Type
REMARK                         _______ _______ _______ _____ _____    ______ ____
ROOT
ATOM      1  C   UNL     1      -3.736  -4.842  -0.376  0.00  0.00    +0.248 C 
ATOM      2  O   UNL     1      -3.763  -6.055  -0.461  0.00  0.00    -0.270 OA
ATOM      3  N   UNL     1      -4.887  -4.141  -0.373  0.00  0.00    -0.311 N 
ATOM      4  H   UNL     1      -4.866  -3.174  -0.306  0.00  0.00    +0.149 HD
ENDROOT
BRANCH   1   9
ATOM      5  C   UNL     1      -1.193  -2.091  -0.088  0.00  0.00    +0.034 A 
ATOM      6  C   UNL     1      -0.006  -2.818  -0.091  0.00  0.00    +0.027 A 
ATOM      7  C   UNL     1      -0.033  -4.194  -0.187  0.00  0.00    +0.048 A 
ATOM      8  C   UNL     1      -1.245  -4.863  -0.281  0.00  0.00    +0.129 A 
ATOM      9  C   UNL     1      -2.443  -4.138  -0.277  0.00  0.00    +0.080 A 
ATOM     10  C   UNL     1      -2.409  -2.745  -0.175  0.00  0.00    +0.040 A 
BRANCH   5  14
ATOM     11  C   UNL     1      -0.177   1.504  -0.566  0.00  0.00    +0.109 C 
ATOM     12  C   UNL     1      -0.161  -0.003  -0.582  0.00  0.00    +0.214 C 
ATOM     13  O   UNL     1       0.748  -0.594  -1.126  0.00  0.00    -0.276 OA
ATOM     14  N   UNL     1      -1.156  -0.694   0.009  0.00  0.00    -0.286 N 
ATOM     15  H   UNL     1      -1.847  -0.224   0.502  0.00  0.00    +0.155 HD
ENDBRANCH   5  14
BRANCH   8  16
ATOM     16  O   UNL     1      -1.269  -6.217  -0.375  0.00  0.00    -0.506 OA
ATOM     17  H   UNL     1      -1.310  -6.670   0.478  0.00  0.00    +0.292 HD
ENDBRANCH   8  16
ENDBRANCH   1   9
BRANCH   3  18
ATOM     18  C   UNL     1      -6.171  -4.841  -0.471  0.00  0.00    +0.105 C 
BRANCH  18  19
ATOM     19  C   UNL     1      -7.311  -3.821  -0.445  0.00  0.00    +0.026 C 
BRANCH  19  20
ATOM     20  C   UNL     1      -8.651  -4.551  -0.548  0.00  0.00    +0.078 C 
BRANCH  20  21
ATOM     21  C   UNL     1      -9.774  -3.546  -0.522  0.00  0.00    +0.134 A 
ATOM     22  N   UNL     1     -10.389  -3.096   0.539  0.00  0.00    -0.134 NA
ATOM     23  N   UNL     1     -11.289  -2.244   0.191  0.00  0.00    -0.134 NA
ATOM     24  C   UNL     1     -11.285  -2.111  -1.105  0.00  0.00    +0.133 A 
ATOM     25  N   UNL     1     -10.330  -2.936  -1.593  0.00  0.00    -0.315 N 
ATOM     26  C   UNL     1      -9.987  -3.136  -3.001  0.00  0.00    +0.125 C 
ATOM     27  C   UNL     1     -10.306  -1.861  -3.787  0.00  0.00    +0.022 C 
ATOM     28  C   UNL     1     -11.748  -1.912  -4.289  0.00  0.00    +0.002 C 
ATOM     29  C   UNL     1     -12.720  -1.988  -3.115  0.00  0.00    +0.008 C 
ATOM     30  C   UNL     1     -12.161  -1.205  -1.930  0.00  0.00    +0.076 C 
ENDBRANCH  20  21
ENDBRANCH  19  20
ENDBRANCH  18  19
ENDBRANCH   3  18
TORSDOF 7
