REMARK  Name = ZINC63489305
REMARK  11 active torsions:
REMARK  status: ('A' for Active; 'I' for Inactive)
REMARK    1  A    between atoms: C_1  and  C_2
REMARK    2  A    between atoms: C_2  and  C_3
REMARK    3  A    between atoms: C_6  and  N_9
REMARK    4  A    between atoms: C_10  and  C_12
REMARK    5  A    between atoms: C_12  and  S_13
REMARK    6  A    between atoms: S_13  and  C_14
REMARK    7  A    between atoms: C_18  and  C_29
REMARK    8  A    between atoms: N_20  and  C_21
REMARK    9  A    between atoms: C_24  and  O_27
REMARK   10  A    between atoms: O_27  and  C_28
REMARK   11  A    between atoms: C_29  and  C_30
REMARK                            x       y       z     vdW  Elec       q    Type
REMARK                         _______ _______ _______ _____ _____    ______ ____
ROOT
ATOM      1  C   UNL     1      -9.920  -3.095  -2.698  0.00  0.00    +0.217 C 
ATOM      2  N   UNL     1      -9.851  -4.343  -1.905  0.00  0.00    -0.226 NA
ATOM      3  N   UNL     1      -9.970  -3.897  -0.508  0.00  0.00    -0.234 NA
ATOM      4  C   UNL     1     -10.955  -2.787  -0.595  0.00  0.00    +0.163 C 
ATOM      5  N   UNL     1     -10.623  -2.104  -1.863  0.00  0.00    -0.287 N 
ATOM      6  H   UNL     1     -10.604  -4.969  -2.150  0.00  0.00    +0.143 HD
ATOM      7  H   UNL     1      -9.083  -3.567  -0.157  0.00  0.00    +0.143 HD
ENDROOT
BRANCH   5   8
ATOM      8  C   UNL     1     -10.919  -0.780  -2.205  0.00  0.00    +0.033 A 
ATOM      9  C   UNL     1      -9.893   0.145  -2.349  0.00  0.00    +0.027 A 
ATOM     10  C   UNL     1     -10.186   1.452  -2.687  0.00  0.00    +0.047 A 
ATOM     11  C   UNL     1     -11.503   1.841  -2.881  0.00  0.00    +0.120 A 
ATOM     12  C   UNL     1     -12.527   0.917  -2.737  0.00  0.00    +0.047 A 
ATOM     13  C   UNL     1     -12.237  -0.391  -2.405  0.00  0.00    +0.027 A 
BRANCH  11  14
ATOM     14  O   UNL     1     -11.790   3.128  -3.214  0.00  0.00    -0.495 OA
ATOM     15  C   UNL     1     -13.168   3.458  -3.399  0.00  0.00    +0.277 C 
ENDBRANCH  11  14
ENDBRANCH   5   8
BRANCH   1  16
ATOM     16  S   UNL     1      -8.247  -2.508  -3.081  0.00  0.00    -0.112 S 
BRANCH  16  17
ATOM     17  C   UNL     1      -7.473  -2.297  -1.454  0.00  0.00    +0.168 C 
BRANCH  17  19
ATOM     18  N   UNL     1      -5.286  -1.577  -0.550  0.00  0.00    -0.285 N 
ATOM     19  C   UNL     1      -6.059  -1.806  -1.630  0.00  0.00    +0.227 C 
ATOM     20  O   UNL     1      -5.617  -1.617  -2.743  0.00  0.00    -0.275 OA
ATOM     21  H   UNL     1      -5.614  -1.793   0.337  0.00  0.00    +0.155 HD
BRANCH  18  25
ATOM     22  C   UNL     1      -1.484   0.062  -1.019  0.00  0.00    -0.048 A 
ATOM     23  C   UNL     1      -2.502   0.423  -1.883  0.00  0.00    +0.005 A 
ATOM     24  C   UNL     1      -3.764  -0.119  -1.730  0.00  0.00    +0.023 A 
ATOM     25  C   UNL     1      -4.009  -1.027  -0.708  0.00  0.00    +0.033 A 
ATOM     26  C   UNL     1      -2.984  -1.387   0.157  0.00  0.00    +0.023 A 
ATOM     27  C   UNL     1      -1.724  -0.846  -0.004  0.00  0.00    +0.005 A 
BRANCH  22  29
ATOM     28  C   UNL     1       0.714  -0.228  -2.131  0.00  0.00    +0.009 C 
ATOM     29  C   UNL     1      -0.109   0.654  -1.189  0.00  0.00    +0.032 C 
ENDBRANCH  22  29
ENDBRANCH  18  25
ENDBRANCH  17  19
ENDBRANCH  16  17
ENDBRANCH   1  16
BRANCH   4  30
ATOM     30  C   UNL     1     -10.790  -1.832   0.589  0.00  0.00    +0.093 C 
BRANCH  30  31
ATOM     31  C   UNL     1     -11.037  -2.579   1.875  0.00  0.00    +0.029 A 
ATOM     32  N   UNL     1     -12.313  -2.737   2.343  0.00  0.00    -0.311 N 
ATOM     33  C   UNL     1     -12.544  -3.402   3.490  0.00  0.00    +0.327 A 
ATOM     34  O   UNL     1     -13.686  -3.532   3.888  0.00  0.00    -0.247 OA
ATOM     35  N   UNL     1     -11.530  -3.927   4.202  0.00  0.00    -0.275 N 
ATOM     36  C   UNL     1     -10.258  -3.793   3.774  0.00  0.00    +0.254 A 
ATOM     37  O   UNL     1      -9.340  -4.267   4.417  0.00  0.00    -0.268 OA
ATOM     38  C   UNL     1     -10.001  -3.099   2.567  0.00  0.00    +0.091 A 
ATOM     39  H   UNL     1     -11.714  -4.404   5.026  0.00  0.00    +0.173 HD
ATOM     40  H   UNL     1     -13.058  -2.366   1.844  0.00  0.00    +0.170 HD
ENDBRANCH  30  31
ENDBRANCH   4  30
TORSDOF 9
