REMARK  Name = ZINC67472802
REMARK  6 active torsions:
REMARK  status: ('A' for Active; 'I' for Inactive)
REMARK    1  A    between atoms: C_1  and  C_2
REMARK    2  A    between atoms: C_2  and  N_3
REMARK    3  A    between atoms: C_4  and  C_6
REMARK    4  A    between atoms: C_9  and  N_25
REMARK    5  A    between atoms: C_13  and  C_15
REMARK    6  A    between atoms: C_22  and  C_24
REMARK                            x       y       z     vdW  Elec       q    Type
REMARK                         _______ _______ _______ _____ _____    ______ ____
ROOT
ATOM      1  C   UNL     1       1.715  -2.269  -2.822  0.00  0.00    +0.161 C 
ATOM      2  C   UNL     1       0.992  -2.194  -4.183  0.00  0.00    +0.017 C 
ATOM      3  C   UNL     1       1.527  -3.445  -4.930  0.00  0.00    -0.055 C 
ATOM      4  C   UNL     1       1.662  -4.465  -3.772  0.00  0.00    +0.093 C 
ATOM      5  N   UNL     1       2.123  -3.667  -2.617  0.00  0.00    -0.287 N 
ATOM      6  C   UNL     1       2.803  -4.138  -1.554  0.00  0.00    +0.251 C 
ATOM      7  O   UNL     1       3.216  -3.370  -0.707  0.00  0.00    -0.270 OA
ENDROOT
BRANCH   6   8
ATOM      8  C   UNL     1       3.047  -5.588  -1.417  0.00  0.00    +0.080 A 
ATOM      9  C   UNL     1       2.082  -6.503  -1.835  0.00  0.00    +0.017 A 
ATOM     10  C   UNL     1       2.304  -7.862  -1.710  0.00  0.00    +0.002 A 
ATOM     11  C   UNL     1       3.484  -8.333  -1.171  0.00  0.00    +0.012 A 
ATOM     12  C   UNL     1       4.462  -7.435  -0.749  0.00  0.00    +0.021 A 
ATOM     13  C   UNL     1       4.254  -6.051  -0.873  0.00  0.00    +0.147 A 
ATOM     14  O   UNL     1       5.351  -5.436  -0.396  0.00  0.00    -0.459 OA
ATOM     15  C   UNL     1       6.260  -6.333   0.025  0.00  0.00    +0.103 A 
ATOM     16  C   UNL     1       5.794  -7.577  -0.147  0.00  0.00    +0.053 A 
ATOM     17  C   UNL     1       7.603  -5.989   0.615  0.00  0.00    +0.086 C 
ENDBRANCH   6   8
BRANCH   1  19
ATOM     18  N   UNL     1       0.569  -0.531  -1.486  0.00  0.00    -0.314 N 
ATOM     19  C   UNL     1       0.780  -1.842  -1.720  0.00  0.00    +0.234 C 
ATOM     20  O   UNL     1       0.217  -2.677  -1.045  0.00  0.00    -0.274 OA
ATOM     21  H   UNL     1       1.020   0.137  -2.026  0.00  0.00    +0.149 HD
BRANCH  18  23
ATOM     22  C   UNL     1      -0.400   1.412  -0.361  0.00  0.00    +0.024 C 
ATOM     23  C   UNL     1      -0.340  -0.116  -0.415  0.00  0.00    +0.101 C 
ENDBRANCH  18  23
ENDBRANCH   1  19
BRANCH   3  24
ATOM     24  N   UNL     1       0.561  -3.912  -5.934  0.00  0.00    +0.381 N 
ATOM     25  H   UNL     1       0.395  -3.179  -6.607  0.00  0.00    -0.090 HD
ATOM     26  H   UNL     1       0.931  -4.723  -6.405  0.00  0.00    -0.090 HD
ATOM     27  H   UNL     1      -0.307  -4.153  -5.479  0.00  0.00    -0.090 HD
ENDBRANCH   3  24
TORSDOF 4
