REMARK  Name = ZINC09015938
REMARK  4 active torsions:
REMARK  status: ('A' for Active; 'I' for Inactive)
REMARK    1  A    between atoms: C_1  and  C_2
REMARK    2  A    between atoms: C_7  and  N_12
REMARK    3  A    between atoms: C_9  and  C_11
REMARK    4  A    between atoms: N_18  and  C_19
REMARK                            x       y       z     vdW  Elec       q    Type
REMARK                         _______ _______ _______ _____ _____    ______ ____
ROOT
ATOM      1  N   UNL     1       0.736  -0.504   3.691  0.00  0.00    -0.268 NA
ATOM      2  C   UNL     1       0.753  -1.975   3.730  0.00  0.00    +0.193 C 
ATOM      3  N   UNL     1       1.493  -2.407   4.927  0.00  0.00    -0.304 N 
ATOM      4  C   UNL     1       1.152  -1.811   6.126  0.00  0.00    +0.187 C 
ATOM      5  N   UNL     1       0.907  -0.453   6.076  0.00  0.00    -0.304 N 
ATOM      6  C   UNL     1       0.146   0.048   4.920  0.00  0.00    +0.193 C 
ATOM      7  N   UNL     1       1.066  -2.498   7.249  0.00  0.00    -0.165 NA
ATOM      8  H   UNL     1       2.189  -3.080   4.876  0.00  0.00    +0.150 HD
ATOM      9  H   UNL     1       1.222   0.144   6.772  0.00  0.00    +0.150 HD
ENDROOT
BRANCH   7  10
ATOM     10  C   UNL     1       0.730  -1.874   8.396  0.00  0.00    +0.327 A 
ATOM     11  N   UNL     1       0.463  -0.591   8.508  0.00  0.00    -0.191 NA
ATOM     12  C   UNL     1       0.166  -0.320   9.806  0.00  0.00    +0.111 A 
ATOM     13  C   UNL     1      -0.187   0.846  10.490  0.00  0.00    +0.031 A 
ATOM     14  C   UNL     1      -0.432   0.795  11.845  0.00  0.00    +0.002 A 
ATOM     15  C   UNL     1      -0.330  -0.405  12.532  0.00  0.00    +0.004 A 
ATOM     16  C   UNL     1       0.018  -1.564  11.868  0.00  0.00    +0.048 A 
ATOM     17  C   UNL     1       0.267  -1.532  10.506  0.00  0.00    +0.157 A 
ATOM     18  O   UNL     1       0.613  -2.473   9.597  0.00  0.00    -0.421 OA
ENDBRANCH   7  10
BRANCH   1  24
ATOM     19  C   UNL     1      -0.019   1.526   0.010  0.00  0.00    +0.008 C 
ATOM     20  C   UNL     1       0.002  -0.004   0.002  0.00  0.00    -0.010 C 
ATOM     21  C   UNL     1      -1.433  -0.534   0.013  0.00  0.00    +0.003 C 
ATOM     22  C   UNL     1      -2.149  -0.040   1.272  0.00  0.00    +0.002 C 
ATOM     23  C   UNL     1      -1.409  -0.547   2.511  0.00  0.00    +0.019 C 
ATOM     24  C   UNL     1       0.026  -0.018   2.500  0.00  0.00    +0.063 C 
ATOM     25  C   UNL     1       0.742  -0.511   1.242  0.00  0.00    +0.006 C 
ATOM     26  C   UNL     1       2.178   0.019   1.231  0.00  0.00    +0.009 C 
ENDBRANCH   1  24
TORSDOF 2
