REMARK  Name = ZINC16425178
REMARK  8 active torsions:
REMARK  status: ('A' for Active; 'I' for Inactive)
REMARK    1  A    between atoms: C_1  and  C_2
REMARK    2  A    between atoms: C_7  and  N_8
REMARK    3  A    between atoms: C_9  and  C_11
REMARK    4  A    between atoms: C_13  and  N_33
REMARK    5  A    between atoms: C_16  and  N_17
REMARK    6  A    between atoms: N_17  and  C_18
REMARK    7  A    between atoms: C_18  and  C_19
REMARK    8  A    between atoms: C_19  and  N_20
REMARK                            x       y       z     vdW  Elec       q    Type
REMARK                         _______ _______ _______ _____ _____    ______ ____
ROOT
ATOM      1  C   UNL     1      -0.157   0.037   4.854  0.00  0.00    +0.060 A 
ATOM      2  C   UNL     1      -0.287   1.428   4.859  0.00  0.00    +0.047 A 
ATOM      3  C   UNL     1      -0.396   2.104   6.054  0.00  0.00    +0.127 A 
ATOM      4  C   UNL     1      -0.379   1.411   7.254  0.00  0.00    +0.034 A 
ATOM      5  C   UNL     1      -0.251   0.038   7.267  0.00  0.00    +0.026 A 
ATOM      6  C   UNL     1      -0.145  -0.662   6.071  0.00  0.00    +0.040 A 
ENDROOT
BRANCH   1   8
ATOM      7  N   UNL     1       0.058  -0.012   2.419  0.00  0.00    -0.281 N 
ATOM      8  C   UNL     1      -0.039  -0.693   3.579  0.00  0.00    +0.250 C 
ATOM      9  O   UNL     1      -0.028  -1.909   3.572  0.00  0.00    -0.270 OA
ATOM     10  H   UNL     1       0.112   0.956   2.429  0.00  0.00    +0.155 HD
BRANCH   7  17
ATOM     11  C   UNL     1      -1.201   1.192   0.170  0.00  0.00    +0.045 C 
ATOM     12  C   UNL     1      -0.523  -0.151   0.080  0.00  0.00    -0.029 A 
ATOM     13  C   UNL     1      -0.496  -0.832  -1.122  0.00  0.00    +0.006 A 
ATOM     14  C   UNL     1       0.125  -2.064  -1.206  0.00  0.00    +0.020 A 
ATOM     15  C   UNL     1       0.721  -2.620  -0.087  0.00  0.00    +0.043 A 
ATOM     16  C   UNL     1       0.697  -1.943   1.118  0.00  0.00    +0.043 A 
ATOM     17  C   UNL     1       0.079  -0.702   1.203  0.00  0.00    +0.038 A 
ATOM     18 CL   UNL     1       1.499  -4.168  -0.197  0.00  0.00    -0.083 Cl
ENDBRANCH   7  17
ENDBRANCH   1   8
BRANCH   3  19
ATOM     19  N   UNL     1      -0.533   3.578   6.056  0.00  0.00    +0.056 N 
ATOM     20  O   UNL     1      -0.549   4.185   5.011  0.00  0.00    -0.126 OA
ATOM     21  O   UNL     1      -0.630   4.174   7.103  0.00  0.00    -0.126 OA
ENDBRANCH   3  19
BRANCH   6  22
ATOM     22  N   UNL     1      -0.022  -2.045   6.081  0.00  0.00    -0.342 N 
ATOM     23  H   UNL     1      -0.023  -2.538   5.245  0.00  0.00    +0.146 HD
BRANCH  22  24
ATOM     24  C   UNL     1       0.109  -2.760   7.353  0.00  0.00    +0.121 C 
BRANCH  24  25
ATOM     25  C   UNL     1       0.228  -4.262   7.084  0.00  0.00    +0.135 C 
BRANCH  25  26
ATOM     26  N   UNL     1       0.359  -4.977   8.355  0.00  0.00    -0.240 N 
ATOM     27  C   UNL     1       1.547  -5.231   8.937  0.00  0.00    +0.226 C 
ATOM     28  O   UNL     1       2.617  -4.754   8.625  0.00  0.00    -0.275 OA
ATOM     29  C   UNL     1       1.293  -6.240  10.069  0.00  0.00    +0.091 C 
ATOM     30  C   UNL     1       1.407  -7.614   9.403  0.00  0.00    +0.040 C 
ATOM     31  C   UNL     1       0.475  -8.626   9.974  0.00  0.00    -0.030 C 
ATOM     32  C   UNL     1      -0.564  -8.351  10.690  0.00  0.00    -0.030 C 
ATOM     33  C   UNL     1      -0.945  -6.960  11.086  0.00  0.00    +0.040 C 
ATOM     34  C   UNL     1      -0.168  -5.884  10.386  0.00  0.00    +0.091 C 
ATOM     35  C   UNL     1      -0.702  -5.437   9.056  0.00  0.00    +0.226 C 
ATOM     36  O   UNL     1      -1.855  -5.482   8.684  0.00  0.00    -0.275 OA
ENDBRANCH  25  26
ENDBRANCH  24  25
ENDBRANCH  22  24
ENDBRANCH   6  22
TORSDOF 7
