REMARK  Name = ZINC36359962
REMARK  4 active torsions:
REMARK  status: ('A' for Active; 'I' for Inactive)
REMARK    1  A    between atoms: C_1  and  O_2
REMARK    2  A    between atoms: O_2  and  C_3
REMARK    3  A    between atoms: C_8  and  C_9
REMARK    4  A    between atoms: N_19  and  C_20
REMARK                            x       y       z     vdW  Elec       q    Type
REMARK                         _______ _______ _______ _____ _____    ______ ____
ROOT
ATOM      1  C   UNL     1       0.018  -2.829  -0.013  0.00  0.00    +0.083 C 
ATOM      2  C   UNL     1       0.051  -3.716  -1.260  0.00  0.00    +0.110 C 
ATOM      3  C   UNL     1      -0.858  -4.903  -1.115  0.00  0.00    +0.219 C 
ATOM      4  O   UNL     1      -1.462  -5.302  -2.088  0.00  0.00    -0.275 OA
ATOM      5  N   UNL     1      -1.023  -5.540   0.065  0.00  0.00    -0.270 N 
ATOM      6  C   UNL     1      -0.426  -4.985   1.198  0.00  0.00    +0.133 A 
ATOM      7  C   UNL     1       0.073  -3.716   1.205  0.00  0.00    +0.089 A 
ATOM      8  N   UNL     1       0.570  -3.472   2.416  0.00  0.00    -0.238 NA
ATOM      9  C   UNL     1       0.408  -4.529   3.171  0.00  0.00    +0.205 A 
ATOM     10  N   UNL     1      -0.215  -5.502   2.437  0.00  0.00    -0.287 N 
ATOM     11  H   UNL     1      -1.541  -6.358   0.123  0.00  0.00    +0.156 HD
ENDROOT
BRANCH  10  12
ATOM     12  C   UNL     1      -0.567  -6.786   2.879  0.00  0.00    +0.049 A 
ATOM     13  C   UNL     1      -1.853  -7.264   2.669  0.00  0.00    +0.029 A 
ATOM     14  C   UNL     1      -2.199  -8.529   3.105  0.00  0.00    +0.040 A 
ATOM     15  C   UNL     1      -1.263  -9.319   3.751  0.00  0.00    +0.124 A 
ATOM     16  C   UNL     1       0.021  -8.844   3.961  0.00  0.00    +0.040 A 
ATOM     17  C   UNL     1       0.371  -7.582   3.521  0.00  0.00    +0.029 A 
ATOM     18  F   UNL     1      -1.603 -10.556   4.176  0.00  0.00    -0.205 F 
ENDBRANCH  10  12
BRANCH   1  24
ATOM     19  C   UNL     1      -1.200  -0.637   0.010  0.00  0.00    +0.124 A 
ATOM     20  C   UNL     1      -2.375   0.101   0.019  0.00  0.00    +0.046 A 
ATOM     21  C   UNL     1      -3.596  -0.545   0.027  0.00  0.00    +0.004 A 
ATOM     22  C   UNL     1      -3.648  -1.927   0.026  0.00  0.00    +0.001 A 
ATOM     23  C   UNL     1      -2.479  -2.665   0.017  0.00  0.00    +0.008 A 
ATOM     24  C   UNL     1      -1.255  -2.023   0.003  0.00  0.00    +0.004 A 
BRANCH  19  26
ATOM     25  C   UNL     1      -0.017   1.425   0.010  0.00  0.00    +0.277 C 
ATOM     26  O   UNL     1       0.002  -0.004   0.002  0.00  0.00    -0.495 OA
ENDBRANCH  19  26
ENDBRANCH   1  24
TORSDOF 3
