REMARK  Name = ZINC24982199
REMARK  9 active torsions:
REMARK  status: ('A' for Active; 'I' for Inactive)
REMARK    1  A    between atoms: C_7  and  N_17
REMARK    2  A    between atoms: C_9  and  C_11
REMARK    3  A    between atoms: N_17  and  C_18
REMARK    4  A    between atoms: C_18  and  C_20
REMARK    5  A    between atoms: C_18  and  C_22
REMARK    6  A    between atoms: C_20  and  O_21
REMARK    7  A    between atoms: C_22  and  C_24
REMARK    8  A    between atoms: C_22  and  O_33
REMARK    9  A    between atoms: C_27  and  N_30
REMARK                            x       y       z     vdW  Elec       q    Type
REMARK                         _______ _______ _______ _____ _____    ______ ____
ROOT
ATOM      1  N   UNK A   1       3.631   3.220   0.057  0.00  0.00    -0.321 N 
ATOM      2  H   UNK A   1       3.861   2.177  -0.208  0.00  0.00    +0.148 HD
ENDROOT
BRANCH   1   9
ATOM      3  C   UNK A   0       0.416   0.516  -0.433  0.00  0.00    +0.001 A 
ATOM      4  C   UNK A   0      -0.887   0.973  -0.260  0.00  0.00    +0.002 A 
ATOM      5  C   UNK A   0      -1.139   2.270   0.074  0.00  0.00    +0.028 A 
ATOM      6  C   UNK A   0      -0.069   3.163   0.235  0.00  0.00    +0.077 A 
ATOM      7  C   UNK A   0       1.256   2.697   0.053  0.00  0.00    +0.040 A 
ATOM      8  C   UNK A   0       1.479   1.358  -0.284  0.00  0.00    +0.013 A 
ATOM      9  C   UNK A   0       2.321   3.617   0.221  0.00  0.00    +0.131 A 
ATOM     10  N   UNK A   0       2.026   4.868   0.540  0.00  0.00    -0.212 NA
ATOM     11  C   UNK A   0       0.765   5.264   0.702  0.00  0.00    +0.164 A 
ATOM     12  N   UNK A   0      -0.263   4.449   0.557  0.00  0.00    -0.227 NA
BRANCH  11  13
ATOM     13  C   UNK A   0       0.505   6.679   1.059  0.00  0.00    +0.037 A 
ATOM     14  C   UNK A   0      -0.804   7.140   1.232  0.00  0.00    +0.014 A 
ATOM     15  C   UNK A   0      -0.993   8.468   1.571  0.00  0.00    +0.020 A 
ATOM     16  C   UNK A   0       0.107   9.293   1.714  0.00  0.00    +0.111 A 
ATOM     17  N   UNK A   0       1.331   8.832   1.539  0.00  0.00    -0.263 NA
ATOM     18  C   UNK A   0       1.561   7.574   1.221  0.00  0.00    +0.122 A 
ENDBRANCH  11  13
ENDBRANCH   1   9
BRANCH   1  19
ATOM     19  C   UNK A   1       4.718   4.186   0.235  0.00  0.00    +0.130 C 
BRANCH  19  20
ATOM     20  C   UNK A   1       4.940   4.950  -1.071  0.00  0.00    +0.181 C 
BRANCH  20  21
ATOM     21  O   UNK A   1       5.385   4.045  -2.083  0.00  0.00    -0.393 OA
ATOM     22  H   UNK A   1       5.598   4.415  -3.097  0.00  0.00    +0.209 HD
ENDBRANCH  20  21
ENDBRANCH  19  20
BRANCH  19  23
ATOM     23  C   UNK A   1       6.001   3.446   0.618  0.00  0.00    +0.167 C 
BRANCH  23  24
ATOM     24  C   UNK A   1       5.806   2.752   1.942  0.00  0.00    -0.017 A 
ATOM     25  C   UNK A   1       5.915   3.468   3.119  0.00  0.00    +0.008 A 
ATOM     26  C   UNK A   1       5.731   2.833   4.333  0.00  0.00    +0.033 A 
ATOM     27  C   UNK A   1       5.448   1.480   4.370  0.00  0.00    +0.126 A 
ATOM     28  C   UNK A   1       5.344   0.763   3.192  0.00  0.00    +0.033 A 
ATOM     29  C   UNK A   1       5.523   1.400   1.978  0.00  0.00    +0.008 A 
BRANCH  27  30
ATOM     30  N   UNK A   1       5.257   0.798   5.670  0.00  0.00    +0.056 N 
ATOM     31  O   UNK A   1       5.008  -0.393   5.702  0.00  0.00    -0.126 OA
ATOM     32  O   UNK A   1       5.348   1.430   6.707  0.00  0.00    -0.126 OA
ENDBRANCH  27  30
ENDBRANCH  23  24
BRANCH  23  33
ATOM     33  O   UNK A   1       7.077   4.381   0.724  0.00  0.00    -0.385 OA
ATOM     34  H   UNK A   1       8.085   4.031   0.992  0.00  0.00    +0.210 HD
ENDBRANCH  23  33
ENDBRANCH  19  23
ENDBRANCH   1  19
TORSDOF 9
