REMARK  Name = ZINC62236662
REMARK  4 active torsions:
REMARK  status: ('A' for Active; 'I' for Inactive)
REMARK    1  A    between atoms: C_1  and  N_2
REMARK    2  A    between atoms: C_3  and  N_21
REMARK    3  A    between atoms: C_4  and  C_14
REMARK    4  A    between atoms: C_5  and  C_7
REMARK                            x       y       z     vdW  Elec       q    Type
REMARK                         _______ _______ _______ _____ _____    ______ ____
ROOT
ATOM      1  C   UNL     1      -0.018   1.461   0.010  0.00  0.00    +0.174 C 
ATOM      2  N   UNL     1       0.002  -0.004   0.002  0.00  0.00    -0.253 N 
ATOM      3  C   UNL     1       0.008  -0.790  -1.098  0.00  0.00    +0.122 A 
ATOM      4  C   UNL     1       0.028  -2.104  -0.663  0.00  0.00    +0.046 A 
ATOM      5  C   UNL     1       0.034  -2.078   0.745  0.00  0.00    +0.078 A 
ATOM      6  N   UNL     1       0.025  -0.830   1.132  0.00  0.00    -0.174 NA
ENDROOT
BRANCH   4   7
ATOM      7  C   UNL     1       0.040  -3.314  -1.520  0.00  0.00    +0.001 A 
ATOM      8  C   UNL     1       1.251  -3.872  -1.925  0.00  0.00    +0.010 A 
ATOM      9  C   UNL     1       1.256  -4.998  -2.723  0.00  0.00    +0.001 A 
ATOM     10  C   UNL     1       0.062  -5.573  -3.121  0.00  0.00    +0.001 A 
ATOM     11  C   UNL     1      -1.143  -5.024  -2.723  0.00  0.00    +0.016 A 
ATOM     12  C   UNL     1      -1.161  -3.901  -1.919  0.00  0.00    +0.026 A 
ATOM     13 BR   UNL     1      -2.809  -3.156  -1.369  0.00  0.00    -0.050 Br
ENDBRANCH   4   7
BRANCH   5  14
ATOM     14  C   UNL     1       0.054  -3.282   1.651  0.00  0.00    +0.066 C 
ATOM     15  C   UNL     1      -1.191  -3.272   2.543  0.00  0.00    +0.014 C 
ATOM     16  C   UNL     1      -1.121  -4.457   3.511  0.00  0.00    +0.029 C 
ATOM     17  C   UNL     1       0.175  -4.368   4.321  0.00  0.00    +0.160 C 
ATOM     18  O   UNL     1       1.292  -4.351   3.430  0.00  0.00    -0.379 OA
ATOM     19  C   UNL     1       1.305  -3.239   2.531  0.00  0.00    +0.169 C 
ENDBRANCH   5  14
BRANCH   3  20
ATOM     20  N   UNL     1      -0.004  -0.359  -2.418  0.00  0.00    -0.343 N 
ATOM     21  H   UNL     1      -0.018   0.590  -2.618  0.00  0.00    +0.144 HD
ATOM     22  H   UNL     1       0.001  -1.008  -3.139  0.00  0.00    +0.144 HD
ENDBRANCH   3  20
TORSDOF 3
