REMARK  Name = ZINC38701786
REMARK  5 active torsions:
REMARK  status: ('A' for Active; 'I' for Inactive)
REMARK    1  A    between atoms: C_1  and  C_2
REMARK    2  A    between atoms: C_3  and  C_25
REMARK    3  A    between atoms: C_4  and  N_8
REMARK    4  A    between atoms: C_9  and  C_10
REMARK    5  A    between atoms: C_14  and  C_18
REMARK                            x       y       z     vdW  Elec       q    Type
REMARK                         _______ _______ _______ _____ _____    ______ ____
ROOT
ATOM      1  N   UNL     1      -0.943  -2.931   1.194  0.00  0.00    -0.258 NA
ATOM      2  C   UNL     1      -1.635  -4.021   1.086  0.00  0.00    +0.122 C 
ENDROOT
BRANCH   2   3
ATOM      3  C   UNL     1      -2.045  -4.756   2.293  0.00  0.00    +0.077 C 
ATOM      4  C   UNL     1      -1.687  -4.265   3.548  0.00  0.00    +0.169 C 
ATOM      5  O   UNL     1      -1.040  -3.233   3.631  0.00  0.00    -0.292 OA
ATOM      6  C   UNL     1      -2.091  -4.996   4.801  0.00  0.00    +0.088 C 
ATOM      7  C   UNL     1      -3.405  -5.741   4.553  0.00  0.00    +0.034 C 
ATOM      8  C   UNL     1      -3.219  -6.705   3.378  0.00  0.00    +0.088 C 
ATOM      9  C   UNL     1      -2.790  -5.927   2.161  0.00  0.00    +0.169 C 
ATOM     10  O   UNL     1      -3.095  -6.328   1.049  0.00  0.00    -0.292 OA
BRANCH   7  11
ATOM     11  C   UNL     1      -3.786  -6.518   5.787  0.00  0.00    -0.043 A 
ATOM     12  C   UNL     1      -2.935  -7.489   6.281  0.00  0.00    +0.007 A 
ATOM     13  C   UNL     1      -3.283  -8.202   7.413  0.00  0.00    +0.038 A 
ATOM     14  C   UNL     1      -4.483  -7.942   8.052  0.00  0.00    +0.123 A 
ATOM     15  C   UNL     1      -5.335  -6.969   7.556  0.00  0.00    +0.038 A 
ATOM     16  C   UNL     1      -4.982  -6.254   6.427  0.00  0.00    +0.007 A 
ATOM     17  F   UNL     1      -4.824  -8.639   9.158  0.00  0.00    -0.205 F 
ENDBRANCH   7  11
ENDBRANCH   2   3
BRANCH   1  21
ATOM     18  C   UNL     1      -0.018   1.503   0.010  0.00  0.00    +0.068 C 
ATOM     19  C   UNL     1       0.002  -0.004   0.002  0.00  0.00    +0.068 C 
ATOM     20  C   UNL     1      -1.100  -0.790   0.003  0.00  0.00    +0.030 C 
ATOM     21  C   UNL     1      -0.534  -2.200  -0.007  0.00  0.00    +0.275 C 
ATOM     22  N   UNL     1       0.920  -1.969  -0.013  0.00  0.00    -0.155 NA
ATOM     23  N   UNL     1       1.113  -0.751  -0.013  0.00  0.00    -0.156 NA
BRANCH  20  24
ATOM     24  C   UNL     1      -2.513  -0.376   0.012  0.00  0.00    -0.016 A 
ATOM     25  C   UNL     1      -3.324  -0.670   1.113  0.00  0.00    +0.010 A 
ATOM     26  C   UNL     1      -4.646  -0.279   1.114  0.00  0.00    +0.020 A 
ATOM     27  C   UNL     1      -5.171   0.402   0.029  0.00  0.00    +0.041 A 
ATOM     28  C   UNL     1      -4.374   0.696  -1.065  0.00  0.00    +0.020 A 
ATOM     29  C   UNL     1      -3.048   0.317  -1.078  0.00  0.00    +0.010 A 
ATOM     30 CL   UNL     1      -6.837   0.890   0.039  0.00  0.00    -0.084 Cl
ENDBRANCH  20  24
ENDBRANCH   1  21
TORSDOF 4
