REMARK  Name = ZINC39422630
REMARK  5 active torsions:
REMARK  status: ('A' for Active; 'I' for Inactive)
REMARK    1  A    between atoms: C_1  and  N_2
REMARK    2  A    between atoms: C_3  and  C_21
REMARK    3  A    between atoms: C_7  and  S_8
REMARK    4  A    between atoms: S_8  and  C_9
REMARK    5  A    between atoms: C_9  and  C_10
REMARK                            x       y       z     vdW  Elec       q    Type
REMARK                         _______ _______ _______ _____ _____    ______ ____
ROOT
ATOM      1  C   UNL     1      -0.018   1.461   0.010  0.00  0.00    +0.133 C 
ATOM      2  N   UNL     1       0.002  -0.004   0.002  0.00  0.00    -0.289 N 
ATOM      3  C   UNL     1      -1.166  -0.900   0.002  0.00  0.00    +0.221 C 
ATOM      4  N   UNL     1      -0.577  -2.250  -0.008  0.00  0.00    -0.243 N 
ATOM      5  N   UNL     1       0.811  -2.069  -0.013  0.00  0.00    -0.163 NA
ATOM      6  C   UNL     1       1.125  -0.818  -0.014  0.00  0.00    +0.175 C 
ATOM      7  H   UNL     1      -1.054  -3.095  -0.010  0.00  0.00    +0.170 HD
ENDROOT
BRANCH   3   8
ATOM      8  C   UNL     1      -2.018  -0.674  -1.249  0.00  0.00    +0.250 C 
ATOM      9  C   UNL     1      -3.236  -1.606  -1.222  0.00  0.00    +0.277 C 
ATOM     10  O   UNL     1      -4.016  -1.358  -2.396  0.00  0.00    -0.485 OA
ATOM     11  C   UNL     1      -4.256  -0.055  -2.708  0.00  0.00    +0.162 A 
ATOM     12  C   UNL     1      -5.278   0.257  -3.592  0.00  0.00    +0.049 A 
ATOM     13  C   UNL     1      -5.531   1.575  -3.921  0.00  0.00    +0.004 A 
ATOM     14  C   UNL     1      -4.767   2.586  -3.369  0.00  0.00    +0.004 A 
ATOM     15  C   UNL     1      -3.748   2.283  -2.486  0.00  0.00    +0.049 A 
ATOM     16  C   UNL     1      -3.489   0.962  -2.151  0.00  0.00    +0.163 A 
ATOM     17  O   UNL     1      -2.487   0.679  -1.275  0.00  0.00    -0.478 OA
ENDBRANCH   3   8
BRANCH   6  18
ATOM     18  S   UNL     1       2.781  -0.215  -0.028  0.00  0.00    -0.081 S 
BRANCH  18  19
ATOM     19  C   UNL     1       3.795  -1.719  -0.046  0.00  0.00    +0.151 C 
BRANCH  19  20
ATOM     20  C   UNL     1       5.254  -1.341  -0.059  0.00  0.00    +0.121 A 
ATOM     21  N   UNL     1       6.179  -2.336  -0.079  0.00  0.00    -0.309 N 
ATOM     22  H   UNL     1       5.899  -3.265  -0.085  0.00  0.00    +0.170 HD
ATOM     23  C   UNL     1       7.496  -2.018  -0.091  0.00  0.00    +0.266 A 
ATOM     24  O   UNL     1       8.351  -2.888  -0.109  0.00  0.00    -0.267 OA
ATOM     25  C   UNL     1       7.847  -0.668  -0.082  0.00  0.00    +0.102 A 
ATOM     26  C   UNL     1       6.869   0.343  -0.062  0.00  0.00    +0.085 A 
ATOM     27  N   UNL     1       5.564  -0.084  -0.056  0.00  0.00    -0.232 NA
ATOM     28  C   UNL     1       7.359   1.655  -0.055  0.00  0.00    +0.036 A 
ATOM     29  C   UNL     1       8.690   1.885  -0.069  0.00  0.00    +0.048 A 
ATOM     30  S   UNL     1       9.373   0.235  -0.092  0.00  0.00    -0.090 S 
ENDBRANCH  19  20
ENDBRANCH  18  19
ENDBRANCH   6  18
TORSDOF 4
