REMARK  Name = ZINC01003009
REMARK  10 active torsions:
REMARK  status: ('A' for Active; 'I' for Inactive)
REMARK    1  A    between atoms: C_1  and  O_2
REMARK    2  A    between atoms: O_2  and  C_3
REMARK    3  A    between atoms: C_3  and  C_4
REMARK    4  A    between atoms: C_6  and  C_12
REMARK    5  A    between atoms: C_9  and  O_10
REMARK    6  A    between atoms: O_10  and  C_11
REMARK    7  A    between atoms: C_21  and  C_29
REMARK    8  A    between atoms: C_22  and  N_28
REMARK    9  A    between atoms: C_23  and  C_24
REMARK   10  A    between atoms: C_23  and  C_26
REMARK                            x       y       z     vdW  Elec       q    Type
REMARK                         _______ _______ _______ _____ _____    ______ ____
ROOT
ATOM      1  C   UNL     1      -3.116   1.613   5.488  0.00  0.00    +0.066 C 
ATOM      2  C   UNL     1      -4.613   1.812   5.734  0.00  0.00    +0.030 C 
ATOM      3  C   UNL     1      -5.430   1.525   4.496  0.00  0.00    +0.009 C 
ATOM      4  C   UNL     1      -5.809   2.806   3.754  0.00  0.00    +0.005 C 
ATOM      5  C   UNL     1      -6.614   3.697   4.710  0.00  0.00    +0.027 C 
ATOM      6  C   UNL     1      -5.728   4.032   5.882  0.00  0.00    -0.022 C 
ATOM      7  C   UNL     1      -4.820   3.189   6.290  0.00  0.00    -0.029 C 
ATOM      8  C   UNL     1      -3.895   3.625   7.369  0.00  0.00    +0.074 C 
ATOM      9  C   UNL     1      -2.759   2.920   7.596  0.00  0.00    +0.054 C 
ATOM     10  C   UNL     1      -2.380   1.691   6.826  0.00  0.00    +0.188 C 
ENDROOT
BRANCH   1  13
ATOM     11  C   UNL     1      -2.078   3.456   2.362  0.00  0.00    +0.020 A 
ATOM     12  C   UNL     1      -2.549   2.469   3.206  0.00  0.00    +0.013 A 
ATOM     13  C   UNL     1      -2.607   2.693   4.569  0.00  0.00    -0.040 A 
ATOM     14  C   UNL     1      -2.204   3.909   5.090  0.00  0.00    +0.007 A 
ATOM     15  C   UNL     1      -1.737   4.901   4.249  0.00  0.00    +0.046 A 
ATOM     16  C   UNL     1      -1.673   4.676   2.881  0.00  0.00    +0.125 A 
BRANCH  16  17
ATOM     17  O   UNL     1      -1.214   5.651   2.052  0.00  0.00    -0.495 OA
ATOM     18  C   UNL     1      -0.814   6.882   2.657  0.00  0.00    +0.277 C 
ENDBRANCH  16  17
BRANCH  11  19
ATOM     19  C   UNL     1      -2.011   3.209   0.877  0.00  0.00    +0.198 C 
BRANCH  19  21
ATOM     20  C   UNL     1      -2.456   1.551  -0.797  0.00  0.00    +0.194 C 
ATOM     21  O   UNL     1      -2.479   1.889   0.592  0.00  0.00    -0.378 OA
ENDBRANCH  19  21
ENDBRANCH  11  19
ENDBRANCH   1  13
BRANCH   9  22
ATOM     22  N   UNL     1      -1.913   3.354   8.578  0.00  0.00    -0.358 N 
ATOM     23  H   UNL     1      -0.984   2.804   8.786  0.00  0.00    +0.142 HD
ATOM     24  H   UNL     1      -2.163   4.253   9.161  0.00  0.00    +0.142 HD
ENDBRANCH   9  22
BRANCH  10  25
ATOM     25  C   UNL     1      -2.712   0.501   7.627  0.00  0.00    +0.091 C 
ATOM     26  N   UNL     1      -2.968  -0.416   8.245  0.00  0.00    -0.194 NA
ENDBRANCH  10  25
BRANCH  10  27
ATOM     27  C   UNL     1      -0.929   1.709   6.576  0.00  0.00    +0.091 C 
ATOM     28  N   UNL     1       0.190   1.723   6.383  0.00  0.00    -0.194 NA
ENDBRANCH  10  27
BRANCH   8  29
ATOM     29  C   UNL     1      -4.201   4.778   8.162  0.00  0.00    +0.101 C 
ATOM     30  N   UNL     1      -4.444   5.692   8.792  0.00  0.00    -0.191 NA
ENDBRANCH   8  29
TORSDOF 8
