REMARK  Name = ZINC35851578
REMARK  5 active torsions:
REMARK  status: ('A' for Active; 'I' for Inactive)
REMARK    1  A    between atoms: C_1  and  C_2
REMARK    2  A    between atoms: C_9  and  C_28
REMARK    3  A    between atoms: C_11  and  C_19
REMARK    4  A    between atoms: C_22  and  N_25
REMARK    5  A    between atoms: C_28  and  C_30
REMARK                            x       y       z     vdW  Elec       q    Type
REMARK                         _______ _______ _______ _____ _____    ______ ____
ROOT
ATOM      1  C   UNL     1       0.169   1.398  -0.055  0.00  0.00    +0.044 C 
ATOM      2  C   UNL     1       0.275  -0.104   0.017  0.00  0.00    -0.050 A 
ATOM      3  C   UNL     1       0.384  -0.847  -1.145  0.00  0.00    +0.005 A 
ATOM      4  C   UNL     1       0.481  -2.222  -1.086  0.00  0.00    +0.024 A 
ATOM      5  C   UNL     1       0.470  -2.873   0.146  0.00  0.00    +0.039 A 
ATOM      6  C   UNL     1       0.360  -2.115   1.308  0.00  0.00    +0.004 A 
ATOM      7  C   UNL     1       0.268  -0.742   1.244  0.00  0.00    +0.011 A 
ATOM      8  C   UNL     1       0.380  -3.098   2.444  0.00  0.00    +0.137 C 
ATOM      9  C   UNL     1      -0.896  -3.007   3.288  0.00  0.00    +0.103 C 
ATOM     10  C   UNL     1      -0.532  -2.022   4.420  0.00  0.00    +0.050 C 
ATOM     11  C   UNL     1       0.997  -1.924   4.395  0.00  0.00    +0.077 C 
ATOM     12  N   UNL     1       1.503  -2.836   3.362  0.00  0.00    -0.271 NA
ATOM     13  C   UNL     1       1.957  -4.144   3.925  0.00  0.00    +0.155 C 
ATOM     14  S   UNL     1       2.702  -3.580   5.517  0.00  0.00    -0.144 S 
ATOM     15  C   UNL     1       1.587  -2.154   5.795  0.00  0.00    +0.090 C 
ATOM     16  C   UNL     1       0.509  -4.447   1.790  0.00  0.00    +0.243 C 
ATOM     17  O   UNL     1       0.563  -5.521   2.351  0.00  0.00    -0.273 OA
ATOM     18  N   UNL     1       0.553  -4.231   0.462  0.00  0.00    -0.283 N 
ATOM     19  H   UNL     1       0.633  -4.936  -0.200  0.00  0.00    +0.155 HD
ENDROOT
BRANCH  10  20
ATOM     20  C   UNL     1      -1.149  -0.672   4.157  0.00  0.00    -0.042 A 
ATOM     21  C   UNL     1      -2.384  -0.585   3.542  0.00  0.00    +0.006 A 
ATOM     22  C   UNL     1      -2.949   0.653   3.300  0.00  0.00    +0.033 A 
ATOM     23  C   UNL     1      -2.280   1.804   3.675  0.00  0.00    +0.126 A 
ATOM     24  C   UNL     1      -1.046   1.716   4.291  0.00  0.00    +0.033 A 
ATOM     25  C   UNL     1      -0.482   0.478   4.537  0.00  0.00    +0.006 A 
BRANCH  23  26
ATOM     26  N   UNL     1      -2.885   3.129   3.416  0.00  0.00    +0.056 N 
ATOM     27  O   UNL     1      -3.965   3.206   2.877  0.00  0.00    -0.126 OA
ATOM     28  O   UNL     1      -2.300   4.135   3.743  0.00  0.00    -0.126 OA
ENDBRANCH  23  26
ENDBRANCH  10  20
BRANCH   9  29
ATOM     29  C   UNL     1      -1.252  -4.357   3.853  0.00  0.00    +0.171 C 
ATOM     30  O   UNL     1      -0.820  -4.695   4.935  0.00  0.00    -0.292 OA
BRANCH  29  31
ATOM     31  C   UNL     1      -2.124  -5.267   3.093  0.00  0.00    +0.036 A 
ATOM     32  C   UNL     1      -2.468  -6.525   3.611  0.00  0.00    +0.014 A 
ATOM     33  C   UNL     1      -3.291  -7.341   2.856  0.00  0.00    +0.020 A 
ATOM     34  C   UNL     1      -3.745  -6.895   1.627  0.00  0.00    +0.111 A 
ATOM     35  N   UNL     1      -3.406  -5.707   1.164  0.00  0.00    -0.263 NA
ATOM     36  C   UNL     1      -2.630  -4.891   1.845  0.00  0.00    +0.122 A 
ENDBRANCH  29  31
ENDBRANCH   9  29
TORSDOF 4
