REMARK  Name = ZINC46816439
REMARK  5 active torsions:
REMARK  status: ('A' for Active; 'I' for Inactive)
REMARK    1  A    between atoms: C_1  and  N_2
REMARK    2  A    between atoms: N_2  and  C_3
REMARK    3  A    between atoms: C_5  and  C_10
REMARK    4  A    between atoms: C_10  and  N_11
REMARK    5  A    between atoms: C_12  and  C_14
REMARK                            x       y       z     vdW  Elec       q    Type
REMARK                         _______ _______ _______ _____ _____    ______ ____
ROOT
ATOM      1  N   UNL     1       0.572  -2.873   1.612  0.00  0.00    -0.307 N 
ATOM      2  C   UNL     1       1.726  -3.485   1.946  0.00  0.00    +0.244 C 
ATOM      3  O   UNL     1       2.408  -4.007   1.087  0.00  0.00    -0.270 OA
ATOM      4  H   UNL     1       0.028  -2.455   2.298  0.00  0.00    +0.149 HD
ENDROOT
BRANCH   2   5
ATOM      5  C   UNL     1       2.163  -3.520   3.361  0.00  0.00    +0.039 A 
ATOM      6  C   UNL     1       1.367  -2.919   4.349  0.00  0.00    +0.014 A 
ATOM      7  C   UNL     1       1.748  -2.938   5.657  0.00  0.00    +0.016 A 
ATOM      8  C   UNL     1       2.946  -3.563   6.027  0.00  0.00    +0.065 A 
ATOM      9  C   UNL     1       3.761  -4.175   5.038  0.00  0.00    +0.080 A 
ATOM     10  C   UNL     1       3.349  -4.150   3.697  0.00  0.00    +0.041 A 
ATOM     11  N   UNL     1       4.904  -4.769   5.408  0.00  0.00    -0.223 NA
ATOM     12  C   UNL     1       5.275  -4.790   6.679  0.00  0.00    +0.180 A 
ATOM     13  N   UNL     1       4.540  -4.226   7.653  0.00  0.00    -0.301 N 
ATOM     14  H   UNL     1       4.852  -4.265   8.570  0.00  0.00    +0.171 HD
ATOM     15  C   UNL     1       3.375  -3.605   7.371  0.00  0.00    +0.260 A 
ATOM     16  O   UNL     1       2.641  -3.041   8.346  0.00  0.00    -0.267 OA
ATOM     17  S   UNL     1       6.744  -5.562   7.097  0.00  0.00    -0.011 S 
ENDBRANCH   2   5
BRANCH   1  18
ATOM     18  C   UNL     1       0.140  -2.838   0.212  0.00  0.00    +0.143 C 
BRANCH  18  23
ATOM     19  C   UNL     1       0.449   0.459   1.548  0.00  0.00    +0.130 C 
ATOM     20  N   UNL     1      -0.012   0.003   0.234  0.00  0.00    -0.323 N 
ATOM     21  C   UNL     1       0.779   0.298  -0.963  0.00  0.00    +0.130 C 
ATOM     22  C   UNL     1      -1.200  -0.710   0.124  0.00  0.00    +0.103 A 
ATOM     23  C   UNL     1      -1.170  -2.101   0.109  0.00  0.00    +0.008 A 
ATOM     24  C   UNL     1      -2.360  -2.798  -0.001  0.00  0.00    +0.010 A 
ATOM     25  C   UNL     1      -3.544  -2.078  -0.094  0.00  0.00    +0.018 A 
ATOM     26  C   UNL     1      -3.499  -0.699  -0.073  0.00  0.00    +0.084 A 
ATOM     27  N   UNL     1      -2.350  -0.060   0.038  0.00  0.00    -0.349 N 
ATOM     28  H   UNL     1      -2.347   0.910   0.054  0.00  0.00    +0.167 HD
ENDBRANCH  18  23
ENDBRANCH   1  18
TORSDOF 3
