REMARK  Name = ZINC02466960
REMARK  5 active torsions:
REMARK  status: ('A' for Active; 'I' for Inactive)
REMARK    1  A    between atoms: C_1  and  C_2
REMARK    2  A    between atoms: C_2  and  O_3
REMARK    3  A    between atoms: O_3  and  C_4
REMARK    4  A    between atoms: C_14  and  C_16
REMARK    5  A    between atoms: C_23  and  C_30
REMARK                            x       y       z     vdW  Elec       q    Type
REMARK                         _______ _______ _______ _____ _____    ______ ____
ROOT
ATOM      1  C   UNL     1       0.002  -0.004   0.002  0.00  0.00    +0.122 A 
ATOM      2  C   UNL     1      -0.017   1.387   0.010  0.00  0.00    +0.048 A 
ATOM      3  C   UNL     1       1.142   2.118   0.003  0.00  0.00    +0.032 A 
ATOM      4  C   UNL     1       2.402   1.477  -0.013  0.00  0.00    +0.081 A 
ATOM      5  C   UNL     1       2.385   0.064  -0.020  0.00  0.00    +0.044 A 
ATOM      6  C   UNL     1       1.222  -0.664  -0.013  0.00  0.00    +0.063 A 
ATOM      7  S   UNL     1       4.117  -0.336  -0.038  0.00  0.00    -0.052 S 
ATOM      8  C   UNL     1       4.734   1.341  -0.035  0.00  0.00    +0.166 A 
ATOM      9  N   UNL     1       3.628   2.047  -0.021  0.00  0.00    -0.225 NA
ATOM     10  N   UNL     1       6.046   1.784  -0.044  0.00  0.00    -0.260 N 
ATOM     11  C   UNL     1       6.312   3.105  -0.040  0.00  0.00    +0.256 C 
ATOM     12  O   UNL     1       5.399   3.909  -0.028  0.00  0.00    -0.269 OA
ATOM     13  H   UNL     1       6.774   1.143  -0.054  0.00  0.00    +0.157 HD
ENDROOT
BRANCH  11  14
ATOM     14  C   UNL     1       7.699   3.572  -0.050  0.00  0.00    +0.077 A 
ATOM     15  C   UNL     1       8.165   4.854  -0.047  0.00  0.00    +0.036 A 
ATOM     16  C   UNL     1       9.541   5.097  -0.058  0.00  0.00    +0.073 A 
ATOM     17  C   UNL     1      10.367   3.943  -0.071  0.00  0.00    +0.116 A 
ATOM     18  S   UNL     1       9.199   2.605  -0.060  0.00  0.00    -0.064 S 
ATOM     19  N   UNL     1      11.681   4.023  -0.084  0.00  0.00    -0.222 NA
ATOM     20  C   UNL     1      12.297   5.204  -0.083  0.00  0.00    +0.144 A 
ATOM     21  C   UNL     1      13.704   5.249  -0.096  0.00  0.00    -0.008 A 
ATOM     22  C   UNL     1      14.336   6.455  -0.096  0.00  0.00    +0.008 A 
ATOM     23  C   UNL     1      13.574   7.634  -0.082  0.00  0.00    +0.019 A 
ATOM     24  C   UNL     1      12.226   7.573  -0.070  0.00  0.00    +0.096 A 
ATOM     25  N   UNL     1      11.578   6.370  -0.070  0.00  0.00    -0.267 N 
ATOM     26  C   UNL     1      10.230   6.351  -0.058  0.00  0.00    +0.267 A 
ATOM     27  O   UNL     1       9.603   7.396  -0.047  0.00  0.00    -0.267 OA
ATOM     28  C   UNL     1      14.504   3.972  -0.112  0.00  0.00    +0.047 C 
ENDBRANCH  11  14
BRANCH   1  29
ATOM     29  O   UNL     1      -1.161  -0.708   0.010  0.00  0.00    -0.492 OA
BRANCH  29  31
ATOM     30  C   UNL     1      -3.569  -0.911   0.033  0.00  0.00    +0.048 C 
ATOM     31  C   UNL     1      -2.375   0.045   0.026  0.00  0.00    +0.225 C 
ENDBRANCH  29  31
ENDBRANCH   1  29
TORSDOF 3
