REMARK  Name = ZINC50574078
REMARK  5 active torsions:
REMARK  status: ('A' for Active; 'I' for Inactive)
REMARK    1  A    between atoms: C_5  and  N_8
REMARK    2  A    between atoms: C_9  and  C_11
REMARK    3  A    between atoms: C_11  and  N_12
REMARK    4  A    between atoms: N_15  and  C_16
REMARK    5  A    between atoms: C_16  and  C_17
REMARK                            x       y       z     vdW  Elec       q    Type
REMARK                         _______ _______ _______ _____ _____    ______ ____
ROOT
ATOM      1  N   UNL     1       1.229  -2.086  -0.023  0.00  0.00    -0.283 N 
ATOM      2  C   UNL     1       2.398  -2.746  -0.140  0.00  0.00    +0.234 C 
ATOM      3  O   UNL     1       3.444  -2.132  -0.146  0.00  0.00    -0.274 OA
ATOM      4  H   UNL     1       0.399  -2.580   0.063  0.00  0.00    +0.155 HD
ENDROOT
BRANCH   1   9
ATOM      5  C   UNL     1       0.149   1.381   0.586  0.00  0.00    +0.048 A 
ATOM      6  C   UNL     1       1.173   2.086  -0.026  0.00  0.00    +0.077 A 
ATOM      7  C   UNL     1       2.221   1.403  -0.642  0.00  0.00    +0.144 A 
ATOM      8  C   UNL     1       2.240   0.020  -0.640  0.00  0.00    +0.072 A 
ATOM      9  C   UNL     1       1.212  -0.685  -0.025  0.00  0.00    +0.056 A 
ATOM     10  C   UNL     1       0.169  -0.002   0.588  0.00  0.00    +0.064 A 
ATOM     11 CL   UNL     1      -1.113  -0.886   1.355  0.00  0.00    -0.082 Cl
ATOM     12  O   UNL     1       3.218   2.108  -1.241  0.00  0.00    -0.481 OA
ATOM     13  C   UNL     1       2.853   3.353  -1.843  0.00  0.00    +0.325 C 
ATOM     14  C   UNL     1       1.986   4.140  -0.893  0.00  0.00    +0.255 C 
ATOM     15  O   UNL     1       2.022   5.352  -0.899  0.00  0.00    -0.272 OA
ATOM     16  N   UNL     1       1.169   3.489  -0.036  0.00  0.00    -0.280 N 
ATOM     17  H   UNL     1       0.589   3.985   0.563  0.00  0.00    +0.155 HD
ENDBRANCH   1   9
BRANCH   2  18
ATOM     18  C   UNL     1       2.406  -4.248  -0.262  0.00  0.00    +0.202 C 
BRANCH  18  19
ATOM     19  N   UNL     1       3.787  -4.722  -0.375  0.00  0.00    -0.291 N 
ATOM     20  C   UNL     1       4.040  -6.040  -0.496  0.00  0.00    +0.300 C 
ATOM     21  O   UNL     1       3.122  -6.836  -0.511  0.00  0.00    -0.253 OA
ATOM     22  N   UNL     1       5.311  -6.476  -0.600  0.00  0.00    -0.299 N 
ATOM     23  H   UNL     1       4.520  -4.086  -0.363  0.00  0.00    +0.151 HD
ATOM     24  H   UNL     1       6.044  -5.840  -0.588  0.00  0.00    +0.150 HD
BRANCH  22  25
ATOM     25  C   UNL     1       5.586  -7.909  -0.731  0.00  0.00    +0.109 C 
BRANCH  25  26
ATOM     26  C   UNL     1       7.097  -8.131  -0.831  0.00  0.00    +0.006 C 
ATOM     27  C   UNL     1       7.628  -7.560  -2.162  0.00  0.00    +0.005 C 
ATOM     28  C   UNL     1       8.723  -8.566  -2.596  0.00  0.00    +0.000 C 
ATOM     29  C   UNL     1       8.118  -9.930  -2.182  0.00  0.00    +0.000 C 
ATOM     30  C   UNL     1       7.408  -9.638  -0.844  0.00  0.00    +0.005 C 
ENDBRANCH  25  26
ENDBRANCH  22  25
ENDBRANCH  18  19
ENDBRANCH   2  18
TORSDOF 5
