REMARK  Name = ZINC06144761
REMARK  12 active torsions:
REMARK  status: ('A' for Active; 'I' for Inactive)
REMARK    1  A    between atoms: C_1  and  C_2
REMARK    2  A    between atoms: C_2  and  C_3
REMARK    3  A    between atoms: C_2  and  C_4
REMARK    4  A    between atoms: C_4  and  C_6
REMARK    5  A    between atoms: C_4  and  O_12
REMARK    6  A    between atoms: O_12  and  C_13
REMARK    7  A    between atoms: C_13  and  C_15
REMARK    8  A    between atoms: C_15  and  C_16
REMARK    9  A    between atoms: C_19  and  N_22
REMARK   10  A    between atoms: N_22  and  S_23
REMARK   11  A    between atoms: S_23  and  C_26
REMARK   12  A    between atoms: C_30  and  C_32
REMARK                            x       y       z     vdW  Elec       q    Type
REMARK                         _______ _______ _______ _____ _____    ______ ____
ROOT
ATOM      1  C   UNL     1      -2.076   5.503  -4.571  0.00  0.00    -0.037 A 
ATOM      2  C   UNL     1      -1.670   6.793  -4.863  0.00  0.00    +0.006 A 
ATOM      3  C   UNL     1      -0.500   7.290  -4.322  0.00  0.00    +0.025 A 
ATOM      4  C   UNL     1       0.268   6.492  -3.483  0.00  0.00    +0.048 A 
ATOM      5  C   UNL     1      -0.140   5.196  -3.196  0.00  0.00    +0.025 A 
ATOM      6  C   UNL     1      -1.313   4.707  -3.737  0.00  0.00    +0.006 A 
ENDROOT
BRANCH   4   7
ATOM      7  N   UNL     1       1.452   6.992  -2.935  0.00  0.00    -0.216 N 
ATOM      8  H   UNL     1       2.309   6.688  -3.272  0.00  0.00    +0.174 HD
BRANCH   7   9
ATOM      9  S   UNL     1       1.392   8.101  -1.707  0.00  0.00    +0.072 S 
ATOM     10  O   UNL     1       0.521   9.138  -2.139  0.00  0.00    -0.150 OA
ATOM     11  O   UNL     1       2.736   8.349  -1.317  0.00  0.00    -0.150 OA
BRANCH   9  12
ATOM     12  C   UNL     1       0.606   7.321  -0.337  0.00  0.00    +0.109 A 
ATOM     13  C   UNL     1       1.346   6.546   0.536  0.00  0.00    +0.029 A 
ATOM     14  C   UNL     1       0.729   5.933   1.610  0.00  0.00    +0.002 A 
ATOM     15  C   UNL     1      -0.629   6.096   1.812  0.00  0.00    +0.012 A 
ATOM     16  C   UNL     1      -1.370   6.867   0.937  0.00  0.00    +0.057 A 
ATOM     17  C   UNL     1      -0.752   7.484  -0.135  0.00  0.00    +0.041 A 
BRANCH  16  18
ATOM     18  C   UNL     1      -2.852   7.039   1.154  0.00  0.00    +0.417 C 
ATOM     19  F   UNL     1      -3.241   6.330   2.295  0.00  0.00    -0.166 F 
ATOM     20  F   UNL     1      -3.143   8.397   1.326  0.00  0.00    -0.166 F 
ATOM     21  F   UNL     1      -3.546   6.551   0.041  0.00  0.00    -0.166 F 
ENDBRANCH  16  18
ENDBRANCH   9  12
ENDBRANCH   7   9
ENDBRANCH   4   7
BRANCH   1  22
ATOM     22  C   UNL     1      -3.353   4.965  -5.163  0.00  0.00    +0.155 C 
BRANCH  22  23
ATOM     23  C   UNL     1      -3.054   4.303  -6.484  0.00  0.00    +0.312 C 
ATOM     24  O   UNL     1      -1.921   4.272  -6.901  0.00  0.00    -0.250 OA
BRANCH  23  25
ATOM     25  O   UNL     1      -4.048   3.748  -7.196  0.00  0.00    -0.451 OA
BRANCH  25  26
ATOM     26  C   UNL     1      -3.687   3.128  -8.458  0.00  0.00    +0.264 C 
BRANCH  26  27
ATOM     27  C   UNL     1      -4.634   1.993  -8.749  0.00  0.00    +0.261 C 
ATOM     28  O   UNL     1      -4.413   1.242  -9.675  0.00  0.00    -0.271 OA
ATOM     29  N   UNL     1      -5.725   1.812  -7.980  0.00  0.00    -0.237 N 
ATOM     30  C   UNL     1      -6.522   0.743  -8.181  0.00  0.00    +0.303 C 
ATOM     31  O   UNL     1      -6.256  -0.057  -9.056  0.00  0.00    -0.253 OA
ATOM     32  N   UNL     1      -7.614   0.562  -7.412  0.00  0.00    -0.313 N 
ATOM     33  H   UNL     1      -5.938   2.450  -7.281  0.00  0.00    +0.159 HD
ATOM     34  H   UNL     1      -7.826   1.201  -6.713  0.00  0.00    +0.146 HD
ATOM     35  H   UNL     1      -8.187  -0.206  -7.556  0.00  0.00    +0.146 HD
ENDBRANCH  26  27
BRANCH  26  37
ATOM     36  C   UNL     1      -2.800   5.310  -9.293  0.00  0.00    +0.011 C 
ATOM     37  C   UNL     1      -3.775   4.166  -9.579  0.00  0.00    +0.033 C 
ATOM     38  C   UNL     1      -3.412   3.508 -10.913  0.00  0.00    +0.011 C 
ENDBRANCH  26  37
ENDBRANCH  25  26
ENDBRANCH  23  25
ENDBRANCH  22  23
ENDBRANCH   1  22
TORSDOF 10
