REMARK  Name = ZINC35311054
REMARK  2 active torsions:
REMARK  status: ('A' for Active; 'I' for Inactive)
REMARK    1  A    between atoms: C_11  and  N_21
REMARK    2  A    between atoms: C_12  and  C_14
REMARK                            x       y       z     vdW  Elec       q    Type
REMARK                         _______ _______ _______ _____ _____    ______ ____
ROOT
ATOM      1  C   UNL     1      -0.017   1.404   0.010  0.00  0.00    +0.022 A 
ATOM      2  C   UNL     1       1.196   2.095   0.002  0.00  0.00    +0.003 A 
ATOM      3  C   UNL     1       1.246   3.502   0.007  0.00  0.00    +0.059 A 
ATOM      4  C   UNL     1       2.454   4.136  -0.004  0.00  0.00    +0.167 A 
ATOM      5  C   UNL     1       3.658   3.412  -0.019  0.00  0.00    +0.168 A 
ATOM      6  C   UNL     1       3.665   2.046  -0.022  0.00  0.00    +0.075 A 
ATOM      7  C   UNL     1       2.451   1.341  -0.013  0.00  0.00    +0.051 A 
ATOM      8  N   UNL     1       2.411   0.007  -0.019  0.00  0.00    -0.349 N 
ATOM      9  C   UNL     1       1.272  -0.641  -0.012  0.00  0.00    +0.088 A 
ATOM     10  C   UNL     1       0.002  -0.004   0.002  0.00  0.00    +0.028 A 
ATOM     11  C   UNL     1      -1.140  -0.911   0.006  0.00  0.00    +0.053 A 
ATOM     12  C   UNL     1      -0.900  -2.265  -0.004  0.00  0.00    +0.097 A 
ATOM     13  S   UNL     1       0.878  -2.374  -0.017  0.00  0.00    -0.064 S 
ATOM     14  O   UNL     1       4.695   4.301  -0.027  0.00  0.00    -0.453 OA
ATOM     15  C   UNL     1       4.123   5.557  -0.436  0.00  0.00    +0.466 C 
ATOM     16  O   UNL     1       2.753   5.471  -0.003  0.00  0.00    -0.453 OA
ATOM     17  H   UNL     1       3.242  -0.493  -0.028  0.00  0.00    +0.166 HD
ENDROOT
BRANCH  12  18
ATOM     18  C   UNL     1      -1.843  -3.322  -0.002  0.00  0.00    +0.255 C 
ATOM     19  O   UNL     1      -3.035  -3.075   0.009  0.00  0.00    -0.269 OA
ATOM     20  N   UNL     1      -1.421  -4.602  -0.013  0.00  0.00    -0.297 N 
ATOM     21  C   UNL     1      -0.018  -5.042  -0.020  0.00  0.00    +0.108 C 
ATOM     22  C   UNL     1      -0.021  -6.584  -0.058  0.00  0.00    +0.020 C 
ATOM     23  C   UNL     1      -1.420  -6.915  -0.640  0.00  0.00    +0.020 C 
ATOM     24  C   UNL     1      -2.289  -5.794  -0.012  0.00  0.00    +0.108 C 
ENDBRANCH  12  18
BRANCH  11  25
ATOM     25  N   UNL     1      -2.437  -0.420   0.019  0.00  0.00    -0.356 N 
ATOM     26  H   UNL     1      -2.593   0.537   0.025  0.00  0.00    +0.142 HD
ATOM     27  H   UNL     1      -3.188  -1.034   0.021  0.00  0.00    +0.142 HD
ENDBRANCH  11  25
TORSDOF 2
