REMARK  Name = ZINC45214326
REMARK  9 active torsions:
REMARK  status: ('A' for Active; 'I' for Inactive)
REMARK    1  A    between atoms: C_1  and  C_2
REMARK    2  A    between atoms: C_2  and  C_3
REMARK    3  A    between atoms: C_2  and  C_16
REMARK    4  A    between atoms: C_2  and  N_18
REMARK    5  A    between atoms: C_3  and  C_4
REMARK    6  A    between atoms: C_4  and  O_5
REMARK    7  A    between atoms: O_5  and  C_6
REMARK    8  A    between atoms: C_9  and  N_13
REMARK    9  A    between atoms: N_18  and  C_19
REMARK                            x       y       z     vdW  Elec       q    Type
REMARK                         _______ _______ _______ _____ _____    ______ ____
ROOT
ATOM      1  O   UNL     1       0.717  -0.491   3.658  0.00  0.00    -0.490 OA
ENDROOT
BRANCH   1   2
ATOM      2  C   UNL     1       0.207  -0.139   4.868  0.00  0.00    +0.139 A 
ATOM      3  C   UNL     1      -0.938   0.640   4.939  0.00  0.00    +0.049 A 
ATOM      4  C   UNL     1      -1.455   0.996   6.170  0.00  0.00    +0.036 A 
ATOM      5  C   UNL     1      -0.832   0.576   7.331  0.00  0.00    +0.128 A 
ATOM      6  C   UNL     1       0.310  -0.201   7.263  0.00  0.00    +0.056 A 
ATOM      7  C   UNL     1       0.828  -0.564   6.034  0.00  0.00    +0.085 A 
ATOM      8 CL   UNL     1       2.258  -1.546   5.950  0.00  0.00    -0.080 Cl
BRANCH   5   9
ATOM      9  N   UNL     1      -1.387   0.960   8.648  0.00  0.00    +0.056 N 
ATOM     10  O   UNL     1      -2.385   1.639   8.708  0.00  0.00    -0.126 OA
ATOM     11  O   UNL     1      -0.844   0.593   9.664  0.00  0.00    -0.126 OA
ENDBRANCH   5   9
ENDBRANCH   1   2
BRANCH   1  12
ATOM     12  C   UNL     1       0.026  -0.018   2.500  0.00  0.00    +0.232 C 
BRANCH  12  13
ATOM     13  C   UNL     1       0.742  -0.511   1.242  0.00  0.00    +0.078 C 
BRANCH  13  15
ATOM     14  C   UNL     1      -0.019   1.526   0.010  0.00  0.00    +0.044 C 
ATOM     15  C   UNL     1       0.002  -0.004   0.002  0.00  0.00    +0.107 C 
BRANCH  15  16
ATOM     16  N   UNL     1       0.690  -0.478  -1.207  0.00  0.00    -0.302 NA
ATOM     17  C   UNL     1       0.006  -0.009  -2.419  0.00  0.00    +0.102 C 
ATOM     18  H   UNL     1       1.658  -0.195  -1.206  0.00  0.00    +0.123 HD
ENDBRANCH  15  16
BRANCH  15  19
ATOM     19  C   UNL     1      -1.379  -0.514   0.013  0.00  0.00    +0.085 C 
ATOM     20  N   UNL     1      -2.445  -0.907   0.021  0.00  0.00    -0.195 NA
ENDBRANCH  15  19
ENDBRANCH  13  15
ENDBRANCH  12  13
ENDBRANCH   1  12
TORSDOF 7
