REMARK  Name = ZINC62747015
REMARK  9 active torsions:
REMARK  status: ('A' for Active; 'I' for Inactive)
REMARK    1  A    between atoms: C_1  and  C_2
REMARK    2  A    between atoms: C_2  and  N_3
REMARK    3  A    between atoms: N_3  and  C_4
REMARK    4  A    between atoms: C_4  and  C_6
REMARK    5  A    between atoms: C_4  and  C_7
REMARK    6  A    between atoms: C_12  and  O_13
REMARK    7  A    between atoms: O_13  and  C_14
REMARK    8  A    between atoms: C_14  and  C_16
REMARK    9  A    between atoms: C_14  and  C_17
REMARK                            x       y       z     vdW  Elec       q    Type
REMARK                         _______ _______ _______ _____ _____    ______ ____
ROOT
ATOM      1  C   UNL     1      -2.765  -2.605  -0.056  0.00  0.00    -0.020 A 
ATOM      2  C   UNL     1      -3.812  -1.930  -0.653  0.00  0.00    +0.008 A 
ATOM      3  C   UNL     1      -5.065  -2.511  -0.715  0.00  0.00    +0.039 A 
ATOM      4  C   UNL     1      -5.274  -3.770  -0.178  0.00  0.00    +0.127 A 
ATOM      5  C   UNL     1      -4.227  -4.449   0.421  0.00  0.00    +0.084 A 
ATOM      6  C   UNL     1      -2.969  -3.869   0.478  0.00  0.00    +0.126 A 
ATOM      7  F   UNL     1      -6.499  -4.336  -0.238  0.00  0.00    -0.205 F 
ENDROOT
BRANCH   1   8
ATOM      8  C   UNL     1      -1.399  -1.970   0.009  0.00  0.00    -0.040 C 
ATOM      9  C   UNL     1      -0.558  -2.446  -1.177  0.00  0.00    -0.009 C 
BRANCH   8  10
ATOM     10  N   UNL     1      -1.536  -0.508  -0.043  0.00  0.00    +0.383 N 
ATOM     11  H   UNL     1      -2.158  -0.202   0.691  0.00  0.00    -0.085 HD
ATOM     12  H   UNL     1      -1.914  -0.237  -0.938  0.00  0.00    -0.085 HD
BRANCH  10  14
ATOM     13  C   UNL     1      -0.360   1.636   0.087  0.00  0.00    -0.017 C 
ATOM     14  C   UNL     1      -0.218   0.114   0.141  0.00  0.00    -0.085 C 
ENDBRANCH  10  14
ENDBRANCH   8  10
ENDBRANCH   1   8
BRANCH   6  15
ATOM     15  O   UNL     1      -1.938  -4.535   1.061  0.00  0.00    -0.480 OA
BRANCH  15  16
ATOM     16  C   UNL     1      -2.246  -5.776   1.699  0.00  0.00    +0.256 C 
ATOM     17  C   UNL     1      -2.233  -6.901   0.662  0.00  0.00    +0.062 C 
BRANCH  16  18
ATOM     18  C   UNL     1      -1.218  -6.062   2.763  0.00  0.00    +0.261 C 
ATOM     19  O   UNL     1      -0.311  -5.281   2.956  0.00  0.00    -0.271 OA
ATOM     20  N   UNL     1      -1.306  -7.186   3.501  0.00  0.00    -0.237 N 
ATOM     21  C   UNL     1      -0.387  -7.442   4.453  0.00  0.00    +0.303 C 
ATOM     22  O   UNL     1       0.523  -6.659   4.645  0.00  0.00    -0.253 OA
ATOM     23  N   UNL     1      -0.475  -8.567   5.190  0.00  0.00    -0.313 N 
ATOM     24  H   UNL     1      -2.032  -7.811   3.347  0.00  0.00    +0.159 HD
ATOM     25  H   UNL     1      -1.201  -9.192   5.037  0.00  0.00    +0.146 HD
ATOM     26  H   UNL     1       0.186  -8.751   5.875  0.00  0.00    +0.146 HD
ENDBRANCH  16  18
ENDBRANCH  15  16
ENDBRANCH   6  15
TORSDOF 6
