REMARK  Name = ZINC06922328
REMARK  7 active torsions:
REMARK  status: ('A' for Active; 'I' for Inactive)
REMARK    1  A    between atoms: C_1  and  C_2
REMARK    2  A    between atoms: C_7  and  O_8
REMARK    3  A    between atoms: O_8  and  C_9
REMARK    4  A    between atoms: C_9  and  C_10
REMARK    5  A    between atoms: N_12  and  N_13
REMARK    6  A    between atoms: C_14  and  O_16
REMARK    7  A    between atoms: C_17  and  C_22
REMARK                            x       y       z     vdW  Elec       q    Type
REMARK                         _______ _______ _______ _____ _____    ______ ____
ROOT
ATOM      1  C   UNL     1      -0.623   6.268   0.039  0.00  0.00    +0.047 C 
ATOM      2  C   UNL     1      -2.012   5.683   0.043  0.00  0.00    -0.005 A 
ATOM      3  C   UNL     1      -3.106   6.522   0.052  0.00  0.00    +0.054 A 
ATOM      4  C   UNL     1      -4.389   5.991   0.055  0.00  0.00    +0.140 A 
ATOM      5  C   UNL     1      -4.562   4.596   0.048  0.00  0.00    +0.024 A 
ATOM      6  C   UNL     1      -3.447   3.753   0.033  0.00  0.00    +0.057 A 
ATOM      7  C   UNL     1      -2.179   4.301   0.036  0.00  0.00    +0.125 A 
ATOM      8  C   UNL     1      -5.922   4.047   0.052  0.00  0.00    -0.033 A 
ATOM      9  C   UNL     1      -6.964   4.917   0.062  0.00  0.00    +0.096 A 
ATOM     10  C   UNL     1      -6.717   6.307   0.068  0.00  0.00    +0.337 A 
ATOM     11  O   UNL     1      -7.661   7.077   0.076  0.00  0.00    -0.245 OA
ATOM     12  O   UNL     1      -5.470   6.802   0.065  0.00  0.00    -0.422 OA
ATOM     13  C   UNL     1      -6.156   2.559   0.046  0.00  0.00    +0.045 C 
ENDROOT
BRANCH   7  14
ATOM     14  O   UNL     1      -1.089   3.488   0.026  0.00  0.00    -0.482 OA
BRANCH  14  15
ATOM     15  C   UNL     1      -1.331   2.079   0.020  0.00  0.00    +0.326 C 
BRANCH  15  16
ATOM     16  C   UNL     1      -0.016   1.344   0.009  0.00  0.00    +0.267 C 
ATOM     17  O   UNL     1       1.026   1.964   0.003  0.00  0.00    -0.271 OA
ATOM     18  N   UNL     1       0.002  -0.004   0.002  0.00  0.00    -0.229 N 
ATOM     19  H   UNL     1      -0.831  -0.500   0.007  0.00  0.00    +0.173 HD
BRANCH  18  20
ATOM     20  N   UNL     1       1.225  -0.688  -0.013  0.00  0.00    -0.200 N 
ATOM     21  C   UNL     1       1.243  -2.036  -0.021  0.00  0.00    +0.414 C 
ATOM     22  O   UNL     1       2.303  -2.629  -0.034  0.00  0.00    -0.225 OA
ATOM     23  H   UNL     1       2.058  -0.192  -0.019  0.00  0.00    +0.176 HD
BRANCH  21  24
ATOM     24  O   UNL     1       0.086  -2.725  -0.013  0.00  0.00    -0.465 OA
ATOM     25  H   UNL     1       0.150  -3.689  -0.019  0.00  0.00    +0.297 HD
ENDBRANCH  21  24
ENDBRANCH  18  20
ENDBRANCH  15  16
ENDBRANCH  14  15
ENDBRANCH   7  14
TORSDOF 5
