REMARK  Name = ZINC06600063
REMARK  17 active torsions:
REMARK  status: ('A' for Active; 'I' for Inactive)
REMARK    1  A    between atoms: C_1  and  C_2
REMARK    2  A    between atoms: C_2  and  O_3
REMARK    3  A    between atoms: O_3  and  C_4
REMARK    4  A    between atoms: C_4  and  C_5
REMARK    5  A    between atoms: C_5  and  C_6
REMARK    6  A    between atoms: C_6  and  N_7
REMARK    7  A    between atoms: N_7  and  C_8
REMARK    8  A    between atoms: C_8  and  C_10
REMARK    9  A    between atoms: C_8  and  C_17
REMARK   10  A    between atoms: C_13  and  O_16
REMARK   11  A    between atoms: N_19  and  C_20
REMARK   12  A    between atoms: C_20  and  C_21
REMARK   13  A    between atoms: C_20  and  C_22
REMARK   14  A    between atoms: C_20  and  C_23
REMARK   15  A    between atoms: C_24  and  C_26
REMARK   16  A    between atoms: C_26  and  N_27
REMARK   17  A    between atoms: C_29  and  C_32
REMARK                            x       y       z     vdW  Elec       q    Type
REMARK                         _______ _______ _______ _____ _____    ______ ____
ROOT
ATOM      1  N   UNL     1      -3.291   1.085   0.148  0.00  0.00    -0.284 N 
ATOM      2  C   UNL     1      -3.643   0.385   1.245  0.00  0.00    +0.240 C 
ATOM      3  O   UNL     1      -4.063   0.964   2.224  0.00  0.00    -0.273 OA
ENDROOT
BRANCH   1   4
ATOM      4  C   UNL     1      -3.528   2.530   0.094  0.00  0.00    +0.111 C 
BRANCH   4   5
ATOM      5  C   UNL     1      -2.382   3.261   0.797  0.00  0.00    +0.047 C 
BRANCH   5   6
ATOM      6  C   UNL     1      -2.630   4.770   0.740  0.00  0.00    +0.161 C 
BRANCH   6   7
ATOM      7  O   UNL     1      -1.560   5.453   1.397  0.00  0.00    -0.380 OA
BRANCH   7   9
ATOM      8  C   UNL     1      -0.500   7.499   2.125  0.00  0.00    +0.034 C 
ATOM      9  C   UNL     1      -1.694   6.876   1.400  0.00  0.00    +0.156 C 
ENDBRANCH   7   9
ENDBRANCH   6   7
ENDBRANCH   5   6
ENDBRANCH   4   5
ENDBRANCH   1   4
BRANCH   1  10
ATOM     10  C   UNL     1      -2.665   0.402  -0.987  0.00  0.00    +0.192 C 
BRANCH  10  11
ATOM     11  C   UNL     1      -3.691   0.181  -2.068  0.00  0.00    -0.018 A 
ATOM     12  C   UNL     1      -4.560   1.200  -2.413  0.00  0.00    +0.009 A 
ATOM     13  C   UNL     1      -5.498   1.002  -3.408  0.00  0.00    +0.046 A 
ATOM     14  C   UNL     1      -5.575  -0.223  -4.053  0.00  0.00    +0.117 A 
ATOM     15  C   UNL     1      -4.706  -1.246  -3.701  0.00  0.00    +0.046 A 
ATOM     16  C   UNL     1      -3.766  -1.041  -2.710  0.00  0.00    +0.009 A 
BRANCH  14  17
ATOM     17  O   UNL     1      -6.501  -0.422  -5.028  0.00  0.00    -0.507 OA
ATOM     18  H   UNL     1      -7.346  -0.763  -4.704  0.00  0.00    +0.292 HD
ENDBRANCH  14  17
ENDBRANCH  10  11
BRANCH  10  19
ATOM     19  C   UNL     1      -1.542   1.250  -1.526  0.00  0.00    +0.238 C 
ATOM     20  O   UNL     1      -1.651   2.457  -1.551  0.00  0.00    -0.273 OA
ATOM     21  N   UNL     1      -0.415   0.665  -1.980  0.00  0.00    -0.309 N 
ATOM     22  H   UNL     1      -0.327  -0.300  -1.960  0.00  0.00    +0.149 HD
BRANCH  21  23
ATOM     23  C   UNL     1       0.677   1.489  -2.504  0.00  0.00    +0.026 C 
ATOM     24  C   UNL     1       1.169   2.440  -1.410  0.00  0.00    +0.031 C 
ATOM     25  C   UNL     1       1.829   0.586  -2.950  0.00  0.00    +0.031 C 
ATOM     26  C   UNL     1       0.175   2.303  -3.698  0.00  0.00    +0.031 C 
ENDBRANCH  21  23
ENDBRANCH  10  19
ENDBRANCH   1  10
BRANCH   2  27
ATOM     27  C   UNL     1      -3.516  -1.117   1.253  0.00  0.00    +0.264 C 
BRANCH  27  28
ATOM     28  N   UNL     1      -3.841  -1.626   2.588  0.00  0.00    -0.154 N 
ATOM     29  N   UNL     1      -2.995  -1.804   3.544  0.00  0.00    -0.130 NA
ATOM     30  C   UNL     1      -3.655  -2.269   4.586  0.00  0.00    +0.205 A 
ATOM     31  N   UNL     1      -4.938  -2.373   4.212  0.00  0.00    -0.108 NA
ATOM     32  N   UNL     1      -5.014  -1.973   2.988  0.00  0.00    -0.045 NA
BRANCH  30  33
ATOM     33  C   UNL     1      -3.088  -2.615   5.913  0.00  0.00    +0.023 A 
ATOM     34  C   UNL     1      -1.724  -2.458   6.152  0.00  0.00    +0.013 A 
ATOM     35  C   UNL     1      -1.202  -2.776   7.390  0.00  0.00    +0.021 A 
ATOM     36  C   UNL     1      -2.029  -3.263   8.388  0.00  0.00    +0.041 A 
ATOM     37  C   UNL     1      -3.383  -3.426   8.153  0.00  0.00    +0.021 A 
ATOM     38  C   UNL     1      -3.916  -3.105   6.921  0.00  0.00    +0.013 A 
ATOM     39 CL   UNL     1      -1.365  -3.668   9.940  0.00  0.00    -0.084 Cl
ENDBRANCH  30  33
ENDBRANCH  27  28
ENDBRANCH   2  27
TORSDOF 13
