REMARK  Name = ZINC01715210
REMARK  6 active torsions:
REMARK  status: ('A' for Active; 'I' for Inactive)
REMARK    1  A    between atoms: C_1  and  C_2
REMARK    2  A    between atoms: C_2  and  C_3
REMARK    3  A    between atoms: C_3  and  C_12
REMARK    4  A    between atoms: C_13  and  C_14
REMARK    5  A    between atoms: C_14  and  C_15
REMARK    6  A    between atoms: C_14  and  C_16
REMARK                            x       y       z     vdW  Elec       q    Type
REMARK                         _______ _______ _______ _____ _____    ______ ____
ROOT
ATOM      1  C   UNL     1      -0.052   3.978   0.024  0.00  0.00    +0.141 C 
ATOM      2  C   UNL     1       1.247   3.194   0.007  0.00  0.00    +0.239 C 
ATOM      3  O   UNL     1       2.321   3.757   0.001  0.00  0.00    -0.274 OA
ATOM      4  N   UNL     1       1.163   1.847   0.001  0.00  0.00    -0.239 N 
ATOM      5  C   UNL     1      -0.014   1.211   0.009  0.00  0.00    +0.312 C 
ATOM      6  O   UNL     1       0.002  -0.004   0.002  0.00  0.00    -0.252 OA
ATOM      7  N   UNL     1      -1.208   1.815   0.018  0.00  0.00    -0.239 N 
ATOM      8  C   UNL     1      -1.329   3.159   0.032  0.00  0.00    +0.239 C 
ATOM      9  O   UNL     1      -2.418   3.692   0.045  0.00  0.00    -0.274 OA
ATOM     10  H   UNL     1       1.980   1.324  -0.009  0.00  0.00    +0.159 HD
ATOM     11  H   UNL     1      -2.011   1.270   0.019  0.00  0.00    +0.159 HD
ENDROOT
BRANCH   1  13
ATOM     12  C   UNL     1       0.002   4.022  -2.474  0.00  0.00    +0.005 C 
ATOM     13  C   UNL     1      -0.078   4.882  -1.210  0.00  0.00    +0.026 C 
ENDBRANCH   1  13
BRANCH   1  14
ATOM     14  C   UNL     1      -0.052   4.859   1.246  0.00  0.00    -0.006 C 
ATOM     15  C   UNL     1       0.969   4.842   2.066  0.00  0.00    -0.027 C 
BRANCH  15  16
ATOM     16  C   UNL     1       0.969   5.723   3.289  0.00  0.00    +0.005 C 
ATOM     17  C   UNL     1       1.076   4.855   4.544  0.00  0.00    +0.011 C 
ATOM     18  C   UNL     1       2.161   6.681   3.228  0.00  0.00    +0.011 C 
ENDBRANCH  15  16
ENDBRANCH   1  14
TORSDOF 3
