REMARK  Name = ZINC35969219
REMARK  13 active torsions:
REMARK  status: ('A' for Active; 'I' for Inactive)
REMARK    1  A    between atoms: C_1  and  C_2
REMARK    2  A    between atoms: C_5  and  C_9
REMARK    3  A    between atoms: C_6  and  C_8
REMARK    4  A    between atoms: N_14  and  C_17
REMARK    5  A    between atoms: C_17  and  C_19
REMARK    6  A    between atoms: C_17  and  C_22
REMARK    7  A    between atoms: C_19  and  C_20
REMARK    8  A    between atoms: C_19  and  C_21
REMARK    9  A    between atoms: N_24  and  C_25
REMARK   10  A    between atoms: C_25  and  C_26
REMARK   11  A    between atoms: C_26  and  C_27
REMARK   12  A    between atoms: C_26  and  C_28
REMARK   13  A    between atoms: N_29  and  C_33
REMARK                            x       y       z     vdW  Elec       q    Type
REMARK                         _______ _______ _______ _____ _____    ______ ____
ROOT
ATOM      1  C   UNL     1      -0.548  -5.895  -2.027  0.00  0.00    +0.142 C 
ATOM      2  C   UNL     1      -1.852  -6.125  -1.291  0.00  0.00    +0.058 C 
ATOM      3  C   UNL     1      -2.717  -7.020  -1.811  0.00  0.00    +0.042 C 
ATOM      4  C   UNL     1      -3.912  -7.045  -0.885  0.00  0.00    +0.160 C 
ATOM      5  N   UNL     1      -3.591  -6.076   0.173  0.00  0.00    -0.280 N 
ATOM      6  C   UNL     1      -2.378  -5.566  -0.109  0.00  0.00    +0.247 C 
ATOM      7  O   UNL     1      -1.809  -4.730   0.570  0.00  0.00    -0.270 OA
ATOM      8  N   UNL     1      -2.428  -7.696  -2.962  0.00  0.00    -0.260 N 
ATOM      9  C   UNL     1      -1.292  -7.532  -3.653  0.00  0.00    +0.307 C 
ATOM     10  O   UNL     1      -1.123  -8.179  -4.668  0.00  0.00    -0.252 OA
ATOM     11  N   UNL     1      -0.332  -6.674  -3.259  0.00  0.00    -0.288 N 
ATOM     12  C   UNL     1      -3.415  -8.653  -3.469  0.00  0.00    +0.139 C 
ATOM     13  H   UNL     1       0.483  -6.571  -3.774  0.00  0.00    +0.151 HD
ENDROOT
BRANCH   1  18
ATOM     14  C   UNL     1      -0.232  -0.287  -3.383  0.00  0.00    +0.044 C 
ATOM     15  C   UNL     1      -0.315  -1.749  -3.030  0.00  0.00    -0.050 A 
ATOM     16  C   UNL     1      -1.547  -2.347  -2.842  0.00  0.00    +0.004 A 
ATOM     17  C   UNL     1      -1.623  -3.688  -2.518  0.00  0.00    +0.006 A 
ATOM     18  C   UNL     1      -0.466  -4.433  -2.382  0.00  0.00    -0.020 A 
ATOM     19  C   UNL     1       0.767  -3.836  -2.571  0.00  0.00    -0.045 A 
ATOM     20  C   UNL     1       0.842  -2.495  -2.899  0.00  0.00    +0.007 A 
ATOM     21  C   UNL     1       2.028  -4.647  -2.422  0.00  0.00    +0.044 C 
ENDBRANCH   1  18
BRANCH   5  22
ATOM     22  C   UNL     1      -4.434  -5.731   1.320  0.00  0.00    +0.165 C 
BRANCH  22  23
ATOM     23  C   UNL     1      -3.699  -6.048   2.597  0.00  0.00    +0.234 C 
ATOM     24  O   UNL     1      -2.505  -6.258   2.574  0.00  0.00    -0.274 OA
ATOM     25  N   UNL     1      -4.370  -6.099   3.765  0.00  0.00    -0.314 N 
ATOM     26  H   UNL     1      -5.333  -5.984   3.777  0.00  0.00    +0.149 HD
BRANCH  25  27
ATOM     27  C   UNL     1      -3.644  -6.328   5.017  0.00  0.00    +0.107 C 
BRANCH  27  28
ATOM     28  C   UNL     1      -4.632  -6.340   6.185  0.00  0.00    -0.000 C 
ATOM     29  C   UNL     1      -3.893  -6.703   7.475  0.00  0.00    +0.009 C 
ATOM     30  C   UNL     1      -5.265  -4.955   6.332  0.00  0.00    +0.009 C 
ENDBRANCH  27  28
ENDBRANCH  25  27
ENDBRANCH  22  23
BRANCH  22  31
ATOM     31  C   UNL     1      -4.763  -4.237   1.280  0.00  0.00    +0.012 C 
ATOM     32  C   UNL     1      -5.417  -3.895  -0.061  0.00  0.00    +0.009 C 
ATOM     33  C   UNL     1      -5.727  -3.896   2.418  0.00  0.00    +0.009 C 
ENDBRANCH  22  31
ENDBRANCH   5  22
TORSDOF 6
