REMARK  Name = ZINC20430696
REMARK  3 active torsions:
REMARK  status: ('A' for Active; 'I' for Inactive)
REMARK    1  A    between atoms: C_3  and  N_9
REMARK    2  A    between atoms: N_9  and  S_10
REMARK    3  A    between atoms: S_10  and  N_13
REMARK                            x       y       z     vdW  Elec       q    Type
REMARK                         _______ _______ _______ _____ _____    ______ ____
ROOT
ATOM      1  N   UNL     1      -0.897   1.885  -1.312  0.00  0.00    -0.086 NA
ENDROOT
BRANCH   1   4
ATOM      2  C   UNL     1      -0.558   5.545  -1.421  0.00  0.00    +0.040 A 
ATOM      3  C   UNL     1      -0.254   4.211  -1.229  0.00  0.00    +0.030 A 
ATOM      4  C   UNL     1      -1.204   3.236  -1.506  0.00  0.00    +0.089 A 
ATOM      5  C   UNL     1      -2.457   3.605  -1.980  0.00  0.00    +0.045 A 
ATOM      6  C   UNL     1      -2.758   4.941  -2.164  0.00  0.00    +0.055 A 
ATOM      7  C   UNL     1      -1.809   5.911  -1.888  0.00  0.00    +0.125 A 
ATOM      8  F   UNL     1      -2.104   7.216  -2.075  0.00  0.00    -0.205 F 
ATOM      9 BR   UNL     1      -3.750   2.281  -2.365  0.00  0.00    -0.048 Br
ENDBRANCH   1   4
BRANCH   1  10
ATOM     10  S   UNL     1       0.074   1.429  -0.051  0.00  0.00    +0.131 S 
ATOM     11  O   UNL     1       0.082   0.008  -0.039  0.00  0.00    -0.136 OA
ATOM     12  O   UNL     1       1.265   2.196  -0.158  0.00  0.00    -0.136 OA
BRANCH  10  13
ATOM     13  N   UNL     1      -0.676   1.910   1.344  0.00  0.00    -0.162 NA
ATOM     14  C   UNL     1      -0.410   3.236   1.918  0.00  0.00    +0.111 C 
ATOM     15  C   UNL     1      -1.751   3.957   2.126  0.00  0.00    +0.017 C 
ATOM     16  C   UNL     1      -2.670   3.077   2.977  0.00  0.00    +0.003 C 
ATOM     17  C   UNL     1      -2.939   1.761   2.245  0.00  0.00    +0.017 C 
ATOM     18  C   UNL     1      -1.616   1.017   2.035  0.00  0.00    +0.111 C 
ENDBRANCH  10  13
ENDBRANCH   1  10
TORSDOF 3
