REMARK  Name = ZINC50199099
REMARK  3 active torsions:
REMARK  status: ('A' for Active; 'I' for Inactive)
REMARK    1  A    between atoms: C_6  and  N_7
REMARK    2  A    between atoms: N_8  and  S_9
REMARK    3  A    between atoms: S_9  and  C_12
REMARK                            x       y       z     vdW  Elec       q    Type
REMARK                         _______ _______ _______ _____ _____    ______ ____
ROOT
ATOM      1  C   UNL     1      -0.017   1.405   0.010  0.00  0.00    +0.028 A 
ATOM      2  C   UNL     1       1.154   2.093   0.002  0.00  0.00    +0.049 A 
ATOM      3  C   UNL     1       2.377   1.383  -0.013  0.00  0.00    +0.152 A 
ATOM      4  N   UNL     1       2.366   0.010  -0.021  0.00  0.00    -0.343 N 
ATOM      5  C   UNL     1       1.181  -0.671  -0.013  0.00  0.00    +0.107 A 
ATOM      6  C   UNL     1       0.002  -0.004   0.002  0.00  0.00    +0.041 A 
ATOM      7  N   UNL     1       3.522   2.036  -0.021  0.00  0.00    -0.115 NA
ATOM      8  H   UNL     1       3.204  -0.479  -0.031  0.00  0.00    +0.167 HD
ENDROOT
BRANCH   6   9
ATOM      9  N   UNL     1      -1.206  -0.720   0.010  0.00  0.00    -0.357 N 
ATOM     10  H   UNL     1      -2.051  -0.244   0.020  0.00  0.00    +0.142 HD
ATOM     11  H   UNL     1      -1.195  -1.690   0.004  0.00  0.00    +0.142 HD
ENDBRANCH   6   9
BRANCH   7  12
ATOM     12  S   UNL     1       4.952   1.200  -0.039  0.00  0.00    +0.074 S 
ATOM     13  O   UNL     1       4.972   0.490   1.192  0.00  0.00    -0.151 OA
ATOM     14  O   UNL     1       4.948   0.503  -1.277  0.00  0.00    -0.151 OA
BRANCH  12  15
ATOM     15  C   UNL     1       6.239   2.478  -0.045  0.00  0.00    +0.160 C 
ATOM     16  C   UNL     1       6.014   3.426  -1.227  0.00  0.00    +0.056 C 
ATOM     17  C   UNL     1       7.148   4.453  -1.270  0.00  0.00    +0.162 C 
ATOM     18  O   UNL     1       8.401   3.773  -1.372  0.00  0.00    -0.380 OA
ATOM     19  C   UNL     1       8.687   2.909  -0.271  0.00  0.00    +0.162 C 
ATOM     20  C   UNL     1       7.614   1.819  -0.188  0.00  0.00    +0.056 C 
ENDBRANCH  12  15
ENDBRANCH   7  12
TORSDOF 3
