REMARK  Name = ZINC23632296
REMARK  10 active torsions:
REMARK  status: ('A' for Active; 'I' for Inactive)
REMARK    1  A    between atoms: C_1  and  C_2
REMARK    2  A    between atoms: C_8  and  N_10
REMARK    3  A    between atoms: C_14  and  C_16
REMARK    4  A    between atoms: C_16  and  S_17
REMARK    5  A    between atoms: S_17  and  C_18
REMARK    6  A    between atoms: C_21  and  C_24
REMARK    7  A    between atoms: N_22  and  N_23
REMARK    8  A    between atoms: C_24  and  C_25
REMARK    9  A    between atoms: C_24  and  C_26
REMARK   10  A    between atoms: C_24  and  C_27
REMARK                            x       y       z     vdW  Elec       q    Type
REMARK                         _______ _______ _______ _____ _____    ______ ____
ROOT
ATOM      1  N   UNL     1       3.312   2.198  -1.496  0.00  0.00    -0.296 N 
ATOM      2  C   UNL     1       3.616   3.433  -1.945  0.00  0.00    +0.306 C 
ATOM      3  O   UNL     1       2.737   4.162  -2.360  0.00  0.00    -0.252 OA
ATOM      4  N   UNL     1       4.894   3.858  -1.931  0.00  0.00    -0.239 N 
ATOM      5  C   UNL     1       5.198   5.093  -2.380  0.00  0.00    +0.231 C 
ATOM      6  O   UNL     1       4.321   5.820  -2.794  0.00  0.00    -0.274 OA
ATOM      7  H   UNL     1       4.108   1.538  -1.120  0.00  0.00    +0.151 HD
ATOM      8  H   UNL     1       5.690   3.199  -1.555  0.00  0.00    +0.159 HD
ENDROOT
BRANCH   1  15
ATOM      9  C   UNL     1       2.603  -0.269  -2.838  0.00  0.00    +0.009 C 
ATOM     10  C   UNL     1       1.894   0.207  -1.568  0.00  0.00    +0.006 C 
ATOM     11  C   UNL     1       0.443  -0.277  -1.583  0.00  0.00    +0.005 C 
ATOM     12  C   UNL     1      -0.266   0.199  -0.313  0.00  0.00    +0.000 C 
ATOM     13  C   UNL     1      -0.238   1.728  -0.256  0.00  0.00    +0.002 C 
ATOM     14  C   UNL     1       1.213   2.211  -0.241  0.00  0.00    +0.022 C 
ATOM     15  C   UNL     1       1.922   1.735  -1.511  0.00  0.00    +0.077 C 
ENDBRANCH   1  15
BRANCH   5  16
ATOM     16  C   UNL     1       6.628   5.569  -2.365  0.00  0.00    +0.173 C 
BRANCH  16  17
ATOM     17  S   UNL     1       6.710   7.253  -3.024  0.00  0.00    -0.075 S 
BRANCH  17  18
ATOM     18  C   UNL     1       8.442   7.548  -2.894  0.00  0.00    +0.209 A 
ATOM     19  N   UNL     1       9.344   6.713  -2.433  0.00  0.00    -0.121 NA
ATOM     20  N   UNL     1      10.508   7.256  -2.483  0.00  0.00    -0.131 NA
ATOM     21  C   UNL     1      10.419   8.460  -2.974  0.00  0.00    +0.156 A 
ATOM     22  N   UNL     1       9.101   8.687  -3.259  0.00  0.00    -0.227 N 
BRANCH  21  23
ATOM     23  C   UNL     1      11.559   9.421  -3.194  0.00  0.00    +0.024 C 
ATOM     24  C   UNL     1      12.844   8.830  -2.610  0.00  0.00    +0.019 C 
ATOM     25  C   UNL     1      11.743   9.659  -4.694  0.00  0.00    +0.019 C 
ATOM     26  C   UNL     1      11.247  10.748  -2.500  0.00  0.00    +0.019 C 
ENDBRANCH  21  23
BRANCH  22  27
ATOM     27  N   UNL     1       8.556   9.819  -3.795  0.00  0.00    -0.295 N 
ATOM     28  H   UNL     1       9.202  10.674  -4.047  0.00  0.00    +0.163 HD
ATOM     29  H   UNL     1       7.473   9.877  -3.974  0.00  0.00    +0.163 HD
ENDBRANCH  22  27
ENDBRANCH  17  18
ENDBRANCH  16  17
ENDBRANCH   5  16
TORSDOF 6
