REMARK  Name = ZINC40347230
REMARK  7 active torsions:
REMARK  status: ('A' for Active; 'I' for Inactive)
REMARK    1  A    between atoms: C_1  and  C_2
REMARK    2  A    between atoms: C_2  and  C_4
REMARK    3  A    between atoms: C_2  and  N_17
REMARK    4  A    between atoms: C_4  and  N_5
REMARK    5  A    between atoms: N_5  and  S_6
REMARK    6  A    between atoms: S_6  and  C_9
REMARK    7  A    between atoms: C_14  and  N_15
REMARK                            x       y       z     vdW  Elec       q    Type
REMARK                         _______ _______ _______ _____ _____    ______ ____
ROOT
ATOM      1  S   UNL     1      -2.451  -3.342  -0.182  0.00  0.00    +0.060 S 
ATOM      2  O   UNL     1      -2.049  -4.691  -0.375  0.00  0.00    -0.153 OA
ATOM      3  O   UNL     1      -3.113  -2.906   0.997  0.00  0.00    -0.153 OA
ENDROOT
BRANCH   1   4
ATOM      4  C   UNL     1      -3.507  -2.933  -1.532  0.00  0.00    +0.127 A 
ATOM      5  C   UNL     1      -4.735  -2.347  -1.297  0.00  0.00    +0.050 A 
ATOM      6  C   UNL     1      -5.564  -2.025  -2.357  0.00  0.00    +0.043 A 
ATOM      7  C   UNL     1      -5.166  -2.289  -3.655  0.00  0.00    +0.022 A 
ATOM      8  C   UNL     1      -3.939  -2.876  -3.897  0.00  0.00    +0.026 A 
ATOM      9  C   UNL     1      -3.102  -3.195  -2.835  0.00  0.00    +0.051 A 
ATOM     10 CL   UNL     1      -7.107  -1.288  -2.057  0.00  0.00    -0.083 Cl
BRANCH   9  11
ATOM     11  N   UNL     1      -1.858  -3.783  -3.077  0.00  0.00    -0.356 N 
ATOM     12  H   UNL     1      -1.303  -4.066  -2.333  0.00  0.00    +0.142 HD
ATOM     13  H   UNL     1      -1.549  -3.908  -3.988  0.00  0.00    +0.142 HD
ENDBRANCH   9  11
ENDBRANCH   1   4
BRANCH   1  14
ATOM     14  N   UNL     1      -1.087  -2.416  -0.329  0.00  0.00    -0.191 NA
ATOM     15  H   UNL     1      -0.228  -2.839  -0.486  0.00  0.00    +0.148 HD
BRANCH  14  16
ATOM     16  C   UNL     1      -1.177  -0.958  -0.223  0.00  0.00    +0.090 C 
BRANCH  16  18
ATOM     17  C   UNL     1       0.102   1.125   0.296  0.00  0.00    -0.012 C 
ATOM     18  C   UNL     1       0.216  -0.378   0.036  0.00  0.00    -0.056 C 
BRANCH  18  19
ATOM     19  N   UNL     1       0.809  -1.035   1.209  0.00  0.00    +0.382 N 
ATOM     20  C   UNL     1       0.018  -0.709   2.402  0.00  0.00    -0.078 C 
ATOM     21  C   UNL     1       0.583  -1.455   3.613  0.00  0.00    -0.019 C 
ATOM     22  C   UNL     1       2.038  -1.032   3.832  0.00  0.00    -0.004 C 
ATOM     23  C   UNL     1       2.838  -1.308   2.555  0.00  0.00    -0.019 C 
ATOM     24  C   UNL     1       2.189  -0.568   1.384  0.00  0.00    -0.078 C 
ATOM     25  H   UNL     1       0.808  -2.034   1.070  0.00  0.00    -0.081 HD
ENDBRANCH  18  19
ENDBRANCH  16  18
ENDBRANCH  14  16
ENDBRANCH   1  14
TORSDOF 6
