REMARK  Name = ZINC12604288
REMARK  5 active torsions:
REMARK  status: ('A' for Active; 'I' for Inactive)
REMARK    1  A    between atoms: C_1  and  C_2
REMARK    2  A    between atoms: C_5  and  C_10
REMARK    3  A    between atoms: C_10  and  C_11
REMARK    4  A    between atoms: N_13  and  C_14
REMARK    5  A    between atoms: C_23  and  C_26
REMARK                            x       y       z     vdW  Elec       q    Type
REMARK                         _______ _______ _______ _____ _____    ______ ____
ROOT
ATOM      1  C   UNL     1      -1.424  -2.641  -1.414  0.00  0.00    +0.223 C 
ATOM      2  O   UNL     1      -1.496  -1.845  -2.326  0.00  0.00    -0.275 OA
ATOM      3  N   UNL     1      -1.490  -3.963  -1.667  0.00  0.00    -0.285 N 
ATOM      4  H   UNL     1      -1.365  -4.601  -0.947  0.00  0.00    +0.155 HD
ENDROOT
BRANCH   3   5
ATOM      5  C   UNL     1      -1.738  -4.416  -2.969  0.00  0.00    +0.035 A 
ATOM      6  C   UNL     1      -2.491  -5.565  -3.172  0.00  0.00    +0.027 A 
ATOM      7  C   UNL     1      -2.744  -6.012  -4.455  0.00  0.00    +0.049 A 
ATOM      8  C   UNL     1      -2.236  -5.320  -5.541  0.00  0.00    +0.143 A 
ATOM      9  C   UNL     1      -1.475  -4.170  -5.340  0.00  0.00    +0.077 A 
ATOM     10  C   UNL     1      -1.227  -3.719  -4.055  0.00  0.00    +0.050 A 
ATOM     11  N   UNL     1      -0.966  -3.482  -6.451  0.00  0.00    -0.279 N 
ATOM     12  C   UNL     1      -1.472  -3.748  -7.675  0.00  0.00    +0.258 C 
ATOM     13  O   UNL     1      -1.027  -3.187  -8.653  0.00  0.00    -0.271 OA
ATOM     14  C   UNL     1      -2.593  -4.746  -7.819  0.00  0.00    +0.256 C 
ATOM     15  O   UNL     1      -2.474  -5.752  -6.810  0.00  0.00    -0.478 OA
ATOM     16  C   UNL     1      -3.936  -4.029  -7.667  0.00  0.00    +0.062 C 
ATOM     17  H   UNL     1      -0.262  -2.824  -6.342  0.00  0.00    +0.155 HD
ENDBRANCH   3   5
BRANCH   1  18
ATOM     18  C   UNL     1      -1.261  -2.151   0.002  0.00  0.00    +0.150 C 
BRANCH  18  23
ATOM     19  C   UNL     1       3.561   0.921  -0.060  0.00  0.00    +0.067 C 
ATOM     20  C   UNL     1       2.058   0.810  -0.035  0.00  0.00    +0.058 A 
ATOM     21  C   UNL     1       1.355  -0.335  -0.030  0.00  0.00    +0.116 A 
ATOM     22  N   UNL     1       0.003  -0.001  -0.006  0.00  0.00    -0.297 N 
ATOM     23  C   UNL     1      -1.215  -0.645   0.011  0.00  0.00    +0.041 A 
ATOM     24  C   UNL     1      -2.353   0.048   0.034  0.00  0.00    +0.070 A 
ATOM     25  S   UNL     1      -1.759   1.732   0.039  0.00  0.00    -0.057 S 
ATOM     26  C   UNL     1      -0.019   1.369   0.003  0.00  0.00    +0.178 A 
ATOM     27  N   UNL     1       1.195   1.837  -0.015  0.00  0.00    -0.227 NA
ENDBRANCH  18  23
ENDBRANCH   1  18
TORSDOF 3
