REMARK  Name = ZINC13513022
REMARK  7 active torsions:
REMARK  status: ('A' for Active; 'I' for Inactive)
REMARK    1  A    between atoms: C_6  and  C_7
REMARK    2  A    between atoms: C_8  and  C_9
REMARK    3  A    between atoms: C_8  and  N_15
REMARK    4  A    between atoms: N_11  and  C_12
REMARK    5  A    between atoms: C_12  and  C_13
REMARK    6  A    between atoms: C_13  and  O_14
REMARK    7  A    between atoms: C_16  and  C_18
REMARK                            x       y       z     vdW  Elec       q    Type
REMARK                         _______ _______ _______ _____ _____    ______ ____
ROOT
ATOM      1  C   UNK A   1       0.897   2.420   0.136  0.00  0.00    +0.036 C 
ATOM      2  C   UNK A   1      -0.161   1.646  -0.200  0.00  0.00    +0.097 C 
ENDROOT
BRANCH   1   8
ATOM      3  C   UNK A   1       2.419   0.535   0.700  0.00  0.00    +0.009 A 
ATOM      4  C   UNK A   1       3.684  -0.010   0.761  0.00  0.00    +0.016 A 
ATOM      5  C   UNK A   1       4.780   0.730   0.350  0.00  0.00    +0.018 A 
ATOM      6  C   UNK A   1       4.615   2.018  -0.131  0.00  0.00    +0.016 A 
ATOM      7  C   UNK A   1       3.356   2.574  -0.203  0.00  0.00    +0.009 A 
ATOM      8  C   UNK A   1       2.244   1.834   0.210  0.00  0.00    -0.023 A 
ATOM      9 BR   UNK A   1       6.512  -0.024   0.445  0.00  0.00    -0.050 Br
ENDBRANCH   1   8
BRANCH   2  10
ATOM     10  C   UNK A   1       0.053   0.258  -0.635  0.00  0.00    +0.258 C 
ATOM     11  O   UNK A   1      -0.220  -0.663   0.112  0.00  0.00    -0.269 OA
ATOM     12  N   UNK A   1       0.552   0.006  -1.861  0.00  0.00    -0.308 N 
ATOM     13  H   UNK A   1       0.698   0.735  -2.485  0.00  0.00    +0.149 HD
BRANCH  12  14
ATOM     14  C   UNK A   1       0.875  -1.368  -2.253  0.00  0.00    +0.132 C 
BRANCH  14  15
ATOM     15  C   UNK A   1       1.420  -1.377  -3.682  0.00  0.00    +0.174 C 
BRANCH  15  16
ATOM     16  O   UNK A   1       2.662  -0.671  -3.722  0.00  0.00    -0.393 OA
ATOM     17  H   UNK A   1       3.067  -0.636  -4.600  0.00  0.00    +0.209 HD
ENDBRANCH  15  16
ENDBRANCH  14  15
ENDBRANCH  12  14
ENDBRANCH   2  10
BRANCH   2  18
ATOM     18  N   UNK A   1      -1.456   2.167  -0.138  0.00  0.00    -0.275 N 
ATOM     19  C   UNK A   0      -2.512   1.388  -0.448  0.00  0.00    +0.284 C 
ATOM     20  O   UNK A   0      -2.346   0.206  -0.685  0.00  0.00    -0.266 OA
ATOM     21  H   UNK A   1      -1.596   3.090   0.128  0.00  0.00    +0.155 HD
BRANCH  19  22
ATOM     22  C   UNK A   0      -3.858   1.965  -0.500  0.00  0.00    +0.191 A 
ATOM     23  C   UNK A   0      -5.008   1.292  -0.799  0.00  0.00    +0.056 A 
ATOM     24  C   UNK A   0      -6.052   2.226  -0.732  0.00  0.00    +0.058 A 
ATOM     25  C   UNK A   0      -5.501   3.416  -0.399  0.00  0.00    +0.171 A 
ATOM     26  O   UNK A   0      -4.179   3.252  -0.254  0.00  0.00    -0.444 OA
ATOM     27 BR   UNK A   0      -6.441   5.040  -0.168  0.00  0.00    -0.008 Br
ENDBRANCH  19  22
ENDBRANCH   2  18
TORSDOF 7
