REMARK  Name = ZINC36972220
REMARK  11 active torsions:
REMARK  status: ('A' for Active; 'I' for Inactive)
REMARK    1  A    between atoms: C_1  and  C_2
REMARK    2  A    between atoms: C_2  and  C_4
REMARK    3  A    between atoms: C_2  and  N_10
REMARK    4  A    between atoms: C_4  and  C_5
REMARK    5  A    between atoms: C_5  and  C_6
REMARK    6  A    between atoms: C_5  and  C_7
REMARK    7  A    between atoms: C_5  and  O_8
REMARK    8  A    between atoms: O_8  and  C_9
REMARK    9  A    between atoms: N_10  and  C_11
REMARK   10  A    between atoms: C_14  and  C_17
REMARK   11  A    between atoms: N_21  and  C_22
REMARK                            x       y       z     vdW  Elec       q    Type
REMARK                         _______ _______ _______ _____ _____    ______ ____
ROOT
ATOM      1  C   UNL     1       2.437   0.609  -1.223  0.00  0.00    +0.027 A 
ATOM      2  C   UNL     1       3.109   0.797  -0.020  0.00  0.00    +0.023 A 
ATOM      3  C   UNL     1       4.423   0.400   0.105  0.00  0.00    +0.013 A 
ATOM      4  C   UNL     1       5.079  -0.191  -0.976  0.00  0.00    +0.019 A 
ATOM      5  C   UNL     1       4.401  -0.378  -2.182  0.00  0.00    +0.013 A 
ATOM      6  C   UNL     1       3.086   0.016  -2.300  0.00  0.00    +0.023 A 
ENDROOT
BRANCH   4   7
ATOM      7  C   UNL     1       6.488  -0.617  -0.845  0.00  0.00    +0.164 A 
ATOM      8  N   UNL     1       7.336  -0.241   0.088  0.00  0.00    -0.129 NA
ATOM      9  N   UNL     1       8.473  -0.807  -0.106  0.00  0.00    -0.138 NA
ATOM     10  C   UNL     1       8.420  -1.570  -1.164  0.00  0.00    +0.225 A 
ATOM     11  N   UNL     1       7.158  -1.482  -1.668  0.00  0.00    -0.317 N 
ATOM     12  C   UNL     1       6.627  -2.168  -2.848  0.00  0.00    +0.152 C 
ENDBRANCH   4   7
BRANCH   1  13
ATOM     13  N   UNL     1       1.107   1.012  -1.347  0.00  0.00    -0.341 N 
ATOM     14  H   UNL     1       0.636   0.877  -2.184  0.00  0.00    +0.146 HD
BRANCH  13  16
ATOM     15  C   UNL     1       0.722   3.137  -0.200  0.00  0.00    +0.028 C 
ATOM     16  C   UNL     1       0.422   1.637  -0.213  0.00  0.00    +0.070 C 
BRANCH  16  17
ATOM     17  C   UNL     1      -1.087   1.419  -0.345  0.00  0.00    +0.056 C 
BRANCH  17  18
ATOM     18  C   UNL     1      -1.399  -0.074  -0.225  0.00  0.00    +0.065 C 
ATOM     19  C   UNL     1      -0.907  -0.590   1.129  0.00  0.00    +0.041 C 
ATOM     20  C   UNL     1      -2.910  -0.290  -0.335  0.00  0.00    +0.041 C 
BRANCH  18  21
ATOM     21  O   UNL     1      -0.739  -0.785  -1.274  0.00  0.00    -0.377 OA
ATOM     22  C   UNL     1      -0.966  -2.196  -1.252  0.00  0.00    +0.194 C 
ENDBRANCH  18  21
ENDBRANCH  17  18
ENDBRANCH  16  17
ENDBRANCH  13  16
ENDBRANCH   1  13
TORSDOF 6
