REMARK  Name = ZINC13382195
REMARK  9 active torsions:
REMARK  status: ('A' for Active; 'I' for Inactive)
REMARK    1  A    between atoms: C_1  and  C_2
REMARK    2  A    between atoms: N_4  and  C_5
REMARK    3  A    between atoms: C_7  and  O_28
REMARK    4  A    between atoms: C_9  and  O_27
REMARK    5  A    between atoms: C_11  and  C_25
REMARK    6  A    between atoms: C_14  and  O_16
REMARK    7  A    between atoms: O_16  and  C_17
REMARK    8  A    between atoms: C_22  and  C_23
REMARK    9  A    between atoms: C_25  and  O_26
REMARK                            x       y       z     vdW  Elec       q    Type
REMARK                         _______ _______ _______ _____ _____    ______ ____
ROOT
ATOM      1  C   UNL     1       1.117   6.071  -0.197  0.00  0.00    +0.173 C 
ATOM      2  C   UNL     1       1.947   5.656   1.021  0.00  0.00    +0.172 C 
ATOM      3  C   UNL     1       1.216   6.090   2.295  0.00  0.00    +0.176 C 
ATOM      4  C   UNL     1      -0.183   5.469   2.308  0.00  0.00    +0.179 C 
ATOM      5  O   UNL     1      -0.891   5.870   1.133  0.00  0.00    -0.332 OA
ATOM      6  C   UNL     1      -0.279   5.452  -0.088  0.00  0.00    +0.331 C 
ENDROOT
BRANCH   1  10
ATOM      7  C   UNL     1       1.847   9.769  -0.868  0.00  0.00    +0.109 C 
ATOM      8  C   UNL     1       1.965   8.267  -0.827  0.00  0.00    +0.210 C 
ATOM      9  O   UNL     1       2.927   7.721  -1.324  0.00  0.00    -0.276 OA
ATOM     10  N   UNL     1       1.002   7.531  -0.237  0.00  0.00    -0.304 N 
ATOM     11  H   UNL     1       0.233   7.968   0.161  0.00  0.00    +0.149 HD
ENDBRANCH   1  10
BRANCH   3  12
ATOM     12  O   UNL     1       1.107   7.514   2.324  0.00  0.00    -0.387 OA
ATOM     13  H   UNL     1       0.650   7.858   3.103  0.00  0.00    +0.210 HD
ENDBRANCH   3  12
BRANCH   2  14
ATOM     14  O   UNL     1       2.114   4.237   1.025  0.00  0.00    -0.387 OA
ATOM     15  H   UNL     1       2.626   3.903   1.774  0.00  0.00    +0.210 HD
ENDBRANCH   2  14
BRANCH   6  16
ATOM     16  O   UNL     1      -0.170   4.027  -0.103  0.00  0.00    -0.461 OA
BRANCH  16  17
ATOM     17  C   UNL     1      -1.322   3.322  -0.223  0.00  0.00    +0.134 A 
ATOM     18  C   UNL     1      -2.536   3.985  -0.331  0.00  0.00    +0.046 A 
ATOM     19  C   UNL     1      -3.709   3.266  -0.448  0.00  0.00    +0.004 A 
ATOM     20  C   UNL     1      -3.686   1.880  -0.465  0.00  0.00    +0.001 A 
ATOM     21  C   UNL     1      -2.491   1.204  -0.364  0.00  0.00    +0.015 A 
ATOM     22  C   UNL     1      -1.292   1.918  -0.245  0.00  0.00    +0.056 A 
BRANCH  22  23
ATOM     23  C   UNL     1      -0.014   1.205  -0.137  0.00  0.00    +0.262 C 
ATOM     24  O   UNL     1       0.006  -0.008  -0.151  0.00  0.00    -0.296 OA
ENDBRANCH  22  23
ENDBRANCH  16  17
ENDBRANCH   6  16
BRANCH   4  25
ATOM     25  C   UNL     1      -0.942   5.945   3.548  0.00  0.00    +0.190 C 
BRANCH  25  26
ATOM     26  O   UNL     1      -2.203   5.278   3.621  0.00  0.00    -0.392 OA
ATOM     27  H   UNL     1      -2.739   5.532   4.385  0.00  0.00    +0.210 HD
ENDBRANCH  25  26
ENDBRANCH   4  25
TORSDOF 8
