REMARK  Name = ZINC21601059
REMARK  4 active torsions:
REMARK  status: ('A' for Active; 'I' for Inactive)
REMARK    1  A    between atoms: C_1  and  C_2
REMARK    2  A    between atoms: C_9  and  N_14
REMARK    3  A    between atoms: C_15  and  C_17
REMARK    4  A    between atoms: C_22  and  C_23
REMARK                            x       y       z     vdW  Elec       q    Type
REMARK                         _______ _______ _______ _____ _____    ______ ____
ROOT
ATOM      1  N   UNL     1       1.143   1.901   0.001  0.00  0.00    -0.281 N 
ATOM      2  C   UNL     1       1.024   3.026   0.734  0.00  0.00    +0.249 C 
ATOM      3  O   UNL     1       1.970   3.435   1.379  0.00  0.00    -0.270 OA
ATOM      4  H   UNL     1       0.265   1.483  -0.512  0.00  0.00    +0.155 HD
ENDROOT
BRANCH   1  12
ATOM      5  C   UNL     1       8.430  -0.556  -0.862  0.00  0.00    +0.062 C 
ATOM      6  C   UNL     1       7.075   0.105  -1.123  0.00  0.00    +0.256 C 
ATOM      7  C   UNL     1       7.110   1.530  -0.633  0.00  0.00    +0.258 C 
ATOM      8  O   UNL     1       8.157   2.143  -0.615  0.00  0.00    -0.271 OA
ATOM      9  N   UNL     1       5.970   2.123  -0.215  0.00  0.00    -0.279 N 
ATOM     10  C   UNL     1       4.779   1.383  -0.214  0.00  0.00    +0.077 A 
ATOM     11  C   UNL     1       3.553   2.017  -0.112  0.00  0.00    +0.050 A 
ATOM     12  C   UNL     1       2.386   1.264  -0.107  0.00  0.00    +0.036 A 
ATOM     13  C   UNL     1       2.450  -0.119  -0.214  0.00  0.00    +0.027 A 
ATOM     14  C   UNL     1       3.674  -0.752  -0.322  0.00  0.00    +0.049 A 
ATOM     15  C   UNL     1       4.840  -0.006  -0.323  0.00  0.00    +0.143 A 
ATOM     16  O   UNL     1       6.052  -0.616  -0.431  0.00  0.00    -0.478 OA
ATOM     17  H   UNL     1       5.985   3.171   0.118  0.00  0.00    +0.155 HD
ENDBRANCH   1  12
BRANCH   2  18
ATOM     18  C   UNL     1      -0.259   3.759   0.759  0.00  0.00    +0.049 A 
ATOM     19  C   UNL     1      -1.346   3.296   0.015  0.00  0.00    +0.013 A 
ATOM     20  C   UNL     1      -2.542   3.982   0.047  0.00  0.00    +0.001 A 
ATOM     21  C   UNL     1      -2.663   5.133   0.805  0.00  0.00    +0.001 A 
ATOM     22  C   UNL     1      -1.588   5.601   1.540  0.00  0.00    +0.013 A 
ATOM     23  C   UNL     1      -0.388   4.921   1.522  0.00  0.00    +0.067 A 
BRANCH  23  24
ATOM     24  C   UNL     1       0.782   5.432   2.323  0.00  0.00    +0.418 C 
ATOM     25  F   UNL     1       0.410   6.600   2.997  0.00  0.00    -0.166 F 
ATOM     26  F   UNL     1       1.170   4.461   3.252  0.00  0.00    -0.166 F 
ATOM     27  F   UNL     1       1.850   5.709   1.464  0.00  0.00    -0.166 F 
ENDBRANCH  23  24
ENDBRANCH   2  18
TORSDOF 3
