REMARK  Name = ZINC22786035
REMARK  5 active torsions:
REMARK  status: ('A' for Active; 'I' for Inactive)
REMARK    1  A    between atoms: C_6  and  N_10
REMARK    2  A    between atoms: C_7  and  C_8
REMARK    3  A    between atoms: C_11  and  C_13
REMARK    4  A    between atoms: C_13  and  N_14
REMARK    5  A    between atoms: N_17  and  C_20
REMARK                            x       y       z     vdW  Elec       q    Type
REMARK                         _______ _______ _______ _____ _____    ______ ____
ROOT
ATOM      1  C   UNL     1       6.069  -3.292   3.349  0.00  0.00    +0.180 C 
ENDROOT
BRANCH   1   2
ATOM      2  N   UNL     1       5.839  -4.702   3.689  0.00  0.00    -0.298 NA
ATOM      3  C   UNL     1       4.809  -4.832   4.729  0.00  0.00    +0.066 C 
ATOM      4  C   UNL     1       4.558  -6.315   5.011  0.00  0.00    -0.063 C 
ATOM      5  N   UNL     1       5.808  -6.949   5.453  0.00  0.00    +0.384 N 
ATOM      6  C   UNL     1       6.818  -6.832   4.393  0.00  0.00    -0.063 C 
ATOM      7  C   UNL     1       7.089  -5.354   4.106  0.00  0.00    +0.066 C 
ATOM      8  H   UNL     1       6.141  -6.489   6.287  0.00  0.00    -0.081 HD
BRANCH   5   9
ATOM      9  C   UNL     1       5.562  -8.368   5.740  0.00  0.00    -0.046 C 
ATOM     10  C   UNL     1       4.530  -8.497   6.874  0.00  0.00    +0.009 C 
ATOM     11  C   UNL     1       4.503  -9.953   7.399  0.00  0.00    +0.164 C 
ATOM     12  S   UNL     1       6.212 -10.538   7.056  0.00  0.00    -0.033 S 
ATOM     13  O   UNL     1       6.155 -11.612   6.127  0.00  0.00    -0.174 OA
ATOM     14  O   UNL     1       6.897 -10.716   8.289  0.00  0.00    -0.174 OA
ATOM     15  C   UNL     1       6.881  -9.046   6.208  0.00  0.00    +0.151 C 
ENDBRANCH   5   9
ENDBRANCH   1   2
BRANCH   1  17
ATOM     16  N   UNL     1       4.814  -1.437   2.297  0.00  0.00    -0.278 N 
ATOM     17  C   UNL     1       4.834  -2.724   2.697  0.00  0.00    +0.232 C 
ATOM     18  O   UNL     1       3.859  -3.426   2.532  0.00  0.00    -0.274 OA
ATOM     19  H   UNL     1       5.594  -0.876   2.430  0.00  0.00    +0.155 HD
BRANCH  16  25
ATOM     20  C   UNL     1      -0.019   1.541   0.011  0.00  0.00    +0.010 C 
ATOM     21  C   UNL     1       1.486   1.876  -0.002  0.00  0.00    +0.037 C 
ATOM     22  C   UNL     1       2.177   0.671   0.633  0.00  0.00    -0.018 A 
ATOM     23  C   UNL     1       1.324  -0.370   0.621  0.00  0.00    -0.004 A 
ATOM     24  S   UNL     1       2.229  -1.698   1.374  0.00  0.00    -0.077 S 
ATOM     25  C   UNL     1       3.676  -0.915   1.697  0.00  0.00    +0.090 A 
ATOM     26  C   UNL     1       3.477   0.369   1.229  0.00  0.00    +0.084 A 
ATOM     27  C   UNL     1       0.002  -0.004   0.002  0.00  0.00    +0.043 C 
BRANCH  26  28
ATOM     28  C   UNL     1       4.502   1.365   1.324  0.00  0.00    +0.102 C 
ATOM     29  N   UNL     1       5.315   2.154   1.399  0.00  0.00    -0.191 NA
ENDBRANCH  26  28
ENDBRANCH  16  25
ENDBRANCH   1  17
TORSDOF 5
