REMARK  Name = ZINC65466320
REMARK  6 active torsions:
REMARK  status: ('A' for Active; 'I' for Inactive)
REMARK    1  A    between atoms: C_1  and  C_2
REMARK    2  A    between atoms: C_3  and  C_29
REMARK    3  A    between atoms: C_9  and  C_12
REMARK    4  A    between atoms: C_12  and  N_13
REMARK    5  A    between atoms: N_16  and  C_17
REMARK    6  A    between atoms: C_19  and  C_25
REMARK                            x       y       z     vdW  Elec       q    Type
REMARK                         _______ _______ _______ _____ _____    ______ ____
ROOT
ATOM      1  N   UNL     1      -1.305  -1.253   5.381  0.00  0.00    -0.295 N 
ATOM      2  C   UNL     1      -1.557  -1.045   6.688  0.00  0.00    +0.304 C 
ATOM      3  O   UNL     1      -0.650  -0.752   7.443  0.00  0.00    -0.252 OA
ATOM      4  N   UNL     1      -2.815  -1.160   7.159  0.00  0.00    -0.265 N 
ATOM      5  H   UNL     1      -2.029  -1.486   4.779  0.00  0.00    +0.151 HD
ATOM      6  H   UNL     1      -3.549  -1.320   6.546  0.00  0.00    +0.157 HD
ENDROOT
BRANCH   4   7
ATOM      7  C   UNL     1      -3.061  -1.049   8.535  0.00  0.00    +0.100 A 
ATOM      8  C   UNL     1      -3.916  -0.092   9.010  0.00  0.00    +0.042 A 
ATOM      9  C   UNL     1      -4.145  -0.003  10.390  0.00  0.00    +0.073 A 
ATOM     10  C   UNL     1      -3.525  -0.856  11.236  0.00  0.00    +0.098 A 
ATOM     11  N   UNL     1      -2.674  -1.807  10.766  0.00  0.00    -0.327 N 
ATOM     12  H   UNL     1      -2.239  -2.410  11.389  0.00  0.00    +0.168 HD
ATOM     13  C   UNL     1      -2.435  -1.926   9.446  0.00  0.00    +0.270 A 
ATOM     14  O   UNL     1      -1.673  -2.789   9.039  0.00  0.00    -0.266 OA
BRANCH   9  15
ATOM     15  C   UNL     1      -5.083   1.045  10.931  0.00  0.00    +0.419 C 
ATOM     16  F   UNL     1      -5.149   0.937  12.325  0.00  0.00    -0.166 F 
ATOM     17  F   UNL     1      -4.613   2.316  10.584  0.00  0.00    -0.166 F 
ATOM     18  F   UNL     1      -6.359   0.855  10.388  0.00  0.00    -0.166 F 
ENDBRANCH   9  15
ENDBRANCH   4   7
BRANCH   1  19
ATOM     19  C   UNL     1       0.062  -1.128   4.869  0.00  0.00    +0.141 C 
BRANCH  19  28
ATOM     20  C   UNL     1      -0.499   1.676  -0.095  0.00  0.00    +0.046 C 
ATOM     21  C   UNL     1      -0.263   0.188  -0.063  0.00  0.00    -0.022 A 
ATOM     22  C   UNL     1      -0.152  -0.626  -1.126  0.00  0.00    +0.017 A 
ATOM     23  N   UNL     1       0.059  -1.912  -0.709  0.00  0.00    -0.358 N 
ATOM     24  H   UNL     1       0.170  -2.676  -1.295  0.00  0.00    +0.166 HD
ATOM     25  C   UNL     1       0.092  -1.958   0.667  0.00  0.00    +0.047 A 
ATOM     26  C   UNL     1      -0.102  -0.644   1.132  0.00  0.00    +0.003 A 
ATOM     27  C   UNL     1      -0.111  -0.385   2.503  0.00  0.00    +0.015 A 
ATOM     28  C   UNL     1       0.072  -1.409   3.389  0.00  0.00    -0.030 A 
ATOM     29  C   UNL     1       0.268  -2.706   2.936  0.00  0.00    +0.007 A 
ATOM     30  C   UNL     1       0.271  -2.986   1.587  0.00  0.00    +0.026 A 
ATOM     31  C   UNL     1      -0.249  -0.188  -2.564  0.00  0.00    +0.063 C 
ENDBRANCH  19  28
ENDBRANCH   1  19
TORSDOF 4
