REMARK  Name = ZINC40662598
REMARK  5 active torsions:
REMARK  status: ('A' for Active; 'I' for Inactive)
REMARK    1  A    between atoms: C_1  and  N_2
REMARK    2  A    between atoms: N_2  and  C_3
REMARK    3  A    between atoms: C_3  and  C_4
REMARK    4  A    between atoms: C_11  and  N_28
REMARK    5  A    between atoms: C_12  and  N_16
REMARK                            x       y       z     vdW  Elec       q    Type
REMARK                         _______ _______ _______ _____ _____    ______ ____
ROOT
ATOM      1  C   UNL     1      -1.364   0.328   0.621  0.00  0.00    +0.131 C 
ATOM      2  N   UNL     1      -0.082   0.002  -0.010  0.00  0.00    -0.312 N 
ATOM      3  C   UNL     1      -0.052  -0.780  -1.159  0.00  0.00    +0.147 A 
ATOM      4  C   UNL     1      -0.014  -0.184  -2.421  0.00  0.00    +0.106 A 
ATOM      5  C   UNL     1       0.016  -1.015  -3.541  0.00  0.00    +0.147 A 
ATOM      6  N   UNL     1       0.007  -2.334  -3.366  0.00  0.00    -0.219 NA
ATOM      7  C   UNL     1      -0.030  -2.857  -2.157  0.00  0.00    +0.225 A 
ATOM      8  N   UNL     1      -0.053  -2.108  -1.073  0.00  0.00    -0.219 NA
ENDROOT
BRANCH   5   9
ATOM      9  N   UNL     1       0.054  -0.474  -4.821  0.00  0.00    -0.311 N 
ATOM     10  C   UNL     1       1.334  -0.091  -5.434  0.00  0.00    +0.125 C 
ATOM     11  C   UNL     1       1.467  -0.813  -6.780  0.00  0.00    +0.125 C 
ATOM     12  N   UNL     1       0.228  -0.613  -7.545  0.00  0.00    -0.314 N 
ATOM     13  C   UNL     1      -1.052  -0.995  -6.932  0.00  0.00    +0.125 C 
ATOM     14  C   UNL     1      -1.185  -0.279  -5.588  0.00  0.00    +0.125 C 
ATOM     15  C   UNL     1       0.266  -0.071  -8.825  0.00  0.00    +0.099 A 
ATOM     16  C   UNL     1       1.493   0.157  -9.441  0.00  0.00    +0.042 A 
ATOM     17  C   UNL     1       1.516   0.696 -10.714  0.00  0.00    +0.005 A 
ATOM     18  C   UNL     1       0.307   0.990 -11.331  0.00  0.00    +0.018 A 
ATOM     19  C   UNL     1      -0.873   0.738 -10.661  0.00  0.00    +0.084 A 
ATOM     20  N   UNL     1      -0.865   0.218  -9.449  0.00  0.00    -0.350 N 
ATOM     21  H   UNL     1      -1.709   0.047  -9.002  0.00  0.00    +0.166 HD
ENDBRANCH   5   9
BRANCH   4  22
ATOM     22  N   UNL     1      -0.006   1.214  -2.559  0.00  0.00    -0.353 N 
ATOM     23  H   UNL     1       0.046   1.779  -1.772  0.00  0.00    +0.143 HD
ATOM     24  H   UNL     1      -0.053   1.615  -3.441  0.00  0.00    +0.143 HD
ENDBRANCH   4  22
BRANCH   2  25
ATOM     25  C   UNL     1       1.167   0.500   0.570  0.00  0.00    +0.141 C 
BRANCH  25  26
ATOM     26  C   UNL     1       1.692  -0.500   1.568  0.00  0.00    -0.030 A 
ATOM     27  C   UNL     1       1.308  -0.420   2.894  0.00  0.00    +0.005 A 
ATOM     28  C   UNL     1       1.789  -1.337   3.809  0.00  0.00    +0.000 A 
ATOM     29  C   UNL     1       2.653  -2.335   3.399  0.00  0.00    +0.000 A 
ATOM     30  C   UNL     1       3.036  -2.416   2.073  0.00  0.00    +0.000 A 
ATOM     31  C   UNL     1       2.552  -1.501   1.157  0.00  0.00    +0.005 A 
ENDBRANCH  25  26
ENDBRANCH   2  25
TORSDOF 4
