REMARK  Name = ZINC21146023
REMARK  8 active torsions:
REMARK  status: ('A' for Active; 'I' for Inactive)
REMARK    1  A    between atoms: C_1  and  C_2
REMARK    2  A    between atoms: C_3  and  C_7
REMARK    3  A    between atoms: C_10  and  S_13
REMARK    4  A    between atoms: N_11  and  N_12
REMARK    5  A    between atoms: S_13  and  C_14
REMARK    6  A    between atoms: C_14  and  C_15
REMARK    7  A    between atoms: N_17  and  C_18
REMARK    8  A    between atoms: C_24  and  C_26
REMARK                            x       y       z     vdW  Elec       q    Type
REMARK                         _______ _______ _______ _____ _____    ______ ____
ROOT
ATOM      1  C   UNL     1       1.903   3.150   0.001  0.00  0.00    +0.185 A 
ATOM      2  N   UNL     1       3.164   3.515  -0.004  0.00  0.00    -0.127 NA
ATOM      3  N   UNL     1       3.251   4.797  -0.003  0.00  0.00    -0.121 NA
ATOM      4  C   UNL     1       2.051   5.330   0.012  0.00  0.00    +0.209 A 
ATOM      5  N   UNL     1       1.151   4.301   0.015  0.00  0.00    -0.224 N 
ENDROOT
BRANCH   1   8
ATOM      6  C   UNL     1       3.625   0.531  -0.029  0.00  0.00    +0.087 C 
ATOM      7  C   UNL     1       2.121   0.617  -0.015  0.00  0.00    +0.112 A 
ATOM      8  C   UNL     1       1.389   1.764  -0.002  0.00  0.00    +0.061 A 
ATOM      9  C   UNL     1      -0.016   1.339   0.009  0.00  0.00    +0.053 A 
ATOM     10  C   UNL     1       0.002  -0.004   0.002  0.00  0.00    +0.196 A 
ATOM     11  O   UNL     1       1.276  -0.425  -0.012  0.00  0.00    -0.467 OA
ENDBRANCH   1   8
BRANCH   5  12
ATOM     12  N   UNL     1      -0.212   4.396   0.028  0.00  0.00    -0.295 N 
ATOM     13  H   UNL     1      -0.694   5.385   0.039  0.00  0.00    +0.163 HD
ATOM     14  H   UNL     1      -0.827   3.484   0.029  0.00  0.00    +0.163 HD
ENDBRANCH   5  12
BRANCH   4  15
ATOM     15  S   UNL     1       1.671   7.051   0.026  0.00  0.00    -0.075 S 
BRANCH  15  16
ATOM     16  C   UNL     1       3.345   7.742   0.013  0.00  0.00    +0.173 C 
BRANCH  16  17
ATOM     17  C   UNL     1       3.267   9.247   0.023  0.00  0.00    +0.224 C 
ATOM     18  O   UNL     1       2.186   9.798   0.037  0.00  0.00    -0.275 OA
ATOM     19  N   UNL     1       4.397   9.980   0.016  0.00  0.00    -0.312 N 
ATOM     20  H   UNL     1       5.377   9.480   0.004  0.00  0.00    +0.149 HD
BRANCH  19  21
ATOM     21  C   UNL     1       4.322  11.443   0.026  0.00  0.00    +0.076 C 
ATOM     22  C   UNL     1       4.184  11.937   1.467  0.00  0.00    +0.022 C 
ATOM     23  C   UNL     1       5.399  11.484   2.280  0.00  0.00    +0.002 C 
ATOM     24  C   UNL     1       6.672  12.065   1.661  0.00  0.00    +0.000 C 
ATOM     25  C   UNL     1       6.809  11.570   0.220  0.00  0.00    +0.005 C 
ATOM     26  C   UNL     1       5.595  12.024  -0.593  0.00  0.00    +0.006 C 
ATOM     27  C   UNL     1       5.732  11.529  -2.034  0.00  0.00    +0.009 C 
ENDBRANCH  19  21
ENDBRANCH  16  17
ENDBRANCH  15  16
ENDBRANCH   4  15
TORSDOF 6
