REMARK  Name = ZINC67118606
REMARK  7 active torsions:
REMARK  status: ('A' for Active; 'I' for Inactive)
REMARK    1  A    between atoms: C_1  and  C_2
REMARK    2  A    between atoms: C_4  and  C_7
REMARK    3  A    between atoms: C_7  and  C_8
REMARK    4  A    between atoms: C_8  and  N_9
REMARK    5  A    between atoms: N_9  and  S_10
REMARK    6  A    between atoms: S_10  and  C_13
REMARK    7  A    between atoms: C_13  and  C_14
REMARK                            x       y       z     vdW  Elec       q    Type
REMARK                         _______ _______ _______ _____ _____    ______ ____
ROOT
ATOM      1  S   UNL     1       2.882  -5.114  -3.761  0.00  0.00    +0.033 S 
ATOM      2  O   UNL     1       2.527  -6.230  -4.565  0.00  0.00    -0.158 OA
ATOM      3  O   UNL     1       3.307  -3.897  -4.359  0.00  0.00    -0.158 OA
ENDROOT
BRANCH   1   4
ATOM      4  N   UNL     1       1.495  -4.722  -2.946  0.00  0.00    -0.194 NA
ATOM      5  H   UNL     1       0.690  -5.247  -3.078  0.00  0.00    +0.148 HD
BRANCH   4   6
ATOM      6  C   UNL     1       1.484  -3.583  -2.025  0.00  0.00    +0.115 C 
BRANCH   6   7
ATOM      7  C   UNL     1       0.038  -3.206  -1.697  0.00  0.00    +0.115 C 
BRANCH   7  11
ATOM      8  C   UNL     1      -0.018   1.503   0.010  0.00  0.00    +0.091 C 
ATOM      9  C   UNL     1       0.002  -0.004   0.002  0.00  0.00    +0.169 A 
ATOM     10  N   UNL     1       0.008  -0.776  -1.091  0.00  0.00    -0.196 NA
ATOM     11  C   UNL     1       0.026  -2.034  -0.750  0.00  0.00    +0.229 A 
ATOM     12  O   UNL     1       0.033  -2.107   0.587  0.00  0.00    -0.338 OA
ATOM     13  N   UNL     1       0.023  -0.767   1.057  0.00  0.00    -0.062 NA
ENDBRANCH   7  11
ENDBRANCH   6   7
ENDBRANCH   4   6
ENDBRANCH   1   4
BRANCH   1  14
ATOM     14  C   UNL     1       4.054  -5.619  -2.472  0.00  0.00    +0.220 C 
BRANCH  14  15
ATOM     15  C   UNL     1       5.366  -6.002  -3.108  0.00  0.00    -0.024 A 
ATOM     16  C   UNL     1       5.587  -7.308  -3.505  0.00  0.00    +0.007 A 
ATOM     17  C   UNL     1       6.790  -7.660  -4.087  0.00  0.00    +0.022 A 
ATOM     18  C   UNL     1       7.773  -6.705  -4.274  0.00  0.00    +0.059 A 
ATOM     19  C   UNL     1       7.552  -5.397  -3.878  0.00  0.00    +0.060 A 
ATOM     20  C   UNL     1       6.345  -5.045  -3.299  0.00  0.00    +0.026 A 
ATOM     21 CL   UNL     1       8.785  -4.198  -4.111  0.00  0.00    -0.082 Cl
ATOM     22 CL   UNL     1       9.285  -7.147  -5.006  0.00  0.00    -0.082 Cl
ENDBRANCH  14  15
ENDBRANCH   1  14
TORSDOF 6
