REMARK  Name = ZINC18211810
REMARK  3 active torsions:
REMARK  status: ('A' for Active; 'I' for Inactive)
REMARK    1  A    between atoms: C_1  and  C_2
REMARK    2  A    between atoms: C_7  and  C_8
REMARK    3  A    between atoms: C_16  and  C_22
REMARK                            x       y       z     vdW  Elec       q    Type
REMARK                         _______ _______ _______ _____ _____    ______ ____
ROOT
ATOM      1  C   UNL     1       0.242   0.021   2.481  0.00  0.00    +0.251 C 
ATOM      2  O   UNL     1       0.134   1.232   2.502  0.00  0.00    -0.270 OA
ATOM      3  N   UNL     1       0.465  -0.656   3.624  0.00  0.00    -0.249 N 
ATOM      4  C   UNL     1       0.572   0.033   4.835  0.00  0.00    +0.242 A 
ATOM      5  N   UNL     1       0.466   1.361   4.987  0.00  0.00    -0.180 NA
ATOM      6  C   UNL     1       0.616   1.670   6.245  0.00  0.00    +0.222 A 
ATOM      7  N   UNL     1       0.827   0.522   6.937  0.00  0.00    -0.223 N 
ATOM      8  N   UNL     1       0.787  -0.517   6.011  0.00  0.00    -0.131 NA
ATOM      9  C   UNL     1       1.041   0.488   8.383  0.00  0.00    +0.149 C 
ATOM     10  C   UNL     1       1.700   1.802   8.812  0.00  0.00    +0.128 C 
ATOM     11  C   UNL     1       1.049   2.980   8.143  0.00  0.00    +0.222 C 
ATOM     12  O   UNL     1       0.937   4.021   8.756  0.00  0.00    -0.275 OA
ATOM     13  N   UNL     1       0.585   2.908   6.876  0.00  0.00    -0.255 N 
ATOM     14  H   UNL     1       0.550  -1.622   3.607  0.00  0.00    +0.158 HD
ATOM     15  H   UNL     1       0.243   3.694   6.422  0.00  0.00    +0.158 HD
ENDROOT
BRANCH   1  22
ATOM     16  C   UNL     1      -0.512   1.452   0.082  0.00  0.00    +0.044 C 
ATOM     17  C   UNL     1      -0.235  -0.028   0.036  0.00  0.00    -0.038 A 
ATOM     18  C   UNL     1      -0.334  -0.714  -1.157  0.00  0.00    +0.004 A 
ATOM     19  C   UNL     1      -0.079  -2.073  -1.200  0.00  0.00    +0.000 A 
ATOM     20  C   UNL     1       0.276  -2.754  -0.049  0.00  0.00    +0.001 A 
ATOM     21  C   UNL     1       0.379  -2.081   1.150  0.00  0.00    +0.013 A 
ATOM     22  C   UNL     1       0.128  -0.708   1.200  0.00  0.00    +0.040 A 
ENDBRANCH   1  22
BRANCH   9  23
ATOM     23  C   UNL     1      -0.282   0.328   9.086  0.00  0.00    -0.023 A 
ATOM     24  C   UNL     1      -1.274   1.275   8.916  0.00  0.00    +0.006 A 
ATOM     25  C   UNL     1      -2.488   1.128   9.561  0.00  0.00    +0.000 A 
ATOM     26  C   UNL     1      -2.709   0.035  10.377  0.00  0.00    +0.000 A 
ATOM     27  C   UNL     1      -1.716  -0.913  10.547  0.00  0.00    +0.000 A 
ATOM     28  C   UNL     1      -0.504  -0.768   9.898  0.00  0.00    +0.006 A 
ENDBRANCH   9  23
TORSDOF 2
