REMARK  Name = ZINC35344919
REMARK  4 active torsions:
REMARK  status: ('A' for Active; 'I' for Inactive)
REMARK    1  A    between atoms: C_1  and  C_2
REMARK    2  A    between atoms: C_4  and  O_9
REMARK    3  A    between atoms: O_9  and  C_10
REMARK    4  A    between atoms: C_15  and  N_16
REMARK                            x       y       z     vdW  Elec       q    Type
REMARK                         _______ _______ _______ _____ _____    ______ ____
ROOT
ATOM      1  C   UNL     1       0.151  -4.104  -2.346  0.00  0.00    +0.151 A 
ATOM      2  C   UNL     1       0.157  -4.753  -1.116  0.00  0.00    +0.049 A 
ATOM      3  C   UNL     1       0.282  -6.129  -1.072  0.00  0.00    +0.021 A 
ATOM      4  C   UNL     1       0.398  -6.840  -2.243  0.00  0.00    +0.041 A 
ATOM      5  C   UNL     1       0.396  -6.218  -3.511  0.00  0.00    +0.102 A 
ATOM      6  C   UNL     1       0.262  -4.809  -3.529  0.00  0.00    +0.094 A 
ATOM      7  N   UNL     1       0.521  -7.088  -4.535  0.00  0.00    -0.245 NA
ATOM      8  C   UNL     1       0.631  -8.370  -4.345  0.00  0.00    +0.157 A 
ATOM      9  S   UNL     1       0.575  -8.552  -2.673  0.00  0.00    -0.075 S 
ENDROOT
BRANCH   6  10
ATOM     10  N   UNL     1       0.247  -4.127  -4.751  0.00  0.00    -0.353 N 
ATOM     11  H   UNL     1       0.159  -3.161  -4.766  0.00  0.00    +0.142 HD
ATOM     12  H   UNL     1       0.325  -4.620  -5.583  0.00  0.00    +0.142 HD
ENDBRANCH   6  10
BRANCH   1  13
ATOM     13  O   UNL     1       0.028  -2.749  -2.385  0.00  0.00    -0.454 OA
BRANCH  13  17
ATOM     14  C   UNL     1       2.483  -1.282   1.569  0.00  0.00    +0.045 C 
ATOM     15  C   UNL     1       1.222  -1.335   0.747  0.00  0.00    -0.029 A 
ATOM     16  C   UNL     1       1.206  -2.024  -0.451  0.00  0.00    +0.051 A 
ATOM     17  C   UNL     1       0.044  -2.073  -1.207  0.00  0.00    +0.129 A 
ATOM     18  C   UNL     1      -1.100  -1.429  -0.759  0.00  0.00    +0.048 A 
ATOM     19  C   UNL     1      -1.081  -0.742   0.439  0.00  0.00    +0.024 A 
ATOM     20  C   UNL     1       0.077  -0.699   1.195  0.00  0.00    +0.044 A 
ATOM     21 CL   UNL     1       0.097   0.159   2.704  0.00  0.00    -0.083 Cl
ENDBRANCH  13  17
ENDBRANCH   1  13
TORSDOF 3
