REMARK  Name = ZINC08790250
REMARK  8 active torsions:
REMARK  status: ('A' for Active; 'I' for Inactive)
REMARK    1  A    between atoms: C_1  and  C_2
REMARK    2  A    between atoms: C_2  and  C_3
REMARK    3  A    between atoms: C_3  and  C_5
REMARK    4  A    between atoms: C_3  and  N_6
REMARK    5  A    between atoms: C_7  and  C_9
REMARK    6  A    between atoms: C_14  and  N_15
REMARK    7  A    between atoms: C_31  and  C_36
REMARK    8  A    between atoms: C_39  and  C_42
REMARK                            x       y       z     vdW  Elec       q    Type
REMARK                         _______ _______ _______ _____ _____    ______ ____
ROOT
ATOM      1  N   UNL     1      -0.445  -0.452  -4.842  0.00  0.00    -0.192 N 
ATOM      2  C   UNL     1       0.865  -0.457  -5.163  0.00  0.00    +0.248 C 
ATOM      3  O   UNL     1       1.554   0.502  -5.436  0.00  0.00    -0.273 OA
ATOM      4  C   UNL     1       1.298  -1.908  -5.112  0.00  0.00    +0.170 C 
ATOM      5  C   UNL     1       1.776  -2.351  -6.500  0.00  0.00    +0.069 C 
ATOM      6  C   UNL     1       1.599  -3.842  -6.639  0.00  0.00    -0.015 A 
ATOM      7  C   UNL     1       2.248  -4.722  -7.594  0.00  0.00    +0.003 A 
ATOM      8  C   UNL     1       3.179  -4.490  -8.611  0.00  0.00    +0.010 A 
ATOM      9  C   UNL     1       3.585  -5.581  -9.339  0.00  0.00    +0.001 A 
ATOM     10  C   UNL     1       3.103  -6.855  -9.088  0.00  0.00    +0.002 A 
ATOM     11  C   UNL     1       2.183  -7.113  -8.087  0.00  0.00    +0.026 A 
ATOM     12  C   UNL     1       1.752  -6.024  -7.331  0.00  0.00    +0.047 A 
ATOM     13  N   UNL     1       0.874  -5.921  -6.291  0.00  0.00    -0.356 N 
ATOM     14  H   UNL     1       0.382  -6.661  -5.900  0.00  0.00    +0.166 HD
ATOM     15  C   UNL     1       0.792  -4.617  -5.884  0.00  0.00    +0.046 A 
ATOM     16  C   UNL     1      -0.067  -4.083  -4.754  0.00  0.00    +0.155 C 
ATOM     17  N   UNL     1       0.041  -2.618  -4.790  0.00  0.00    -0.260 N 
ATOM     18  C   UNL     1      -0.903  -1.691  -4.610  0.00  0.00    +0.317 C 
ATOM     19  O   UNL     1      -2.045  -1.941  -4.277  0.00  0.00    -0.252 OA
ENDROOT
BRANCH  16  20
ATOM     20  C   UNL     1      -1.499  -4.513  -4.945  0.00  0.00    -0.021 A 
ATOM     21  C   UNL     1      -2.314  -3.827  -5.825  0.00  0.00    +0.006 A 
ATOM     22  C   UNL     1      -3.627  -4.223  -6.004  0.00  0.00    +0.004 A 
ATOM     23  C   UNL     1      -4.126  -5.300  -5.295  0.00  0.00    -0.050 A 
ATOM     24  C   UNL     1      -3.311  -5.983  -4.411  0.00  0.00    +0.004 A 
ATOM     25  C   UNL     1      -1.998  -5.589  -4.236  0.00  0.00    +0.006 A 
ATOM     26  C   UNL     1      -5.558  -5.730  -5.486  0.00  0.00    +0.044 C 
ENDBRANCH  16  20
BRANCH   1  32
ATOM     27  C   UNL     1      -1.334   1.391  -3.540  0.00  0.00    +0.059 A 
ATOM     28  C   UNL     1      -2.115   2.546  -3.468  0.00  0.00    +0.015 A 
ATOM     29  C   UNL     1      -2.779   2.998  -4.588  0.00  0.00    +0.001 A 
ATOM     30  C   UNL     1      -2.675   2.311  -5.787  0.00  0.00    +0.002 A 
ATOM     31  C   UNL     1      -1.907   1.168  -5.873  0.00  0.00    +0.025 A 
ATOM     32  C   UNL     1      -1.227   0.701  -4.756  0.00  0.00    +0.058 A 
BRANCH  27  34
ATOM     33  N   UNL     1      -0.721   1.571  -1.179  0.00  0.00    -0.309 N 
ATOM     34  C   UNL     1      -0.620   0.902  -2.344  0.00  0.00    +0.246 C 
ATOM     35  O   UNL     1       0.059  -0.104  -2.411  0.00  0.00    -0.270 OA
ATOM     36  H   UNL     1      -1.263   2.374  -1.126  0.00  0.00    +0.149 HD
BRANCH  33  37
ATOM     37  C   UNL     1      -0.013   1.086   0.008  0.00  0.00    +0.070 C 
ATOM     38  C   UNL     1       1.423   1.615  -0.003  0.00  0.00    +0.028 C 
BRANCH  37  40
ATOM     39  C   UNL     1      -2.121   0.950   1.341  0.00  0.00    +0.005 C 
ATOM     40  C   UNL     1      -0.729   1.579   1.267  0.00  0.00    +0.018 C 
ENDBRANCH  37  40
ENDBRANCH  33  37
ENDBRANCH  27  34
ENDBRANCH   1  32
TORSDOF 5
