REMARK  Name = ZINC09159439
REMARK  10 active torsions:
REMARK  status: ('A' for Active; 'I' for Inactive)
REMARK    1  A    between atoms: C_1  and  C_2
REMARK    2  A    between atoms: C_2  and  C_4
REMARK    3  A    between atoms: C_2  and  O_35
REMARK    4  A    between atoms: C_4  and  N_5
REMARK    5  A    between atoms: N_5  and  C_6
REMARK    6  A    between atoms: C_6  and  C_7
REMARK    7  A    between atoms: C_7  and  C_9
REMARK    8  A    between atoms: C_7  and  O_10
REMARK    9  A    between atoms: C_28  and  C_30
REMARK   10  A    between atoms: C_28  and  C_31
REMARK                            x       y       z     vdW  Elec       q    Type
REMARK                         _______ _______ _______ _____ _____    ______ ____
ROOT
ATOM      1  N   UNL     1      -4.354   3.019  -8.751  0.00  0.00    -0.309 N 
ATOM      2  C   UNL     1      -4.112   3.911  -7.717  0.00  0.00    +0.139 A 
ATOM      3  C   UNL     1      -3.630   3.468  -6.494  0.00  0.00    +0.080 A 
ATOM      4  C   UNL     1      -3.385   4.366  -5.448  0.00  0.00    +0.093 A 
ATOM      5  C   UNL     1      -2.875   3.776  -4.197  0.00  0.00    +0.035 A 
ATOM      6  C   UNL     1      -2.547   4.450  -2.994  0.00  0.00    -0.024 A 
ATOM      7  C   UNL     1      -2.093   3.738  -1.929  0.00  0.00    +0.020 A 
ATOM      8  C   UNL     1      -1.939   2.351  -2.032  0.00  0.00    +0.105 A 
ATOM      9  C   UNL     1      -2.696   2.382  -4.204  0.00  0.00    +0.089 A 
ATOM     10  S   UNL     1      -3.195   1.882  -5.833  0.00  0.00    -0.066 S 
ATOM     11  N   UNL     1      -1.467   1.627  -0.945  0.00  0.00    -0.312 N 
ATOM     12  C   UNL     1      -0.605   0.520  -1.384  0.00  0.00    +0.134 C 
ATOM     13  C   UNL     1      -0.059  -0.213  -0.155  0.00  0.00    +0.178 C 
ATOM     14  O   UNL     1      -1.152  -0.664   0.650  0.00  0.00    -0.377 OA
ATOM     15  C   UNL     1      -2.012   0.389   1.094  0.00  0.00    +0.178 C 
ATOM     16  C   UNL     1      -2.578   1.128  -0.122  0.00  0.00    +0.134 C 
ATOM     17  C   UNL     1      -1.739   4.409  -0.627  0.00  0.00    +0.199 C 
ATOM     18  O   UNL     1      -1.594   5.816  -0.819  0.00  0.00    -0.369 OA
ATOM     19  C   UNL     1      -2.714   6.412  -1.483  0.00  0.00    +0.068 C 
ATOM     20  C   UNL     1      -2.717   5.944  -2.941  0.00  0.00    +0.070 C 
ATOM     21  C   UNL     1      -2.592   7.936  -1.432  0.00  0.00    +0.041 C 
ATOM     22  C   UNL     1      -4.011   5.975  -0.799  0.00  0.00    +0.041 C 
ATOM     23  N   UNL     1      -3.646   5.667  -5.710  0.00  0.00    -0.234 NA
ATOM     24  C   UNL     1      -4.100   6.050  -6.877  0.00  0.00    +0.224 A 
ATOM     25  N   UNL     1      -4.337   5.215  -7.873  0.00  0.00    -0.220 NA
ATOM     26  N   UNL     1      -2.237   1.648  -3.160  0.00  0.00    -0.337 N 
ATOM     27  H   UNL     1      -2.123   0.629  -3.217  0.00  0.00    +0.168 HD
ENDROOT
BRANCH   1  28
ATOM     28  C   UNL     1      -4.857   3.717  -9.941  0.00  0.00    +0.137 C 
BRANCH  28  30
ATOM     29  C   UNL     1      -5.873   3.417 -12.204  0.00  0.00    +0.039 C 
ATOM     30  C   UNL     1      -5.398   2.694 -10.942  0.00  0.00    +0.129 C 
BRANCH  30  31
ATOM     31  O   UNL     1      -6.494   1.988 -10.357  0.00  0.00    -0.391 OA
ATOM     32  H   UNL     1      -7.234   2.555 -10.099  0.00  0.00    +0.210 HD
ENDBRANCH  30  31
ENDBRANCH  28  30
ENDBRANCH   1  28
BRANCH   1  33
ATOM     33  C   UNL     1      -3.149   2.241  -9.068  0.00  0.00    +0.137 C 
BRANCH  33  34
ATOM     34  C   UNL     1      -2.070   3.175  -9.621  0.00  0.00    +0.129 C 
ATOM     35  C   UNL     1      -0.870   2.348 -10.086  0.00  0.00    +0.039 C 
BRANCH  34  36
ATOM     36  O   UNL     1      -1.655   4.082  -8.599  0.00  0.00    -0.391 OA
ATOM     37  H   UNL     1      -1.038   4.762  -8.902  0.00  0.00    +0.210 HD
ENDBRANCH  34  36
ENDBRANCH  33  34
ENDBRANCH   1  33
TORSDOF 6
