REMARK  Name = ZINC65405418
REMARK  5 active torsions:
REMARK  status: ('A' for Active; 'I' for Inactive)
REMARK    1  A    between atoms: C_7  and  N_14
REMARK    2  A    between atoms: C_9  and  C_11
REMARK    3  A    between atoms: C_11  and  C_12
REMARK    4  A    between atoms: C_12  and  N_13
REMARK    5  A    between atoms: C_19  and  C_21
REMARK                            x       y       z     vdW  Elec       q    Type
REMARK                         _______ _______ _______ _____ _____    ______ ____
ROOT
ATOM      1  C   UNL     1       2.851  -2.973   4.083  0.00  0.00    +0.001 A 
ATOM      2  C   UNL     1       4.069  -2.300   4.059  0.00  0.00    +0.002 A 
ATOM      3  C   UNL     1       4.446  -1.567   2.973  0.00  0.00    +0.028 A 
ATOM      4  C   UNL     1       3.594  -1.489   1.863  0.00  0.00    +0.076 A 
ATOM      5  C   UNL     1       2.355  -2.175   1.889  0.00  0.00    +0.040 A 
ATOM      6  C   UNL     1       1.999  -2.918   3.020  0.00  0.00    +0.013 A 
ATOM      7  C   UNL     1       1.514  -2.080   0.755  0.00  0.00    +0.133 A 
ATOM      8  N   UNL     1       1.930  -1.353  -0.275  0.00  0.00    -0.217 NA
ATOM      9  C   UNL     1       3.097  -0.730  -0.254  0.00  0.00    +0.130 A 
ATOM     10  N   UNL     1       3.916  -0.782   0.769  0.00  0.00    -0.232 NA
ENDROOT
BRANCH   7  11
ATOM     11  N   UNL     1       0.296  -2.724   0.720  0.00  0.00    -0.307 N 
ATOM     12  C   UNL     1      -0.940  -2.010   1.069  0.00  0.00    +0.107 C 
ATOM     13  C   UNL     1      -1.943  -2.173  -0.077  0.00  0.00    +0.019 C 
ATOM     14  C   UNL     1      -2.140  -3.662  -0.370  0.00  0.00    +0.004 C 
ATOM     15  C   UNL     1      -0.808  -4.279  -0.803  0.00  0.00    +0.027 C 
ATOM     16  C   UNL     1       0.208  -4.138   0.329  0.00  0.00    +0.106 C 
BRANCH  16  17
ATOM     17  C   UNL     1       1.557  -4.616  -0.144  0.00  0.00    -0.009 A 
ATOM     18  C   UNL     1       2.163  -5.710   0.455  0.00  0.00    +0.008 A 
ATOM     19  C   UNL     1       3.404  -6.114  -0.012  0.00  0.00    +0.020 A 
ATOM     20  C   UNL     1       3.992  -5.418  -1.052  0.00  0.00    +0.111 A 
ATOM     21  N   UNL     1       3.386  -4.382  -1.597  0.00  0.00    -0.263 NA
ATOM     22  C   UNL     1       2.203  -3.973  -1.183  0.00  0.00    +0.116 A 
ENDBRANCH  16  17
ENDBRANCH   7  11
BRANCH   9  23
ATOM     23  C   UNL     1       3.503   0.077  -1.460  0.00  0.00    +0.057 C 
BRANCH  23  24
ATOM     24  C   UNL     1       2.999   1.513  -1.307  0.00  0.00    -0.079 C 
BRANCH  24  25
ATOM     25  N   UNL     1       3.397   2.300  -2.481  0.00  0.00    +0.378 N 
ATOM     26  H   UNL     1       4.404   2.303  -2.558  0.00  0.00    -0.090 HD
ATOM     27  H   UNL     1       2.998   1.891  -3.312  0.00  0.00    -0.090 HD
ATOM     28  H   UNL     1       3.065   3.248  -2.380  0.00  0.00    -0.090 HD
ENDBRANCH  24  25
ENDBRANCH  23  24
ENDBRANCH   9  23
TORSDOF 5
