REMARK  Name = ZINC00830517
REMARK  9 active torsions:
REMARK  status: ('A' for Active; 'I' for Inactive)
REMARK    1  A    between atoms: C_1  and  C_2
REMARK    2  A    between atoms: C_2  and  O_3
REMARK    3  A    between atoms: O_3  and  C_4
REMARK    4  A    between atoms: C_9  and  O_10
REMARK    5  A    between atoms: O_10  and  C_11
REMARK    6  A    between atoms: C_11  and  C_12
REMARK    7  A    between atoms: N_14  and  N_15
REMARK    8  A    between atoms: C_16  and  C_17
REMARK    9  A    between atoms: C_20  and  C_22
REMARK                            x       y       z     vdW  Elec       q    Type
REMARK                         _______ _______ _______ _____ _____    ______ ____
ROOT
ATOM      1  C   UNL     1      -2.453  -2.724   0.010  0.00  0.00    +0.270 C 
ATOM      2  O   UNL     1      -3.426  -1.999   0.023  0.00  0.00    -0.270 OA
ATOM      3  N   UNL     1      -2.610  -4.062   0.004  0.00  0.00    -0.204 N 
ATOM      4  H   UNL     1      -1.832  -4.642  -0.006  0.00  0.00    +0.177 HD
ENDROOT
BRANCH   3   5
ATOM      5  N   UNL     1      -3.897  -4.617   0.013  0.00  0.00    -0.185 NA
ATOM      6  C   UNL     1      -4.048  -5.910   0.007  0.00  0.00    +0.176 C 
BRANCH   6   7
ATOM      7  C   UNL     1      -5.393  -6.490   0.017  0.00  0.00    +0.148 A 
ATOM      8  C   UNL     1      -5.694  -7.834   0.007  0.00  0.00    +0.051 A 
ATOM      9  C   UNL     1      -7.091  -7.935   0.024  0.00  0.00    +0.050 A 
ATOM     10  C   UNL     1      -7.585  -6.664   0.035  0.00  0.00    +0.137 A 
ATOM     11  O   UNL     1      -6.552  -5.801   0.030  0.00  0.00    -0.454 OA
BRANCH  10  12
ATOM     12  C   UNL     1      -9.014  -6.296   0.049  0.00  0.00    +0.036 A 
ATOM     13  C   UNL     1      -9.492  -5.374   0.983  0.00  0.00    +0.013 A 
ATOM     14  C   UNL     1     -10.829  -5.035   0.990  0.00  0.00    +0.001 A 
ATOM     15  C   UNL     1     -11.697  -5.605   0.075  0.00  0.00    +0.001 A 
ATOM     16  C   UNL     1     -11.231  -6.519  -0.854  0.00  0.00    +0.021 A 
ATOM     17  C   UNL     1      -9.894  -6.864  -0.876  0.00  0.00    +0.052 A 
ATOM     18 CL   UNL     1      -9.310  -8.005  -2.047  0.00  0.00    -0.083 Cl
ENDBRANCH  10  12
ENDBRANCH   6   7
ENDBRANCH   3   5
BRANCH   1  19
ATOM     19  C   UNL     1      -1.069  -2.127   0.000  0.00  0.00    +0.326 C 
BRANCH  19  20
ATOM     20  O   UNL     1      -1.165  -0.702   0.009  0.00  0.00    -0.479 OA
BRANCH  20  26
ATOM     21  C   UNL     1      -0.017   1.387   0.010  0.00  0.00    +0.162 A 
ATOM     22  C   UNL     1       1.175   2.093   0.002  0.00  0.00    +0.049 A 
ATOM     23  C   UNL     1       2.380   1.415  -0.013  0.00  0.00    +0.004 A 
ATOM     24  C   UNL     1       2.399   0.033  -0.021  0.00  0.00    +0.004 A 
ATOM     25  C   UNL     1       1.213  -0.677  -0.013  0.00  0.00    +0.049 A 
ATOM     26  C   UNL     1       0.002  -0.004   0.002  0.00  0.00    +0.163 A 
BRANCH  21  27
ATOM     27  O   UNL     1      -1.203   2.053   0.019  0.00  0.00    -0.489 OA
BRANCH  27  29
ATOM     28  C   UNL     1      -2.566   4.048   0.036  0.00  0.00    +0.048 C 
ATOM     29  C   UNL     1      -1.146   3.481   0.026  0.00  0.00    +0.226 C 
ENDBRANCH  27  29
ENDBRANCH  21  27
ENDBRANCH  20  26
ENDBRANCH  19  20
ENDBRANCH   1  19
TORSDOF 8
