REMARK  Name = ZINC59040665
REMARK  10 active torsions:
REMARK  status: ('A' for Active; 'I' for Inactive)
REMARK    1  A    between atoms: C_1  and  C_2
REMARK    2  A    between atoms: C_2  and  N_3
REMARK    3  A    between atoms: C_4  and  C_6
REMARK    4  A    between atoms: C_6  and  N_7
REMARK    5  A    between atoms: N_10  and  C_11
REMARK    6  A    between atoms: C_15  and  C_17
REMARK    7  A    between atoms: C_18  and  C_19
REMARK    8  A    between atoms: C_23  and  C_25
REMARK    9  A    between atoms: C_25  and  O_27
REMARK   10  A    between atoms: O_27  and  C_28
REMARK                            x       y       z     vdW  Elec       q    Type
REMARK                         _______ _______ _______ _____ _____    ______ ____
ROOT
ATOM      1  C   UNL     1       2.782  -6.446   4.708  0.00  0.00    +0.036 A 
ATOM      2  C   UNL     1       3.280  -5.702   5.771  0.00  0.00    +0.023 A 
ATOM      3  C   UNL     1       3.833  -6.337   6.867  0.00  0.00    +0.003 A 
ATOM      4  C   UNL     1       3.896  -7.714   6.913  0.00  0.00    +0.017 A 
ATOM      5  C   UNL     1       3.398  -8.472   5.850  0.00  0.00    +0.027 A 
ATOM      6  C   UNL     1       2.835  -7.830   4.745  0.00  0.00    +0.040 A 
ENDROOT
BRANCH   1  10
ATOM      7  N   UNL     1       0.576  -5.677   1.951  0.00  0.00    -0.291 N 
ATOM      8  C   UNL     1       1.173  -6.345   2.958  0.00  0.00    +0.304 C 
ATOM      9  O   UNL     1       0.764  -7.442   3.286  0.00  0.00    -0.252 OA
ATOM     10  N   UNL     1       2.223  -5.797   3.601  0.00  0.00    -0.269 N 
ATOM     11  H   UNL     1       0.902  -4.801   1.689  0.00  0.00    +0.151 HD
ATOM     12  H   UNL     1       2.591  -4.952   3.296  0.00  0.00    +0.156 HD
BRANCH   7  13
ATOM     13  C   UNL     1      -0.566  -6.273   1.252  0.00  0.00    +0.201 C 
BRANCH  13  15
ATOM     14  N   UNL     1      -2.092  -5.670  -0.598  0.00  0.00    -0.314 N 
ATOM     15  C   UNL     1      -1.045  -5.330   0.178  0.00  0.00    +0.230 C 
ATOM     16  O   UNL     1      -0.488  -4.266   0.013  0.00  0.00    -0.274 OA
ATOM     17  H   UNL     1      -2.538  -6.522  -0.466  0.00  0.00    +0.149 HD
BRANCH  14  19
ATOM     18  C   UNL     1      -3.750  -5.376  -2.372  0.00  0.00    +0.024 C 
ATOM     19  C   UNL     1      -2.558  -4.754  -1.642  0.00  0.00    +0.101 C 
ENDBRANCH  14  19
ENDBRANCH  13  15
ENDBRANCH   7  13
ENDBRANCH   1  10
BRANCH   5  20
ATOM     20  C   UNL     1       3.462  -9.902   5.894  0.00  0.00    -0.061 C 
ATOM     21  C   UNL     1       3.514 -11.074   5.931  0.00  0.00    -0.061 C 
BRANCH  21  22
ATOM     22  C   UNL     1       3.578 -12.504   5.975  0.00  0.00    +0.026 A 
ATOM     23  C   UNL     1       4.133 -13.147   7.086  0.00  0.00    +0.017 A 
ATOM     24  C   UNL     1       4.195 -14.525   7.131  0.00  0.00    +0.002 A 
ATOM     25  C   UNL     1       3.710 -15.279   6.080  0.00  0.00    +0.015 A 
ATOM     26  C   UNL     1       3.153 -14.650   4.963  0.00  0.00    +0.060 A 
ATOM     27  C   UNL     1       3.081 -13.259   4.913  0.00  0.00    +0.031 A 
BRANCH  26  28
ATOM     28  C   UNL     1       2.635 -15.459   3.840  0.00  0.00    +0.339 C 
ATOM     29  O   UNL     1       2.151 -14.911   2.870  0.00  0.00    -0.245 OA
BRANCH  28  30
ATOM     30  O   UNL     1       2.700 -16.804   3.892  0.00  0.00    -0.464 OA
ATOM     31  C   UNL     1       2.181 -17.522   2.771  0.00  0.00    +0.280 C 
ENDBRANCH  28  30
ENDBRANCH  26  28
ENDBRANCH  21  22
ENDBRANCH   5  20
TORSDOF 8
