REMARK  Name = ZINC65394091
REMARK  2 active torsions:
REMARK  status: ('A' for Active; 'I' for Inactive)
REMARK    1  A    between atoms: C_1  and  C_2
REMARK    2  A    between atoms: C_4  and  C_15
REMARK                            x       y       z     vdW  Elec       q    Type
REMARK                         _______ _______ _______ _____ _____    ______ ____
ROOT
ATOM      1  C   UNL     1      -0.131  -0.627  -2.455  0.00  0.00    +0.051 C 
ATOM      2  C   UNL     1      -1.222  -1.668  -2.202  0.00  0.00    +0.106 C 
ATOM      3  C   UNL     1      -0.624  -3.050  -2.235  0.00  0.00    +0.218 C 
ATOM      4  O   UNL     1      -1.021  -3.895  -1.461  0.00  0.00    -0.275 OA
ATOM      5  N   UNL     1       0.345  -3.356  -3.115  0.00  0.00    -0.285 N 
ATOM      6  C   UNL     1       0.897  -2.372  -3.942  0.00  0.00    +0.039 A 
ATOM      7  C   UNL     1       0.682  -1.028  -3.659  0.00  0.00    -0.020 A 
ATOM      8  C   UNL     1       1.217  -0.053  -4.485  0.00  0.00    +0.013 A 
ATOM      9  C   UNL     1       1.973  -0.416  -5.568  0.00  0.00    +0.001 A 
ATOM     10  C   UNL     1       2.223  -1.764  -5.857  0.00  0.00    +0.090 A 
ATOM     11  C   UNL     1       1.678  -2.741  -5.025  0.00  0.00    +0.053 A 
ATOM     12  N   UNL     1       3.002  -1.834  -6.974  0.00  0.00    -0.178 NA
ATOM     13  N   UNL     1       3.299  -0.745  -7.467  0.00  0.00    -0.304 N 
ATOM     14  C   UNL     1       2.697   0.333  -6.663  0.00  0.00    +0.171 C 
ATOM     15  H   UNL     1       0.665  -4.269  -3.177  0.00  0.00    +0.155 HD
ATOM     16  H   UNL     1       3.843  -0.617  -8.259  0.00  0.00    +0.183 HD
ENDROOT
BRANCH   1  19
ATOM     17  C   UNL     1       3.126  -0.403  -2.195  0.00  0.00    +0.026 C 
ATOM     18  C   UNL     1       2.001   0.381  -1.516  0.00  0.00    +0.073 C 
ATOM     19  C   UNL     1       0.782  -0.539  -1.231  0.00  0.00    +0.099 C 
ATOM     20  N   UNL     1       0.115   0.158  -0.129  0.00  0.00    -0.311 N 
ATOM     21  C   UNL     1      -1.229   0.255   0.180  0.00  0.00    +0.092 C 
ATOM     22  C   UNL     1      -1.619   1.455   0.674  0.00  0.00    +0.054 C 
ATOM     23  C   UNL     1      -0.632   2.532   0.815  0.00  0.00    +0.020 C 
ATOM     24  C   UNL     1       0.680   2.292   0.802  0.00  0.00    +0.012 C 
ATOM     25  C   UNL     1       1.160   0.872   0.633  0.00  0.00    +0.166 C 
ATOM     26  N   UNL     1       2.408   0.815  -0.152  0.00  0.00    -0.291 NA
ATOM     27 CL   UNL     1      -3.272   1.715   1.137  0.00  0.00    -0.082 Cl
ATOM     28  H   UNL     1       3.061   0.163   0.256  0.00  0.00    +0.124 HD
ENDBRANCH   1  19
TORSDOF 1
