REMARK  Name = ZINC10652399
REMARK  6 active torsions:
REMARK  status: ('A' for Active; 'I' for Inactive)
REMARK    1  A    between atoms: C_1  and  C_2
REMARK    2  A    between atoms: C_2  and  N_3
REMARK    3  A    between atoms: C_13  and  C_15
REMARK    4  A    between atoms: C_16  and  C_28
REMARK    5  A    between atoms: C_18  and  N_20
REMARK    6  A    between atoms: C_21  and  C_23
REMARK                            x       y       z     vdW  Elec       q    Type
REMARK                         _______ _______ _______ _____ _____    ______ ____
ROOT
ATOM      1  N   UNL     1      -3.624   1.723   0.029  0.00  0.00    -0.312 N 
ATOM      2  C   UNL     1      -4.540   0.684   0.026  0.00  0.00    +0.070 A 
ATOM      3  C   UNL     1      -5.926   0.624   0.033  0.00  0.00    +0.028 A 
ATOM      4  C   UNL     1      -6.559  -0.601   0.029  0.00  0.00    +0.002 A 
ATOM      5  C   UNL     1      -5.820  -1.775   0.018  0.00  0.00    +0.002 A 
ATOM      6  C   UNL     1      -4.444  -1.734   0.012  0.00  0.00    +0.030 A 
ATOM      7  C   UNL     1      -3.787  -0.501   0.016  0.00  0.00    +0.091 A 
ATOM      8  N   UNL     1      -2.477  -0.141   0.007  0.00  0.00    -0.214 NA
ATOM      9  C   UNL     1      -2.379   1.164   0.020  0.00  0.00    +0.203 A 
ATOM     10  N   UNL     1      -1.191   1.871   0.018  0.00  0.00    -0.251 N 
ATOM     11  C   UNL     1      -0.014   1.214   0.009  0.00  0.00    +0.257 C 
ATOM     12  O   UNL     1       0.002  -0.004   0.002  0.00  0.00    -0.269 OA
ATOM     13  H   UNL     1      -1.204   2.841   0.023  0.00  0.00    +0.158 HD
ENDROOT
BRANCH  11  14
ATOM     14  C   UNL     1       1.204   1.939   0.001  0.00  0.00    +0.079 A 
ATOM     15  C   UNL     1       2.506   1.458  -0.008  0.00  0.00    -0.029 A 
ATOM     16  C   UNL     1       3.516   2.381  -0.019  0.00  0.00    +0.035 A 
ATOM     17  C   UNL     1       3.190   3.721  -0.008  0.00  0.00    +0.073 A 
ATOM     18  S   UNL     1       1.457   3.705   0.009  0.00  0.00    -0.069 S 
ATOM     19  C   UNL     1       2.795  -0.021  -0.011  0.00  0.00    +0.045 C 
BRANCH  17  20
ATOM     20  N   UNL     1       4.043   4.816  -0.010  0.00  0.00    -0.273 N 
ATOM     21  C   UNL     1       3.536   6.065   0.001  0.00  0.00    +0.284 C 
ATOM     22  O   UNL     1       2.330   6.232   0.014  0.00  0.00    -0.266 OA
ATOM     23  H   UNL     1       5.003   4.683  -0.020  0.00  0.00    +0.156 HD
BRANCH  21  24
ATOM     24  C   UNL     1       4.436   7.222  -0.001  0.00  0.00    +0.189 A 
ATOM     25  C   UNL     1       4.057   8.534   0.010  0.00  0.00    +0.054 A 
ATOM     26  C   UNL     1       5.237   9.295   0.004  0.00  0.00    +0.042 A 
ATOM     27  C   UNL     1       6.271   8.425  -0.010  0.00  0.00    +0.196 A 
ATOM     28  O   UNL     1       5.785   7.177  -0.008  0.00  0.00    -0.458 OA
ENDBRANCH  21  24
ENDBRANCH  17  20
ENDBRANCH  11  14
BRANCH   1  30
ATOM     29  C   UNL     1      -4.049   3.662  -1.400  0.00  0.00    +0.027 C 
ATOM     30  C   UNL     1      -3.934   3.154   0.039  0.00  0.00    +0.122 C 
ENDBRANCH   1  30
TORSDOF 4
