REMARK  Name = ZINC49045127
REMARK  7 active torsions:
REMARK  status: ('A' for Active; 'I' for Inactive)
REMARK    1  A    between atoms: C_1  and  C_2
REMARK    2  A    between atoms: C_2  and  C_4
REMARK    3  A    between atoms: C_2  and  S_7
REMARK    4  A    between atoms: S_7  and  N_10
REMARK    5  A    between atoms: N_10  and  C_11
REMARK    6  A    between atoms: C_11  and  C_13
REMARK    7  A    between atoms: C_11  and  C_14
REMARK                            x       y       z     vdW  Elec       q    Type
REMARK                         _______ _______ _______ _____ _____    ______ ____
ROOT
ATOM      1  C   UNL     1       2.560   1.651   1.921  0.00  0.00    +0.079 C 
ATOM      2  C   UNL     1       2.717   1.763   3.439  0.00  0.00    +0.026 C 
ENDROOT
BRANCH   1   3
ATOM      3  C   UNL     1       3.787   2.254   1.235  0.00  0.00    -0.012 C 
ATOM      4  C   UNL     1       3.630   2.142  -0.282  0.00  0.00    +0.012 C 
ATOM      5  C   UNL     1       4.857   2.745  -0.969  0.00  0.00    -0.010 C 
ATOM      6  C   UNL     1       4.987   4.218  -0.577  0.00  0.00    +0.007 C 
ATOM      7  C   UNL     1       5.145   4.331   0.941  0.00  0.00    -0.010 C 
ATOM      8  C   UNL     1       3.918   3.727   1.627  0.00  0.00    +0.012 C 
ATOM      9  C   UNL     1       6.399   3.573   1.381  0.00  0.00    +0.007 C 
ATOM     10  C   UNL     1       6.269   2.100   0.989  0.00  0.00    -0.010 C 
ATOM     11  C   UNL     1       6.111   1.987  -0.528  0.00  0.00    +0.007 C 
ATOM     12  C   UNL     1       5.042   1.496   1.675  0.00  0.00    +0.012 C 
ENDBRANCH   1   3
BRANCH   1  13
ATOM     13  N   UNL     1       2.435   0.240   1.547  0.00  0.00    -0.190 NA
ATOM     14  H   UNL     1       3.230  -0.306   1.442  0.00  0.00    +0.148 HD
BRANCH  13  15
ATOM     15  S   UNL     1       0.937  -0.422   1.302  0.00  0.00    +0.043 S 
ATOM     16  O   UNL     1       1.193  -1.766   0.917  0.00  0.00    -0.157 OA
ATOM     17  O   UNL     1       0.285   0.474   0.413  0.00  0.00    -0.157 OA
BRANCH  15  19
ATOM     18  C   UNL     1       0.956  -1.211   3.921  0.00  0.00    +0.045 C 
ATOM     19  C   UNL     1       0.138  -0.380   2.930  0.00  0.00    +0.257 C 
BRANCH  19  20
ATOM     20  C   UNL     1      -1.252  -0.953   2.822  0.00  0.00    +0.381 C 
ATOM     21  O   UNL     1      -2.110  -0.626   3.624  0.00  0.00    -0.244 OA
ATOM     22  O   UNL     1      -1.518  -1.743   1.933  0.00  0.00    -0.244 OA
ENDBRANCH  19  20
ENDBRANCH  15  19
ENDBRANCH  13  15
ENDBRANCH   1  13
TORSDOF 5
