REMARK  Name = ZINC39360036
REMARK  6 active torsions:
REMARK  status: ('A' for Active; 'I' for Inactive)
REMARK    1  A    between atoms: C_1  and  C_2
REMARK    2  A    between atoms: C_2  and  C_4
REMARK    3  A    between atoms: C_2  and  N_10
REMARK    4  A    between atoms: N_10  and  C_11
REMARK    5  A    between atoms: C_11  and  C_12
REMARK    6  A    between atoms: C_21  and  C_22
REMARK                            x       y       z     vdW  Elec       q    Type
REMARK                         _______ _______ _______ _____ _____    ______ ____
ROOT
ATOM      1  C   UNL     1       0.658  -1.106   3.484  0.00  0.00    -0.007 A 
ATOM      2  C   UNL     1       0.492  -2.391   3.912  0.00  0.00    +0.017 A 
ATOM      3  C   UNL     1       1.136  -2.788   5.099  0.00  0.00    +0.004 A 
ATOM      4  C   UNL     1       1.006  -4.095   5.595  0.00  0.00    +0.059 A 
ATOM      5  C   UNL     1       1.641  -4.450   6.749  0.00  0.00    +0.167 A 
ATOM      6  C   UNL     1       2.428  -3.519   7.449  0.00  0.00    +0.168 A 
ATOM      7  C   UNL     1       2.572  -2.242   6.989  0.00  0.00    +0.078 A 
ATOM      8  C   UNL     1       1.930  -1.846   5.803  0.00  0.00    +0.075 A 
ATOM      9  N   UNL     1       2.057  -0.601   5.337  0.00  0.00    -0.246 NA
ATOM     10  C   UNL     1       1.460  -0.223   4.222  0.00  0.00    +0.076 A 
ATOM     11  O   UNL     1       2.941  -4.135   8.555  0.00  0.00    -0.453 OA
ATOM     12  C   UNL     1       2.138  -5.312   8.749  0.00  0.00    +0.466 C 
ATOM     13  O   UNL     1       1.672  -5.636   7.426  0.00  0.00    -0.453 OA
ENDROOT
BRANCH  10  14
ATOM     14  C   UNL     1       1.636   1.169   3.742  0.00  0.00    +0.001 A 
ATOM     15  C   UNL     1       2.915   1.711   3.625  0.00  0.00    +0.013 A 
ATOM     16  C   UNL     1       3.074   3.006   3.177  0.00  0.00    +0.039 A 
ATOM     17  C   UNL     1       1.966   3.768   2.844  0.00  0.00    +0.123 A 
ATOM     18  C   UNL     1       0.692   3.232   2.959  0.00  0.00    +0.039 A 
ATOM     19  C   UNL     1       0.524   1.937   3.400  0.00  0.00    +0.013 A 
ATOM     20  F   UNL     1       2.126   5.035   2.406  0.00  0.00    -0.205 F 
ENDBRANCH  10  14
BRANCH   1  21
ATOM     21  C   UNL     1      -0.014  -0.639   2.219  0.00  0.00    +0.119 C 
BRANCH  21  22
ATOM     22  N   UNL     1       0.991  -0.493   1.157  0.00  0.00    -0.303 NA
ATOM     23  H   UNL     1       1.498  -1.354   1.017  0.00  0.00    +0.123 HD
BRANCH  22  25
ATOM     24  C   UNL     1       0.257   1.488  -0.083  0.00  0.00    +0.032 C 
ATOM     25  C   UNL     1       0.371  -0.037  -0.095  0.00  0.00    +0.118 C 
BRANCH  25  26
ATOM     26  C   UNL     1       1.221  -0.468  -1.262  0.00  0.00    +0.160 C 
ATOM     27  N   UNL     1       0.812  -0.655  -2.487  0.00  0.00    -0.142 NA
ATOM     28  C   UNL     1       1.893  -1.032  -3.203  0.00  0.00    +0.366 C 
ATOM     29  O   UNL     1       1.912  -1.295  -4.382  0.00  0.00    -0.247 OA
ATOM     30  N   UNL     1       2.946  -1.062  -2.363  0.00  0.00    -0.059 NA
ATOM     31  N   UNL     1       2.571  -0.731  -1.231  0.00  0.00    -0.141 NA
ENDBRANCH  25  26
ENDBRANCH  22  25
ENDBRANCH  21  22
ENDBRANCH   1  21
TORSDOF 5
