REMARK  Name = ZINC34938966
REMARK  4 active torsions:
REMARK  status: ('A' for Active; 'I' for Inactive)
REMARK    1  A    between atoms: C_4  and  N_18
REMARK    2  A    between atoms: C_6  and  S_7
REMARK    3  A    between atoms: S_7  and  N_10
REMARK    4  A    between atoms: N_10  and  C_11
REMARK                            x       y       z     vdW  Elec       q    Type
REMARK                         _______ _______ _______ _____ _____    ______ ____
ROOT
ATOM      1  S   UNL     1      -1.513  -0.904   0.012  0.00  0.00    +0.093 S 
ATOM      2  O   UNL     1      -1.220  -2.185   0.553  0.00  0.00    -0.148 OA
ATOM      3  O   UNL     1      -2.493  -0.044   0.577  0.00  0.00    -0.148 OA
ENDROOT
BRANCH   1   9
ATOM      4  C   UNL     1      -0.017   1.378   0.010  0.00  0.00    +0.032 A 
ATOM      5  C   UNL     1       1.170   2.089   0.002  0.00  0.00    +0.042 A 
ATOM      6  C   UNL     1       2.379   1.419  -0.013  0.00  0.00    +0.144 A 
ATOM      7  C   UNL     1       2.400   0.028  -0.021  0.00  0.00    +0.062 A 
ATOM      8  C   UNL     1       1.207  -0.681  -0.013  0.00  0.00    +0.054 A 
ATOM      9  C   UNL     1       0.002  -0.004   0.002  0.00  0.00    +0.112 A 
ATOM     10  F   UNL     1       3.537   2.113  -0.022  0.00  0.00    -0.204 F 
BRANCH   7  11
ATOM     11  N   UNL     1       3.620  -0.654  -0.037  0.00  0.00    -0.356 N 
ATOM     12  H   UNL     1       4.454  -0.158  -0.043  0.00  0.00    +0.142 HD
ATOM     13  H   UNL     1       3.634  -1.624  -0.043  0.00  0.00    +0.142 HD
ENDBRANCH   7  11
ENDBRANCH   1   9
BRANCH   1  14
ATOM     14  N   UNL     1      -1.949  -1.146  -1.567  0.00  0.00    -0.078 NA
BRANCH  14  15
ATOM     15  C   UNL     1      -3.117  -1.837  -1.868  0.00  0.00    +0.163 A 
ATOM     16  C   UNL     1      -3.474  -2.041  -3.197  0.00  0.00    +0.048 A 
ATOM     17  C   UNL     1      -4.639  -2.730  -3.482  0.00  0.00    +0.020 A 
ATOM     18  C   UNL     1      -5.411  -3.194  -2.424  0.00  0.00    +0.036 A 
ATOM     19  C   UNL     1      -4.996  -2.955  -1.129  0.00  0.00    +0.128 A 
ATOM     20  N   UNL     1      -3.877  -2.299  -0.887  0.00  0.00    -0.236 NA
ATOM     21 BR   UNL     1      -7.014  -4.142  -2.754  0.00  0.00    -0.049 Br
ENDBRANCH  14  15
ENDBRANCH   1  14
TORSDOF 4
