REMARK  Name = ZINC37182115
REMARK  6 active torsions:
REMARK  status: ('A' for Active; 'I' for Inactive)
REMARK    1  A    between atoms: C_3  and  S_8
REMARK    2  A    between atoms: C_6  and  N_7
REMARK    3  A    between atoms: S_8  and  C_9
REMARK    4  A    between atoms: C_9  and  C_10
REMARK    5  A    between atoms: N_12  and  C_13
REMARK    6  A    between atoms: C_14  and  C_18
REMARK                            x       y       z     vdW  Elec       q    Type
REMARK                         _______ _______ _______ _____ _____    ______ ____
ROOT
ATOM      1  C   UNL     1       6.535   1.671  -0.052  0.00  0.00    +0.228 C 
ATOM      2  O   UNL     1       6.635   2.880  -0.047  0.00  0.00    -0.275 OA
ATOM      3  N   UNL     1       7.644   0.904  -0.067  0.00  0.00    -0.279 N 
ATOM      4  H   UNL     1       7.564  -0.063  -0.071  0.00  0.00    +0.155 HD
ENDROOT
BRANCH   3   5
ATOM      5  C   UNL     1       8.897   1.496  -0.076  0.00  0.00    +0.084 A 
ATOM      6  C   UNL     1      10.136   0.872  -0.097  0.00  0.00    +0.065 A 
ATOM      7  C   UNL     1      11.294   1.735  -0.102  0.00  0.00    +0.022 A 
ATOM      8  C   UNL     1      11.042   3.057  -0.086  0.00  0.00    +0.048 A 
ATOM      9  S   UNL     1       9.264   3.134  -0.072  0.00  0.00    -0.081 S 
BRANCH   6  10
ATOM     10  C   UNL     1      10.262  -0.589  -0.112  0.00  0.00    +0.244 C 
ATOM     11  O   UNL     1       9.264  -1.286  -0.106  0.00  0.00    -0.270 OA
ATOM     12  N   UNL     1      11.483  -1.159  -0.132  0.00  0.00    -0.325 N 
ATOM     13  H   UNL     1      12.278  -0.604  -0.136  0.00  0.00    +0.145 HD
ATOM     14  H   UNL     1      11.567  -2.126  -0.142  0.00  0.00    +0.145 HD
ENDBRANCH   6  10
ENDBRANCH   3   5
BRANCH   1  15
ATOM     15  C   UNL     1       5.173   1.027  -0.042  0.00  0.00    +0.170 C 
BRANCH  15  16
ATOM     16  S   UNL     1       3.896   2.315  -0.023  0.00  0.00    -0.116 S 
BRANCH  16  19
ATOM     17  C   UNL     1      -0.017   1.385   0.010  0.00  0.00    +0.024 A 
ATOM     18  C   UNL     1       1.169   2.091   0.002  0.00  0.00    +0.016 A 
ATOM     19  C   UNL     1       2.382   1.413  -0.013  0.00  0.00    +0.008 A 
ATOM     20  C   UNL     1       2.400   0.024  -0.021  0.00  0.00    +0.016 A 
ATOM     21  C   UNL     1       1.214  -0.682  -0.013  0.00  0.00    +0.024 A 
ATOM     22  C   UNL     1       0.002  -0.004   0.002  0.00  0.00    +0.025 A 
BRANCH  22  23
ATOM     23  N   UNL     1      -1.201  -0.720   0.010  0.00  0.00    -0.358 N 
ATOM     24  H   UNL     1      -2.047  -0.247   0.020  0.00  0.00    +0.142 HD
ATOM     25  H   UNL     1      -1.188  -1.690   0.004  0.00  0.00    +0.142 HD
ENDBRANCH  22  23
ENDBRANCH  16  19
ENDBRANCH  15  16
ENDBRANCH   1  15
TORSDOF 6
