REMARK  Name = ZINC40636963
REMARK  4 active torsions:
REMARK  status: ('A' for Active; 'I' for Inactive)
REMARK    1  A    between atoms: C_1  and  O_2
REMARK    2  A    between atoms: O_2  and  C_3
REMARK    3  A    between atoms: C_6  and  C_10
REMARK    4  A    between atoms: C_16  and  C_19
REMARK                            x       y       z     vdW  Elec       q    Type
REMARK                         _______ _______ _______ _____ _____    ______ ____
ROOT
ATOM      1  C   UNL     1      -3.304  -3.425  -0.651  0.00  0.00    +0.202 C 
ATOM      2  O   UNL     1      -4.399  -2.907  -0.610  0.00  0.00    -0.277 OA
ATOM      3  N   UNL     1      -3.091  -4.488  -1.452  0.00  0.00    -0.302 N 
ATOM      4  C   UNL     1      -1.770  -5.130  -1.508  0.00  0.00    +0.108 C 
ATOM      5  C   UNL     1      -1.939  -6.628  -1.235  0.00  0.00    +0.020 C 
ATOM      6  C   UNL     1      -2.963  -7.209  -2.212  0.00  0.00    +0.018 C 
ATOM      7  C   UNL     1      -4.316  -6.525  -2.003  0.00  0.00    +0.119 C 
ATOM      8  C   UNL     1      -4.176  -5.030  -2.281  0.00  0.00    +0.122 C 
ENDROOT
BRANCH   1  11
ATOM      9  C   UNL     1      -1.295  -0.603   0.011  0.00  0.00    +0.100 C 
ATOM     10  C   UNL     1      -1.261  -1.993  -0.665  0.00  0.00    +0.023 C 
ATOM     11  C   UNL     1      -2.180  -2.881   0.194  0.00  0.00    +0.019 C 
ATOM     12  N   UNL     1      -2.724  -2.027   1.272  0.00  0.00    +0.388 N 
ATOM     13  C   UNL     1      -1.738  -0.929   1.460  0.00  0.00    -0.050 C 
ATOM     14  H   UNL     1      -3.617  -1.647   0.999  0.00  0.00    -0.085 HD
ATOM     15  H   UNL     1      -2.817  -2.561   2.124  0.00  0.00    -0.085 HD
BRANCH   9  17
ATOM     16  C   UNL     1      -0.017   1.425   0.010  0.00  0.00    +0.194 C 
ATOM     17  O   UNL     1       0.002  -0.004   0.002  0.00  0.00    -0.382 OA
ENDBRANCH   9  17
ENDBRANCH   1  11
BRANCH   7  18
ATOM     18  C   UNL     1      -5.331  -7.121  -2.944  0.00  0.00    +0.361 C 
ATOM     19  O   UNL     1      -5.591  -8.311  -2.886  0.00  0.00    -0.246 OA
ATOM     20  O   UNL     1      -5.893  -6.413  -3.762  0.00  0.00    -0.246 OA
ENDBRANCH   7  18
TORSDOF 3
