REMARK  Name = ZINC45126379
REMARK  9 active torsions:
REMARK  status: ('A' for Active; 'I' for Inactive)
REMARK    1  A    between atoms: C_1  and  N_2
REMARK    2  A    between atoms: N_2  and  C_3
REMARK    3  A    between atoms: N_2  and  C_20
REMARK    4  A    between atoms: C_3  and  C_4
REMARK    5  A    between atoms: C_4  and  C_5
REMARK    6  A    between atoms: C_5  and  N_6
REMARK    7  A    between atoms: N_9  and  N_10
REMARK    8  A    between atoms: C_11  and  C_13
REMARK    9  A    between atoms: C_20  and  C_21
REMARK                            x       y       z     vdW  Elec       q    Type
REMARK                         _______ _______ _______ _____ _____    ______ ____
ROOT
ATOM      1  N   UNL     1       4.282  -0.140  -2.368  0.00  0.00    -0.298 N 
ATOM      2  C   UNL     1       5.112  -0.467  -3.378  0.00  0.00    +0.316 C 
ATOM      3  O   UNL     1       4.694  -1.099  -4.329  0.00  0.00    -0.251 OA
ATOM      4  N   UNL     1       6.406  -0.093  -3.335  0.00  0.00    -0.218 N 
ATOM      5  H   UNL     1       4.615   0.364  -1.610  0.00  0.00    +0.150 HD
ATOM      6  H   UNL     1       7.004  -0.328  -4.062  0.00  0.00    +0.174 HD
ENDROOT
BRANCH   4   7
ATOM      7  N   UNL     1       6.888   0.635  -2.240  0.00  0.00    -0.229 N 
ATOM      8  C   UNL     1       8.182   1.009  -2.196  0.00  0.00    +0.262 C 
ATOM      9  O   UNL     1       8.931   0.714  -3.107  0.00  0.00    -0.269 OA
ATOM     10  H   UNL     1       6.291   0.870  -1.512  0.00  0.00    +0.173 HD
BRANCH   8  11
ATOM     11  C   UNL     1       8.691   1.777  -1.041  0.00  0.00    +0.056 A 
ATOM     12  C   UNL     1       7.835   2.113   0.010  0.00  0.00    +0.014 A 
ATOM     13  C   UNL     1       8.316   2.830   1.085  0.00  0.00    +0.001 A 
ATOM     14  C   UNL     1       9.644   3.218   1.125  0.00  0.00    +0.001 A 
ATOM     15  C   UNL     1      10.498   2.890   0.089  0.00  0.00    +0.021 A 
ATOM     16  C   UNL     1      10.032   2.166  -0.992  0.00  0.00    +0.053 A 
ATOM     17 CL   UNL     1      11.107   1.749  -2.289  0.00  0.00    -0.083 Cl
ENDBRANCH   8  11
ENDBRANCH   4   7
BRANCH   1  18
ATOM     18  C   UNL     1       2.875  -0.547  -2.416  0.00  0.00    +0.104 C 
BRANCH  18  19
ATOM     19  C   UNL     1       2.159  -0.053  -1.157  0.00  0.00    +0.000 C 
BRANCH  19  20
ATOM     20  C   UNL     1       0.690  -0.478  -1.207  0.00  0.00    -0.077 C 
BRANCH  20  22
ATOM     21  C   UNL     1      -0.018   1.465   0.010  0.00  0.00    -0.096 C 
ATOM     22  N   UNL     1       0.002  -0.004   0.002  0.00  0.00    +0.381 N 
ATOM     23  H   UNL     1       0.490  -0.338   0.820  0.00  0.00    -0.082 HD
BRANCH  22  24
ATOM     24  C   UNL     1      -1.376  -0.512   0.012  0.00  0.00    -0.043 C 
BRANCH  24  25
ATOM     25  C   UNL     1      -2.043  -0.130   1.309  0.00  0.00    -0.064 A 
ATOM     26  C   UNL     1      -1.964  -0.973   2.402  0.00  0.00    +0.002 A 
ATOM     27  C   UNL     1      -2.575  -0.622   3.591  0.00  0.00    +0.000 A 
ATOM     28  C   UNL     1      -3.266   0.572   3.687  0.00  0.00    +0.000 A 
ATOM     29  C   UNL     1      -3.344   1.415   2.594  0.00  0.00    +0.000 A 
ATOM     30  C   UNL     1      -2.729   1.066   1.406  0.00  0.00    +0.002 A 
ENDBRANCH  24  25
ENDBRANCH  22  24
ENDBRANCH  20  22
ENDBRANCH  19  20
ENDBRANCH  18  19
ENDBRANCH   1  18
TORSDOF 8
