REMARK  Name = ZINC12974683
REMARK  11 active torsions:
REMARK  status: ('A' for Active; 'I' for Inactive)
REMARK    1  A    between atoms: C_1  and  C_2
REMARK    2  A    between atoms: C_2  and  C_3
REMARK    3  A    between atoms: C_3  and  N_4
REMARK    4  A    between atoms: C_5  and  N_30
REMARK    5  A    between atoms: C_6  and  C_13
REMARK    6  A    between atoms: C_13  and  C_15
REMARK    7  A    between atoms: C_15  and  O_16
REMARK    8  A    between atoms: O_16  and  C_17
REMARK    9  A    between atoms: C_17  and  C_19
REMARK   10  A    between atoms: C_20  and  C_29
REMARK   11  A    between atoms: C_22  and  C_24
REMARK                            x       y       z     vdW  Elec       q    Type
REMARK                         _______ _______ _______ _____ _____    ______ ____
ROOT
ATOM      1  C   UNL     1       0.086  -3.117  -2.175  0.00  0.00    +0.209 C 
ATOM      2  O   UNL     1      -0.019  -2.690  -3.308  0.00  0.00    -0.288 OA
ENDROOT
BRANCH   1   5
ATOM      3  N   UNL     1      -0.002  -0.015  -0.185  0.00  0.00    -0.281 N 
ATOM      4  C   UNL     1       0.025  -0.836  -1.276  0.00  0.00    +0.116 A 
ATOM      5  C   UNL     1       0.052  -2.227  -1.080  0.00  0.00    +0.123 A 
ATOM      6  C   UNL     1       0.040  -2.726   0.301  0.00  0.00    +0.266 A 
ATOM      7  O   UNL     1       0.059  -3.921   0.530  0.00  0.00    -0.267 OA
ATOM      8  N   UNL     1       0.008  -1.832   1.311  0.00  0.00    -0.274 N 
ATOM      9  H   UNL     1      -0.000  -2.156   2.257  0.00  0.00    +0.173 HD
ATOM     10  C   UNL     1      -0.012  -0.512   1.062  0.00  0.00    +0.331 A 
ATOM     11  O   UNL     1      -0.041   0.260   2.000  0.00  0.00    -0.246 OA
BRANCH   4  12
ATOM     12  N   UNL     1       0.029  -0.314  -2.533  0.00  0.00    -0.344 N 
ATOM     13  H   UNL     1       0.099   0.645  -2.660  0.00  0.00    +0.144 HD
ATOM     14  H   UNL     1      -0.037  -0.902  -3.302  0.00  0.00    +0.144 HD
ENDBRANCH   4  12
BRANCH   3  15
ATOM     15  C   UNL     1      -0.026   1.437  -0.379  0.00  0.00    +0.128 C 
BRANCH  15  17
ATOM     16  C   UNL     1       1.383   3.485  -0.626  0.00  0.00    +0.005 C 
ATOM     17  C   UNL     1       1.408   1.969  -0.424  0.00  0.00    +0.018 C 
ENDBRANCH  15  17
ENDBRANCH   3  15
ENDBRANCH   1   5
BRANCH   1  18
ATOM     18  C   UNL     1       0.250  -4.596  -1.940  0.00  0.00    +0.312 C 
BRANCH  18  19
ATOM     19  O   UNL     1       0.254  -5.280  -3.195  0.00  0.00    -0.453 OA
BRANCH  19  20
ATOM     20  C   UNL     1       0.394  -6.622  -3.160  0.00  0.00    +0.348 C 
ATOM     21  O   UNL     1       0.509  -7.194  -2.093  0.00  0.00    -0.244 OA
BRANCH  20  22
ATOM     22  C   UNL     1       0.406  -7.388  -4.405  0.00  0.00    +0.119 A 
ATOM     23  C   UNL     1       0.542  -8.758  -4.604  0.00  0.00    +0.060 A 
ATOM     24  N   UNL     1       0.520  -9.228  -5.819  0.00  0.00    -0.243 NA
ATOM     25  C   UNL     1       0.382  -8.427  -6.875  0.00  0.00    +0.116 A 
ATOM     26  S   UNL     1       0.259  -6.823  -6.096  0.00  0.00    -0.060 S 
ATOM     27  C   UNL     1       0.708  -9.686  -3.429  0.00  0.00    +0.067 C 
BRANCH  25  28
ATOM     28  C   UNL     1       0.342  -8.772  -8.302  0.00  0.00    +0.044 A 
ATOM     29  C   UNL     1       0.199  -7.938  -9.397  0.00  0.00    +0.018 A 
ATOM     30  C   UNL     1       0.191  -8.500 -10.651  0.00  0.00    +0.008 A 
ATOM     31  C   UNL     1       0.323  -9.848 -10.776  0.00  0.00    +0.046 A 
ATOM     32  S   UNL     1       0.474 -10.374  -9.078  0.00  0.00    -0.095 S 
ENDBRANCH  25  28
ENDBRANCH  20  22
ENDBRANCH  19  20
ENDBRANCH  18  19
ENDBRANCH   1  18
TORSDOF 9
