REMARK  Name = ZINC50397949
REMARK  4 active torsions:
REMARK  status: ('A' for Active; 'I' for Inactive)
REMARK    1  A    between atoms: C_3  and  N_9
REMARK    2  A    between atoms: C_10  and  C_12
REMARK    3  A    between atoms: C_12  and  C_18
REMARK    4  A    between atoms: C_18  and  N_20
REMARK                            x       y       z     vdW  Elec       q    Type
REMARK                         _______ _______ _______ _____ _____    ______ ____
ROOT
ATOM      1  N   UNL     1       3.471   2.990   3.101  0.00  0.00    -0.303 N 
ATOM      2  C   UNL     1       4.230   2.148   2.372  0.00  0.00    +0.226 C 
ATOM      3  O   UNL     1       3.732   1.163   1.869  0.00  0.00    -0.275 OA
ATOM      4  H   UNL     1       3.883   3.733   3.570  0.00  0.00    +0.149 HD
ENDROOT
BRANCH   1   7
ATOM      5  C   UNL     1      -0.037   3.428   4.418  0.00  0.00    +0.021 C 
ATOM      6  C   UNL     1       1.495   3.408   4.479  0.00  0.00    +0.033 C 
ATOM      7  C   UNL     1       2.023   2.783   3.186  0.00  0.00    +0.159 C 
ATOM      8  C   UNL     1       1.359   3.424   2.001  0.00  0.00    +0.233 C 
ATOM      9  O   UNL     1       1.876   3.291   0.912  0.00  0.00    -0.274 OA
ATOM     10  N   UNL     1       0.231   4.131   2.082  0.00  0.00    -0.314 N 
ATOM     11  C   UNL     1      -0.471   4.410   3.328  0.00  0.00    +0.104 C 
ATOM     12  H   UNL     1      -0.146   4.482   1.260  0.00  0.00    +0.149 HD
ENDBRANCH   1   7
BRANCH   2  13
ATOM     13  C   UNL     1       5.698   2.431   2.182  0.00  0.00    +0.095 C 
ATOM     14  C   UNL     1       6.363   1.239   1.486  0.00  0.00    +0.051 C 
ATOM     15  C   UNL     1       6.252   0.006   2.386  0.00  0.00    +0.161 C 
ATOM     16  O   UNL     1       6.859   0.283   3.649  0.00  0.00    -0.380 OA
ATOM     17  C   UNL     1       6.249   1.357   4.367  0.00  0.00    +0.161 C 
ATOM     18  C   UNL     1       6.360   2.645   3.547  0.00  0.00    +0.051 C 
BRANCH  13  19
ATOM     19  C   UNL     1       5.868   3.668   1.339  0.00  0.00    +0.061 C 
ATOM     20  S   UNL     1       6.747   4.890   1.881  0.00  0.00    -0.040 S 
BRANCH  19  21
ATOM     21  N   UNL     1       5.280   3.746   0.129  0.00  0.00    -0.355 N 
ATOM     22  H   UNL     1       4.810   2.978  -0.232  0.00  0.00    +0.143 HD
ATOM     23  H   UNL     1       5.327   4.570  -0.381  0.00  0.00    +0.143 HD
ENDBRANCH  19  21
ENDBRANCH  13  19
ENDBRANCH   2  13
TORSDOF 4
