REMARK  Name = ZINC05449963
REMARK  6 active torsions:
REMARK  status: ('A' for Active; 'I' for Inactive)
REMARK    1  A    between atoms: C_1  and  C_2
REMARK    2  A    between atoms: C_2  and  C_4
REMARK    3  A    between atoms: C_2  and  S_7
REMARK    4  A    between atoms: S_7  and  C_8
REMARK    5  A    between atoms: C_11  and  C_14
REMARK    6  A    between atoms: N_12  and  N_13
REMARK                            x       y       z     vdW  Elec       q    Type
REMARK                         _______ _______ _______ _____ _____    ______ ____
ROOT
ATOM      1  C   UNL     1       3.897   5.546  -0.057  0.00  0.00    +0.209 A 
ATOM      2  N   UNL     1       4.500   4.383   0.043  0.00  0.00    -0.121 NA
ATOM      3  N   UNL     1       3.632   3.436   0.074  0.00  0.00    -0.127 NA
ATOM      4  C   UNL     1       2.421   3.936  -0.005  0.00  0.00    +0.183 A 
ATOM      5  N   UNL     1       2.554   5.303  -0.097  0.00  0.00    -0.224 N 
ENDROOT
BRANCH   4   6
ATOM      6  C   UNL     1       1.154   3.175  -0.002  0.00  0.00    +0.035 A 
ATOM      7  C   UNL     1       0.165   3.455  -0.946  0.00  0.00    +0.013 A 
ATOM      8  C   UNL     1      -1.016   2.741  -0.937  0.00  0.00    +0.001 A 
ATOM      9  C   UNL     1      -1.223   1.753   0.008  0.00  0.00    +0.001 A 
ATOM     10  C   UNL     1      -0.246   1.466   0.944  0.00  0.00    +0.016 A 
ATOM     11  C   UNL     1       0.940   2.172   0.947  0.00  0.00    +0.029 A 
ATOM     12 BR   UNL     1       2.273   1.783   2.231  0.00  0.00    -0.050 Br
ENDBRANCH   4   6
BRANCH   5  13
ATOM     13  N   UNL     1       1.551   6.224  -0.204  0.00  0.00    -0.295 N 
ATOM     14  H   UNL     1       1.305   6.598   0.700  0.00  0.00    +0.163 HD
ATOM     15  H   UNL     1       1.804   6.962  -0.844  0.00  0.00    +0.163 HD
ENDBRANCH   5  13
BRANCH   1  16
ATOM     16  S   UNL     1       4.676   7.124  -0.134  0.00  0.00    -0.072 S 
BRANCH  16  18
ATOM     17  C   UNL     1       6.682   5.985   1.329  0.00  0.00    +0.029 C 
ATOM     18  C   UNL     1       6.412   6.623  -0.035  0.00  0.00    +0.137 C 
BRANCH  18  19
ATOM     19  C   UNL     1       7.295   7.832  -0.207  0.00  0.00    +0.224 C 
ATOM     20  O   UNL     1       6.873   8.935   0.069  0.00  0.00    -0.275 OA
ATOM     21  N   UNL     1       8.553   7.688  -0.668  0.00  0.00    -0.328 N 
ATOM     22  H   UNL     1       8.891   6.806  -0.888  0.00  0.00    +0.145 HD
ATOM     23  H   UNL     1       9.121   8.466  -0.778  0.00  0.00    +0.145 HD
ENDBRANCH  18  19
ENDBRANCH  16  18
ENDBRANCH   1  16
TORSDOF 5
