REMARK  Name = ZINC05525846
REMARK  6 active torsions:
REMARK  status: ('A' for Active; 'I' for Inactive)
REMARK    1  A    between atoms: C_1  and  C_2
REMARK    2  A    between atoms: C_2  and  C_4
REMARK    3  A    between atoms: C_2  and  N_15
REMARK    4  A    between atoms: N_6  and  N_7
REMARK    5  A    between atoms: N_7  and  C_8
REMARK    6  A    between atoms: C_16  and  C_18
REMARK                            x       y       z     vdW  Elec       q    Type
REMARK                         _______ _______ _______ _____ _____    ______ ____
ROOT
ATOM      1  C   UNL     1      -6.059   3.059  -1.474  0.00  0.00    +0.038 C 
ATOM      2  C   UNL     1      -6.089   1.966  -0.404  0.00  0.00    +0.157 C 
ENDROOT
BRANCH   2   3
ATOM      3  C   UNL     1      -4.785   1.211  -0.421  0.00  0.00    +0.249 C 
ATOM      4  O   UNL     1      -4.777   0.018  -0.642  0.00  0.00    -0.272 OA
ATOM      5  N   UNL     1      -3.627   1.861  -0.190  0.00  0.00    -0.235 N 
ATOM      6  H   UNL     1      -3.634   2.942   0.011  0.00  0.00    +0.173 HD
BRANCH   5   7
ATOM      7  N   UNL     1      -2.415   1.159  -0.205  0.00  0.00    -0.268 N 
ATOM      8  H   UNL     1      -2.408   0.077  -0.405  0.00  0.00    +0.170 HD
BRANCH   7   9
ATOM      9  C   UNL     1      -1.297   1.786   0.018  0.00  0.00    +0.025 C 
ATOM     10  C   UNL     1      -1.275   3.276   0.297  0.00  0.00    +0.052 C 
ATOM     11  C   UNL     1      -0.098   3.868  -0.492  0.00  0.00    +0.014 C 
ATOM     12  C   UNL     1       1.204   3.251   0.016  0.00  0.00    +0.079 C 
ATOM     13  C   UNL     1       1.136   1.753   0.001  0.00  0.00    +0.158 C 
ATOM     14  C   UNL     1      -0.013   1.076   0.008  0.00  0.00    +0.066 C 
ATOM     15  O   UNL     1       2.296   1.055  -0.022  0.00  0.00    -0.293 OA
ENDBRANCH   7   9
ENDBRANCH   5   7
ENDBRANCH   2   3
BRANCH   2  16
ATOM     16  N   UNL     1      -7.192   1.042  -0.681  0.00  0.00    -0.304 N 
ATOM     17  C   UNL     1      -8.434   1.325  -0.242  0.00  0.00    +0.220 C 
ATOM     18  O   UNL     1      -8.640   2.345   0.381  0.00  0.00    -0.275 OA
ATOM     19  H   UNL     1      -7.006   0.117  -1.246  0.00  0.00    +0.149 HD
BRANCH  17  20
ATOM     20  C   UNL     1      -9.569   0.375  -0.527  0.00  0.00    +0.048 C 
ATOM     21  C   UNL     1      -9.259  -0.989   0.094  0.00  0.00    +0.019 C 
ATOM     22  C   UNL     1     -10.411  -1.954  -0.195  0.00  0.00    -0.009 C 
ATOM     23  C   UNL     1     -11.704  -1.400   0.408  0.00  0.00    +0.007 C 
ATOM     24  C   UNL     1     -12.013  -0.037  -0.213  0.00  0.00    -0.009 C 
ATOM     25  C   UNL     1     -10.861   0.928   0.076  0.00  0.00    +0.019 C 
ATOM     26  C   UNL     1     -12.181  -0.192  -1.726  0.00  0.00    +0.007 C 
ATOM     27  C   UNL     1     -10.889  -0.745  -2.329  0.00  0.00    -0.009 C 
ATOM     28  C   UNL     1     -10.579  -2.109  -1.707  0.00  0.00    +0.007 C 
ATOM     29  C   UNL     1      -9.737   0.220  -2.040  0.00  0.00    +0.019 C 
ENDBRANCH  17  20
ENDBRANCH   2  16
TORSDOF 5
