REMARK  Name = ZINC38137533
REMARK  3 active torsions:
REMARK  status: ('A' for Active; 'I' for Inactive)
REMARK    1  A    between atoms: C_4  and  S_7
REMARK    2  A    between atoms: S_7  and  N_10
REMARK    3  A    between atoms: N_10  and  C_11
REMARK                            x       y       z     vdW  Elec       q    Type
REMARK                         _______ _______ _______ _____ _____    ______ ____
ROOT
ATOM      1  C   UNL     1       1.348  -2.690  -2.858  0.00  0.00    +0.073 C 
ATOM      2  C   UNL     1       0.642  -2.758  -1.501  0.00  0.00    +0.001 C 
ATOM      3  C   UNL     1      -0.751  -3.364  -1.687  0.00  0.00    -0.080 C 
ATOM      4  N   UNL     1      -0.629  -4.716  -2.245  0.00  0.00    +0.383 N 
ATOM      5  C   UNL     1      -0.018  -4.652  -3.578  0.00  0.00    -0.067 C 
ATOM      6  C   UNL     1       1.402  -4.094  -3.467  0.00  0.00    +0.008 C 
ATOM      7  C   UNL     1      -0.853  -3.740  -4.480  0.00  0.00    -0.012 C 
ATOM      8  C   UNL     1      -2.272  -4.298  -4.598  0.00  0.00    -0.001 C 
ATOM      9  C   UNL     1      -2.219  -5.703  -5.202  0.00  0.00    -0.000 C 
ATOM     10  C   UNL     1      -1.385  -6.615  -4.301  0.00  0.00    -0.001 C 
ATOM     11  C   UNL     1       0.034  -6.057  -4.183  0.00  0.00    -0.012 C 
ATOM     12  H   UNL     1      -0.052  -5.279  -1.638  0.00  0.00    -0.085 HD
ATOM     13  H   UNL     1      -1.546  -5.133  -2.316  0.00  0.00    -0.085 HD
ENDROOT
BRANCH   1  14
ATOM     14  N   UNL     1       2.709  -2.181  -2.678  0.00  0.00    -0.191 NA
ATOM     15  H   UNL     1       3.425  -2.787  -2.430  0.00  0.00    +0.148 HD
BRANCH  14  16
ATOM     16  S   UNL     1       3.027  -0.570  -2.897  0.00  0.00    +0.032 S 
ATOM     17  O   UNL     1       4.413  -0.433  -2.616  0.00  0.00    -0.158 OA
ATOM     18  O   UNL     1       2.058   0.102  -2.104  0.00  0.00    -0.158 OA
BRANCH  16  22
ATOM     19  C   UNL     1       3.648   0.546  -7.312  0.00  0.00    +0.000 C 
ATOM     20  C   UNL     1       2.746   1.451  -6.470  0.00  0.00    +0.002 C 
ATOM     21  C   UNL     1       3.011   1.196  -4.985  0.00  0.00    +0.028 C 
ATOM     22  C   UNL     1       2.713  -0.268  -4.657  0.00  0.00    +0.148 C 
ATOM     23  C   UNL     1       3.615  -1.173  -5.499  0.00  0.00    +0.028 C 
ATOM     24  C   UNL     1       3.350  -0.918  -6.984  0.00  0.00    +0.002 C 
ENDBRANCH  16  22
ENDBRANCH  14  16
ENDBRANCH   1  14
TORSDOF 3
