REMARK  Name = ZINC22289414
REMARK  6 active torsions:
REMARK  status: ('A' for Active; 'I' for Inactive)
REMARK    1  A    between atoms: C_1  and  C_2
REMARK    2  A    between atoms: C_7  and  O_8
REMARK    3  A    between atoms: O_8  and  C_9
REMARK    4  A    between atoms: C_9  and  C_10
REMARK    5  A    between atoms: C_15  and  C_18
REMARK    6  A    between atoms: C_18  and  N_19
REMARK                            x       y       z     vdW  Elec       q    Type
REMARK                         _______ _______ _______ _____ _____    ______ ____
ROOT
ATOM      1  C   UNL     1       0.047   0.092   4.775  0.00  0.00    +0.256 C 
ATOM      2  O   UNL     1       0.030   1.295   4.624  0.00  0.00    -0.272 OA
ATOM      3  N   UNL     1       0.066  -0.431   6.017  0.00  0.00    -0.262 N 
ATOM      4  C   UNL     1       0.066   0.408   7.125  0.00  0.00    +0.165 A 
ATOM      5  N   UNL     1       0.088   0.081   8.399  0.00  0.00    -0.231 NA
ATOM      6  C   UNL     1       0.084   1.005   9.341  0.00  0.00    +0.034 A 
ATOM      7  C   UNL     1       0.056   2.298   8.935  0.00  0.00    +0.070 A 
ATOM      8  S   UNL     1       0.044   2.091   7.162  0.00  0.00    -0.060 S 
ATOM      9  H   UNL     1       0.080  -1.394   6.138  0.00  0.00    +0.157 HD
ENDROOT
BRANCH   1  10
ATOM     10  C   UNL     1       0.048  -0.819   3.574  0.00  0.00    +0.325 C 
BRANCH  10  11
ATOM     11  O   UNL     1       0.025  -0.033   2.381  0.00  0.00    -0.482 OA
BRANCH  11  18
ATOM     12  C   UNL     1      -0.018   1.503   0.010  0.00  0.00    +0.047 C 
ATOM     13  C   UNL     1       0.002  -0.004   0.002  0.00  0.00    -0.007 A 
ATOM     14  C   UNL     1       0.006  -0.689  -1.198  0.00  0.00    +0.027 A 
ATOM     15  C   UNL     1       0.024  -2.072  -1.206  0.00  0.00    +0.041 A 
ATOM     16  C   UNL     1       0.040  -2.773  -0.013  0.00  0.00    +0.023 A 
ATOM     17  C   UNL     1       0.036  -2.092   1.189  0.00  0.00    +0.047 A 
ATOM     18  C   UNL     1       0.023  -0.704   1.199  0.00  0.00    +0.124 A 
ATOM     19 CL   UNL     1       0.028  -2.930  -2.715  0.00  0.00    -0.084 Cl
ENDBRANCH  11  18
ENDBRANCH  10  11
ENDBRANCH   1  10
BRANCH   6  20
ATOM     20  C   UNL     1       0.108   0.639  10.803  0.00  0.00    -0.022 C 
BRANCH  20  21
ATOM     21  N   UNL     1      -1.261   0.379  11.265  0.00  0.00    +0.383 N 
ATOM     22  C   UNL     1      -2.049   1.615  11.179  0.00  0.00    -0.078 C 
ATOM     23  C   UNL     1      -3.497   1.331  11.583  0.00  0.00    -0.019 C 
ATOM     24  C   UNL     1      -3.526   0.804  13.021  0.00  0.00    -0.004 C 
ATOM     25  C   UNL     1      -2.642  -0.443  13.116  0.00  0.00    -0.019 C 
ATOM     26  C   UNL     1      -1.226  -0.093  12.655  0.00  0.00    -0.078 C 
ATOM     27  H   UNL     1      -1.684  -0.328  10.682  0.00  0.00    -0.081 HD
ENDBRANCH  20  21
ENDBRANCH   6  20
TORSDOF 5
