REMARK  Name = ZINC33172518
REMARK  7 active torsions:
REMARK  status: ('A' for Active; 'I' for Inactive)
REMARK    1  A    between atoms: C_1  and  C_2
REMARK    2  A    between atoms: C_12  and  S_16
REMARK    3  A    between atoms: S_16  and  C_17
REMARK    4  A    between atoms: C_17  and  C_18
REMARK    5  A    between atoms: N_20  and  C_21
REMARK    6  A    between atoms: C_21  and  C_22
REMARK    7  A    between atoms: C_21  and  C_23
REMARK                            x       y       z     vdW  Elec       q    Type
REMARK                         _______ _______ _______ _____ _____    ______ ____
ROOT
ATOM      1  C   UNL     1       2.093  -5.700  -0.047  0.00  0.00    +0.044 C 
ATOM      2  C   UNL     1       1.215  -4.475  -0.033  0.00  0.00    -0.050 A 
ATOM      3  C   UNL     1      -0.166  -4.614  -0.020  0.00  0.00    +0.005 A 
ATOM      4  C   UNL     1      -0.982  -3.505  -0.007  0.00  0.00    +0.026 A 
ATOM      5  C   UNL     1      -0.425  -2.229  -0.006  0.00  0.00    +0.049 A 
ATOM      6  C   UNL     1       0.972  -2.090  -0.018  0.00  0.00    +0.026 A 
ATOM      7  C   UNL     1       1.786  -3.222  -0.032  0.00  0.00    +0.015 A 
ATOM      8  C   UNL     1       1.248  -0.644  -0.013  0.00  0.00    +0.101 A 
ATOM      9  C   UNL     1       0.002  -0.004   0.002  0.00  0.00    +0.098 A 
ATOM     10  N   UNL     1      -0.988  -0.968   0.006  0.00  0.00    -0.351 N 
ATOM     11  H   UNL     1      -2.082  -0.854   0.017  0.00  0.00    +0.166 HD
ATOM     12  C   UNL     1      -0.017   1.398   0.010  0.00  0.00    +0.124 A 
ATOM     13  N   UNL     1       1.141   2.052   0.002  0.00  0.00    -0.227 NA
ATOM     14  C   UNL     1       2.292   1.406  -0.012  0.00  0.00    +0.223 A 
ATOM     15  N   UNL     1       2.359   0.092  -0.020  0.00  0.00    -0.233 NA
ENDROOT
BRANCH  12  16
ATOM     16  S   UNL     1      -1.545   2.275   0.022  0.00  0.00    -0.094 S 
BRANCH  16  17
ATOM     17  C   UNL     1      -0.929   3.978   0.028  0.00  0.00    +0.171 C 
BRANCH  17  18
ATOM     18  C   UNL     1      -2.095   4.933   0.039  0.00  0.00    +0.223 C 
ATOM     19  O   UNL     1      -3.229   4.505   0.042  0.00  0.00    -0.275 OA
ATOM     20  N   UNL     1      -1.876   6.263   0.045  0.00  0.00    -0.312 N 
ATOM     21  H   UNL     1      -0.846   6.651   0.042  0.00  0.00    +0.149 HD
BRANCH  20  22
ATOM     22  C   UNL     1      -3.008   7.192   0.056  0.00  0.00    +0.067 C 
ATOM     23  C   UNL     1      -3.476   7.410   1.496  0.00  0.00    +0.027 C 
ATOM     24  C   UNL     1      -2.577   8.529  -0.549  0.00  0.00    +0.027 C 
ENDBRANCH  20  22
ENDBRANCH  17  18
ENDBRANCH  16  17
ENDBRANCH  12  16
TORSDOF 4
