REMARK  Name = ZINC37077859
REMARK  8 active torsions:
REMARK  status: ('A' for Active; 'I' for Inactive)
REMARK    1  A    between atoms: C_1  and  C_2
REMARK    2  A    between atoms: C_2  and  C_3
REMARK    3  A    between atoms: C_3  and  C_4
REMARK    4  A    between atoms: C_9  and  S_12
REMARK    5  A    between atoms: S_12  and  C_13
REMARK    6  A    between atoms: C_16  and  N_21
REMARK    7  A    between atoms: C_17  and  O_19
REMARK    8  A    between atoms: O_19  and  C_20
REMARK                            x       y       z     vdW  Elec       q    Type
REMARK                         _______ _______ _______ _____ _____    ______ ____
ROOT
ATOM      1  S   UNL     1      -1.030  -5.026  -2.238  0.00  0.00    -0.032 S 
ENDROOT
BRANCH   1   7
ATOM      2  C   UNL     1      -1.040  -2.001   0.265  0.00  0.00    +0.049 A 
ATOM      3  C   UNL     1      -1.130  -2.582   1.497  0.00  0.00    +0.093 A 
ATOM      4  C   UNL     1      -1.193  -3.984   1.585  0.00  0.00    +0.252 A 
ATOM      5  O   UNL     1      -1.275  -4.536   2.670  0.00  0.00    -0.268 OA
ATOM      6  N   UNL     1      -1.162  -4.708   0.445  0.00  0.00    -0.302 N 
ATOM      7  C   UNL     1      -1.070  -4.073  -0.756  0.00  0.00    +0.175 A 
ATOM      8  N   UNL     1      -1.017  -2.757  -0.830  0.00  0.00    -0.228 NA
ATOM      9  H   UNL     1      -1.203  -5.676   0.482  0.00  0.00    +0.171 HD
BRANCH   2  10
ATOM     10  C   UNL     1      -0.972  -0.501   0.144  0.00  0.00    +0.055 C 
BRANCH  10  12
ATOM     11  C   UNL     1       0.568   1.460  -0.021  0.00  0.00    +0.004 C 
ATOM     12  C   UNL     1       0.487  -0.068  -0.018  0.00  0.00    +0.003 C 
ENDBRANCH  10  12
ENDBRANCH   2  10
ENDBRANCH   1   7
BRANCH   1  13
ATOM     13  C   UNL     1      -1.080  -3.820  -3.522  0.00  0.00    +0.108 A 
ATOM     14  C   UNL     1      -0.089  -3.811  -4.494  0.00  0.00    +0.037 A 
ATOM     15  C   UNL     1      -0.135  -2.860  -5.500  0.00  0.00    +0.031 A 
ATOM     16  C   UNL     1      -1.180  -1.943  -5.499  0.00  0.00    +0.087 A 
ATOM     17  C   UNL     1      -2.141  -2.010  -4.492  0.00  0.00    +0.237 A 
ATOM     18  N   UNL     1      -2.066  -2.936  -3.550  0.00  0.00    -0.205 NA
BRANCH  16  19
ATOM     19  N   UNL     1      -1.266  -0.963  -6.499  0.00  0.00    -0.354 N 
ATOM     20  H   UNL     1      -0.594  -0.922  -7.197  0.00  0.00    +0.142 HD
ATOM     21  H   UNL     1      -1.998  -0.327  -6.492  0.00  0.00    +0.142 HD
ENDBRANCH  16  19
BRANCH  17  22
ATOM     22  O   UNL     1      -3.166  -1.120  -4.481  0.00  0.00    -0.478 OA
ATOM     23  C   UNL     1      -4.053  -1.167  -3.361  0.00  0.00    +0.279 C 
ENDBRANCH  17  22
ENDBRANCH   1  13
TORSDOF 6
