REMARK  Name = ZINC06420757
REMARK  5 active torsions:
REMARK  status: ('A' for Active; 'I' for Inactive)
REMARK    1  A    between atoms: C_1  and  C_2
REMARK    2  A    between atoms: C_5  and  C_8
REMARK    3  A    between atoms: C_15  and  N_26
REMARK    4  A    between atoms: C_16  and  C_24
REMARK    5  A    between atoms: C_17  and  C_19
REMARK                            x       y       z     vdW  Elec       q    Type
REMARK                         _______ _______ _______ _____ _____    ______ ____
ROOT
ATOM      1  C   UNL     1       0.058  -4.252  -0.021  0.00  0.00    +0.074 A 
ATOM      2  C   UNL     1      -0.702  -5.070   0.745  0.00  0.00    +0.054 A 
ATOM      3  C   UNL     1      -0.372  -6.402   0.425  0.00  0.00    +0.245 A 
ATOM      4  N   UNL     1       0.548  -6.385  -0.497  0.00  0.00    -0.135 NA
ATOM      5  N   UNL     1       0.842  -5.049  -0.808  0.00  0.00    -0.273 N 
ATOM      6  H   UNL     1       1.489  -4.744  -1.464  0.00  0.00    +0.189 HD
ATOM      7  O   UNL     1      -0.972  -7.460   1.036  0.00  0.00    -0.421 OA
ATOM      8  C   UNL     1      -1.693  -7.208   2.147  0.00  0.00    +0.201 C 
ATOM      9  C   UNL     1      -2.078  -5.978   2.547  0.00  0.00    +0.099 C 
ATOM     10  C   UNL     1      -1.741  -4.724   1.781  0.00  0.00    +0.108 C 
ENDROOT
BRANCH   1  15
ATOM     11  C   UNL     1      -0.018   1.503   0.010  0.00  0.00    +0.044 C 
ATOM     12  C   UNL     1       0.002  -0.004   0.002  0.00  0.00    -0.050 A 
ATOM     13  C   UNL     1       0.006  -0.686  -1.202  0.00  0.00    +0.004 A 
ATOM     14  C   UNL     1       0.024  -2.066  -1.216  0.00  0.00    +0.010 A 
ATOM     15  C   UNL     1       0.039  -2.773  -0.013  0.00  0.00    +0.000 A 
ATOM     16  C   UNL     1       0.036  -2.079   1.197  0.00  0.00    +0.010 A 
ATOM     17  C   UNL     1       0.023  -0.699   1.198  0.00  0.00    +0.004 A 
ENDBRANCH   1  15
BRANCH  10  18
ATOM     18  C   UNL     1      -2.978  -4.194   1.103  0.00  0.00    +0.003 A 
ATOM     19  C   UNL     1      -3.573  -2.983   1.236  0.00  0.00    +0.012 A 
ATOM     20  C   UNL     1      -4.714  -2.713   0.505  0.00  0.00    +0.008 A 
ATOM     21  C   UNL     1      -5.206  -3.667  -0.323  0.00  0.00    +0.045 A 
ATOM     22  S   UNL     1      -4.038  -4.997  -0.089  0.00  0.00    -0.101 S 
ENDBRANCH  10  18
BRANCH   8  23
ATOM     23  N   UNL     1      -2.062  -8.278   2.924  0.00  0.00    -0.328 N 
ATOM     24  H   UNL     1      -1.804  -9.177   2.667  0.00  0.00    +0.145 HD
ATOM     25  H   UNL     1      -2.582  -8.135   3.730  0.00  0.00    +0.145 HD
ENDBRANCH   8  23
BRANCH   9  26
ATOM     26  C   UNL     1      -2.840  -5.859   3.753  0.00  0.00    +0.101 C 
ATOM     27  N   UNL     1      -3.445  -5.765   4.710  0.00  0.00    -0.191 NA
ENDBRANCH   9  26
TORSDOF 4
