REMARK  Name = ZINC47039581
REMARK  11 active torsions:
REMARK  status: ('A' for Active; 'I' for Inactive)
REMARK    1  A    between atoms: C_1  and  C_2
REMARK    2  A    between atoms: C_5  and  C_30
REMARK    3  A    between atoms: N_8  and  C_10
REMARK    4  A    between atoms: C_10  and  C_11
REMARK    5  A    between atoms: C_11  and  C_12
REMARK    6  A    between atoms: C_12  and  C_13
REMARK    7  A    between atoms: C_13  and  N_14
REMARK    8  A    between atoms: C_15  and  C_17
REMARK    9  A    between atoms: C_17  and  N_18
REMARK   10  A    between atoms: N_21  and  C_22
REMARK   11  A    between atoms: C_22  and  C_23
REMARK                            x       y       z     vdW  Elec       q    Type
REMARK                         _______ _______ _______ _____ _____    ______ ____
ROOT
ATOM      1  N   UNL     1       6.033  -2.576   4.436  0.00  0.00    -0.314 N 
ATOM      2  C   UNL     1       7.352  -2.312   4.518  0.00  0.00    +0.230 C 
ATOM      3  O   UNL     1       7.899  -1.676   3.642  0.00  0.00    -0.274 OA
ATOM      4  H   UNL     1       5.596  -3.085   5.136  0.00  0.00    +0.149 HD
ENDROOT
BRANCH   1   5
ATOM      5  C   UNL     1       5.260  -2.096   3.288  0.00  0.00    +0.104 C 
BRANCH   5   6
ATOM      6  C   UNL     1       3.800  -2.529   3.438  0.00  0.00    +0.017 C 
BRANCH   6   7
ATOM      7  C   UNL     1       2.993  -2.028   2.239  0.00  0.00    -0.017 C 
BRANCH   7   8
ATOM      8  C   UNL     1       1.534  -2.461   2.390  0.00  0.00    -0.079 C 
BRANCH   8  14
ATOM      9  C   UNL     1      -0.019   1.526   0.010  0.00  0.00    +0.005 C 
ATOM     10  C   UNL     1       0.002  -0.004   0.002  0.00  0.00    -0.031 C 
ATOM     11  C   UNL     1      -1.434  -0.535   0.015  0.00  0.00    +0.003 C 
ATOM     12  C   UNL     1      -1.402  -2.064   0.086  0.00  0.00    -0.031 C 
ATOM     13  C   UNL     1      -0.613  -2.496   1.324  0.00  0.00    -0.076 C 
ATOM     14  N   UNL     1       0.758  -1.980   1.239  0.00  0.00    +0.380 N 
ATOM     15  C   UNL     1       0.740  -0.512   1.242  0.00  0.00    -0.076 C 
ATOM     16  C   UNL     1      -2.832  -2.602   0.177  0.00  0.00    +0.005 C 
ATOM     17  H   UNL     1       1.188  -2.307   0.386  0.00  0.00    -0.082 HD
ENDBRANCH   8  14
ENDBRANCH   7   8
ENDBRANCH   6   7
ENDBRANCH   5   6
ENDBRANCH   1   5
BRANCH   2  18
ATOM     18  C   UNL     1       8.147  -2.805   5.699  0.00  0.00    +0.201 C 
BRANCH  18  19
ATOM     19  N   UNL     1       9.545  -2.391   5.555  0.00  0.00    -0.291 N 
ATOM     20  C   UNL     1      10.447  -2.722   6.500  0.00  0.00    +0.300 C 
ATOM     21  O   UNL     1      10.101  -3.366   7.471  0.00  0.00    -0.253 OA
ATOM     22  N   UNL     1      11.733  -2.341   6.367  0.00  0.00    -0.295 N 
ATOM     23  H   UNL     1       9.821  -1.877   4.780  0.00  0.00    +0.151 HD
ATOM     24  H   UNL     1      12.009  -1.827   5.591  0.00  0.00    +0.151 HD
BRANCH  22  25
ATOM     25  C   UNL     1      12.714  -2.701   7.393  0.00  0.00    +0.141 C 
BRANCH  25  26
ATOM     26  C   UNL     1      14.066  -2.159   7.009  0.00  0.00    -0.030 A 
ATOM     27  C   UNL     1      14.924  -2.924   6.241  0.00  0.00    +0.008 A 
ATOM     28  C   UNL     1      16.164  -2.427   5.887  0.00  0.00    +0.038 A 
ATOM     29  C   UNL     1      16.547  -1.163   6.302  0.00  0.00    +0.123 A 
ATOM     30  C   UNL     1      15.687  -0.397   7.072  0.00  0.00    +0.038 A 
ATOM     31  C   UNL     1      14.445  -0.894   7.419  0.00  0.00    +0.008 A 
ATOM     32  F   UNL     1      17.759  -0.676   5.958  0.00  0.00    -0.205 F 
ENDBRANCH  25  26
ENDBRANCH  22  25
ENDBRANCH  18  19
ENDBRANCH   2  18
TORSDOF 9
