REMARK  Name = ZINC20058331
REMARK  5 active torsions:
REMARK  status: ('A' for Active; 'I' for Inactive)
REMARK    1  A    between atoms: N_9  and  N_27
REMARK    2  A    between atoms: C_10  and  C_12
REMARK    3  A    between atoms: C_15  and  C_18
REMARK    4  A    between atoms: C_18  and  O_19
REMARK    5  A    between atoms: O_19  and  C_20
REMARK                            x       y       z     vdW  Elec       q    Type
REMARK                         _______ _______ _______ _____ _____    ______ ____
ROOT
ATOM      1  C   UNL     1      -0.346   3.643  -0.072  0.00  0.00    +0.019 A 
ATOM      2  C   UNL     1       0.473   3.076   0.906  0.00  0.00    +0.012 A 
ATOM      3  C   UNL     1       1.027   3.875   1.885  0.00  0.00    +0.007 A 
ATOM      4  C   UNL     1       0.762   5.233   1.906  0.00  0.00    -0.010 A 
ATOM      5  C   UNL     1      -0.053   5.800   0.943  0.00  0.00    +0.007 A 
ATOM      6  C   UNL     1      -0.608   5.013  -0.046  0.00  0.00    +0.012 A 
ENDROOT
BRANCH   1  16
ATOM      7  C   UNL     1      -3.900   0.850  -4.547  0.00  0.00    +0.001 A 
ATOM      8  C   UNL     1      -4.541   1.977  -4.050  0.00  0.00    +0.002 A 
ATOM      9  C   UNL     1      -3.964   2.743  -3.077  0.00  0.00    +0.028 A 
ATOM     10  C   UNL     1      -2.710   2.393  -2.570  0.00  0.00    +0.079 A 
ATOM     11  C   UNL     1      -2.056   1.245  -3.074  0.00  0.00    +0.066 A 
ATOM     12  C   UNL     1      -2.663   0.478  -4.066  0.00  0.00    +0.015 A 
ATOM     13  C   UNL     1      -0.738   0.898  -2.522  0.00  0.00    +0.279 A 
ATOM     14  O   UNL     1      -0.125  -0.077  -2.916  0.00  0.00    -0.265 OA
ATOM     15  N   UNL     1      -0.231   1.705  -1.561  0.00  0.00    -0.214 N 
ATOM     16  C   UNL     1      -0.937   2.794  -1.129  0.00  0.00    +0.161 A 
ATOM     17  N   UNL     1      -2.108   3.123  -1.610  0.00  0.00    -0.227 NA
BRANCH  15  18
ATOM     18  N   UNL     1       0.990   1.427  -1.015  0.00  0.00    -0.294 N 
ATOM     19  H   UNL     1       1.404   2.080  -0.234  0.00  0.00    +0.163 HD
ATOM     20  H   UNL     1       1.558   0.550  -1.357  0.00  0.00    +0.163 HD
ENDBRANCH  15  18
ENDBRANCH   1  16
BRANCH   4  21
ATOM     21  C   UNL     1       1.365   6.098   2.982  0.00  0.00    +0.264 C 
BRANCH  21  22
ATOM     22  O   UNL     1       0.480   6.150   4.103  0.00  0.00    -0.486 OA
BRANCH  22  23
ATOM     23  C   UNL     1       0.877   6.895   5.168  0.00  0.00    +0.135 A 
ATOM     24  C   UNL     1       2.096   7.556   5.138  0.00  0.00    +0.047 A 
ATOM     25  C   UNL     1       2.495   8.317   6.220  0.00  0.00    +0.004 A 
ATOM     26  C   UNL     1       1.686   8.410   7.338  0.00  0.00    +0.001 A 
ATOM     27  C   UNL     1       0.473   7.748   7.373  0.00  0.00    +0.019 A 
ATOM     28  C   UNL     1       0.067   6.990   6.291  0.00  0.00    +0.059 A 
ATOM     29 BR   UNL     1      -1.592   6.083   6.340  0.00  0.00    -0.047 Br
ENDBRANCH  22  23
ENDBRANCH  21  22
ENDBRANCH   4  21
TORSDOF 5
