REMARK  Name = ZINC12571288
REMARK  6 active torsions:
REMARK  status: ('A' for Active; 'I' for Inactive)
REMARK    1  A    between atoms: C_1  and  O_2
REMARK    2  A    between atoms: O_2  and  C_3
REMARK    3  A    between atoms: C_6  and  C_17
REMARK    4  A    between atoms: C_8  and  O_9
REMARK    5  A    between atoms: O_9  and  C_10
REMARK    6  A    between atoms: C_10  and  C_11
REMARK                            x       y       z     vdW  Elec       q    Type
REMARK                         _______ _______ _______ _____ _____    ______ ____
ROOT
ATOM      1  C   UNL     1       2.590  -2.548   4.315  0.00  0.00    +0.209 C 
ATOM      2  N   UNL     1       3.805  -1.796   4.680  0.00  0.00    -0.294 N 
ATOM      3  C   UNL     1       3.655  -0.668   5.474  0.00  0.00    +0.159 C 
ATOM      4  N   UNL     1       2.925  -0.831   6.652  0.00  0.00    -0.259 N 
ATOM      5  C   UNL     1       1.874  -1.741   6.576  0.00  0.00    +0.205 A 
ATOM      6  N   UNL     1       1.704  -2.566   5.485  0.00  0.00    -0.288 N 
ATOM      7  C   UNL     1       0.603  -3.336   5.728  0.00  0.00    +0.072 A 
ATOM      8  C   UNL     1      -0.033  -4.334   4.998  0.00  0.00    +0.028 A 
ATOM      9  C   UNL     1      -1.156  -4.913   5.566  0.00  0.00    +0.002 A 
ATOM     10  C   UNL     1      -1.635  -4.525   6.806  0.00  0.00    +0.002 A 
ATOM     11  C   UNL     1      -1.021  -3.536   7.552  0.00  0.00    +0.030 A 
ATOM     12  C   UNL     1       0.116  -2.937   6.998  0.00  0.00    +0.091 A 
ATOM     13  N   UNL     1       0.935  -1.962   7.454  0.00  0.00    -0.214 NA
ATOM     14  N   UNL     1       4.170   0.481   5.139  0.00  0.00    -0.375 N 
ATOM     15  H   UNL     1       4.680  -2.080   4.374  0.00  0.00    +0.151 HD
ATOM     16  H   UNL     1       4.673   0.565   4.314  0.00  0.00    +0.158 HD
ATOM     17  H   UNL     1       3.135  -0.346   7.465  0.00  0.00    +0.158 HD
ATOM     18  H   UNL     1       4.049   1.253   5.714  0.00  0.00    +0.158 HD
ENDROOT
BRANCH   1  22
ATOM     19  C   UNL     1       0.626  -0.619   1.042  0.00  0.00    +0.162 A 
ATOM     20  C   UNL     1       1.202   0.137   2.051  0.00  0.00    +0.050 A 
ATOM     21  C   UNL     1       1.836  -0.490   3.108  0.00  0.00    +0.011 A 
ATOM     22  C   UNL     1       1.897  -1.870   3.161  0.00  0.00    -0.003 A 
ATOM     23  C   UNL     1       1.325  -2.630   2.158  0.00  0.00    +0.056 A 
ATOM     24  C   UNL     1       0.683  -2.008   1.099  0.00  0.00    +0.163 A 
BRANCH  19  26
ATOM     25  C   UNL     1      -0.017   1.425   0.010  0.00  0.00    +0.277 C 
ATOM     26  O   UNL     1       0.002  -0.004   0.002  0.00  0.00    -0.491 OA
ENDBRANCH  19  26
BRANCH  24  27
ATOM     27  O   UNL     1       0.115  -2.754   0.114  0.00  0.00    -0.484 OA
BRANCH  27  28
ATOM     28  C   UNL     1       0.211  -4.174   0.238  0.00  0.00    +0.264 C 
BRANCH  28  29
ATOM     29  C   UNL     1      -0.470  -4.829  -0.936  0.00  0.00    -0.010 A 
ATOM     30  C   UNL     1      -1.815  -5.141  -0.868  0.00  0.00    +0.007 A 
ATOM     31  C   UNL     1      -2.440  -5.741  -1.945  0.00  0.00    +0.000 A 
ATOM     32  C   UNL     1      -1.721  -6.029  -3.090  0.00  0.00    +0.000 A 
ATOM     33  C   UNL     1      -0.376  -5.716  -3.158  0.00  0.00    +0.000 A 
ATOM     34  C   UNL     1       0.248  -5.112  -2.083  0.00  0.00    +0.007 A 
ENDBRANCH  28  29
ENDBRANCH  27  28
ENDBRANCH  24  27
ENDBRANCH   1  22
TORSDOF 5
