REMARK  Name = ZINC66967150
REMARK  10 active torsions:
REMARK  status: ('A' for Active; 'I' for Inactive)
REMARK    1  A    between atoms: C_1  and  C_2
REMARK    2  A    between atoms: C_2  and  C_3
REMARK    3  A    between atoms: C_3  and  C_4
REMARK    4  A    between atoms: C_4  and  N_5
REMARK    5  A    between atoms: C_11  and  N_14
REMARK    6  A    between atoms: N_14  and  C_15
REMARK    7  A    between atoms: C_15  and  C_17
REMARK    8  A    between atoms: C_15  and  C_18
REMARK    9  A    between atoms: N_23  and  C_24
REMARK   10  A    between atoms: C_24  and  C_25
REMARK                            x       y       z     vdW  Elec       q    Type
REMARK                         _______ _______ _______ _____ _____    ______ ____
ROOT
ATOM      1  N   UNL     1       2.008  -6.796  -1.465  0.00  0.00    -0.333 N 
ATOM      2  H   UNL     1       1.148  -6.655  -1.891  0.00  0.00    +0.147 HD
ENDROOT
BRANCH   1   9
ATOM      3  N   UNL     1       1.427  -2.501  -2.474  0.00  0.00    +0.385 N 
ATOM      4  C   UNL     1       2.878  -2.220  -2.390  0.00  0.00    -0.042 C 
ATOM      5  C   UNL     1       3.496  -3.448  -1.760  0.00  0.00    -0.061 A 
ATOM      6  C   UNL     1       4.720  -3.653  -1.152  0.00  0.00    +0.002 A 
ATOM      7  C   UNL     1       5.046  -4.898  -0.647  0.00  0.00    +0.002 A 
ATOM      8  C   UNL     1       4.149  -5.943  -0.749  0.00  0.00    +0.023 A 
ATOM      9  C   UNL     1       2.917  -5.742  -1.359  0.00  0.00    +0.029 A 
ATOM     10  C   UNL     1       2.592  -4.490  -1.865  0.00  0.00    -0.042 A 
ATOM     11  C   UNL     1       1.356  -3.977  -2.567  0.00  0.00    -0.040 C 
ATOM     12  H   UNL     1       1.029  -2.075  -3.297  0.00  0.00    -0.081 HD
BRANCH   3  13
ATOM     13  C   UNL     1       0.739  -2.027  -1.265  0.00  0.00    -0.078 C 
BRANCH  13  14
ATOM     14  C   UNL     1       0.718  -0.497  -1.257  0.00  0.00    -0.019 C 
BRANCH  14  16
ATOM     15  C   UNL     1      -0.019   1.526   0.010  0.00  0.00    +0.004 C 
ATOM     16  C   UNL     1       0.002  -0.004   0.002  0.00  0.00    -0.005 C 
ENDBRANCH  14  16
ENDBRANCH  13  14
ENDBRANCH   3  13
ENDBRANCH   1   9
BRANCH   1  17
ATOM     17  C   UNL     1       2.352  -8.117  -0.931  0.00  0.00    +0.154 C 
ATOM     18  C   UNL     1       2.014  -8.168   0.560  0.00  0.00    +0.038 C 
BRANCH  17  19
ATOM     19  C   UNL     1       1.565  -9.174  -1.661  0.00  0.00    +0.240 C 
ATOM     20  O   UNL     1       0.792  -8.857  -2.540  0.00  0.00    -0.273 OA
ATOM     21  N   UNL     1       1.719 -10.473  -1.336  0.00  0.00    -0.239 N 
ATOM     22  C   UNL     1       1.015 -11.419  -1.989  0.00  0.00    +0.306 C 
ATOM     23  O   UNL     1       0.241 -11.101  -2.870  0.00  0.00    -0.252 OA
ATOM     24  N   UNL     1       1.169 -12.718  -1.664  0.00  0.00    -0.296 N 
ATOM     25  H   UNL     1       2.337 -10.727  -0.633  0.00  0.00    +0.159 HD
ATOM     26  H   UNL     1       1.787 -12.972  -0.961  0.00  0.00    +0.151 HD
BRANCH  24  27
ATOM     27  C   UNL     1       0.404 -13.746  -2.374  0.00  0.00    +0.132 C 
BRANCH  27  28
ATOM     28  C   UNL     1       0.758 -15.104  -1.825  0.00  0.00    -0.016 C 
ATOM     29  C   UNL     1      -0.185 -15.896  -1.378  0.00  0.00    +0.005 C 
ENDBRANCH  27  28
ENDBRANCH  24  27
ENDBRANCH  17  19
ENDBRANCH   1  17
TORSDOF 8
