REMARK  Name = ZINC53004703
REMARK  7 active torsions:
REMARK  status: ('A' for Active; 'I' for Inactive)
REMARK    1  A    between atoms: C_1  and  C_2
REMARK    2  A    between atoms: C_5  and  N_21
REMARK    3  A    between atoms: C_6  and  C_8
REMARK    4  A    between atoms: N_10  and  C_11
REMARK    5  A    between atoms: N_10  and  C_12
REMARK    6  A    between atoms: C_18  and  C_20
REMARK    7  A    between atoms: N_21  and  C_22
REMARK                            x       y       z     vdW  Elec       q    Type
REMARK                         _______ _______ _______ _____ _____    ______ ____
ROOT
ATOM      1  C   UNL     1      -0.965  -1.282   2.424  0.00  0.00    +0.248 C 
ATOM      2  O   UNL     1      -0.663  -2.296   1.825  0.00  0.00    -0.270 OA
ATOM      3  N   UNL     1      -1.016  -1.284   3.770  0.00  0.00    -0.297 N 
ATOM      4  C   UNL     1      -1.471  -0.091   4.488  0.00  0.00    +0.132 C 
ENDROOT
BRANCH   1  10
ATOM      5  C   UNL     1      -4.011   2.559   1.516  0.00  0.00    +0.044 C 
ATOM      6  C   UNL     1      -2.738   1.804   1.234  0.00  0.00    -0.050 A 
ATOM      7  C   UNL     1      -1.859   2.271   0.270  0.00  0.00    +0.005 A 
ATOM      8  C   UNL     1      -0.690   1.589   0.001  0.00  0.00    +0.024 A 
ATOM      9  C   UNL     1      -0.387   0.426   0.699  0.00  0.00    +0.039 A 
ATOM     10  C   UNL     1      -1.275  -0.049   1.676  0.00  0.00    +0.058 A 
ATOM     11  C   UNL     1      -2.452   0.656   1.940  0.00  0.00    +0.018 A 
BRANCH   9  12
ATOM     12  N   UNL     1       0.789  -0.263   0.429  0.00  0.00    -0.346 N 
ATOM     13  C   UNL     1       1.653   0.166  -0.673  0.00  0.00    +0.125 C 
ATOM     14  H   UNL     1       1.038  -1.028   0.971  0.00  0.00    +0.146 HD
ENDBRANCH   9  12
ENDBRANCH   1  10
BRANCH   3  15
ATOM     15  C   UNL     1      -0.616  -2.480   4.517  0.00  0.00    +0.079 C 
ATOM     16  C   UNL     1      -1.672  -3.572   4.334  0.00  0.00    +0.023 C 
ATOM     17  C   UNL     1      -3.019  -3.071   4.857  0.00  0.00    +0.002 C 
ATOM     18  C   UNL     1      -2.893  -2.727   6.343  0.00  0.00    +0.000 C 
ATOM     19  C   UNL     1      -1.837  -1.635   6.526  0.00  0.00    +0.005 C 
ATOM     20  C   UNL     1      -0.490  -2.135   6.002  0.00  0.00    +0.006 C 
ATOM     21  C   UNL     1       0.566  -1.043   6.185  0.00  0.00    +0.009 C 
ENDBRANCH   3  15
TORSDOF 3
