REMARK  Name = ZINC01360943
REMARK  3 active torsions:
REMARK  status: ('A' for Active; 'I' for Inactive)
REMARK    1  A    between atoms: C_4  and  N_7
REMARK    2  A    between atoms: C_8  and  S_12
REMARK    3  A    between atoms: S_12  and  C_13
REMARK                            x       y       z     vdW  Elec       q    Type
REMARK                         _______ _______ _______ _____ _____    ______ ____
ROOT
ATOM      1  N   UNL     1       1.353  -0.394  -0.013  0.00  0.00    -0.187 N 
ATOM      2  C   UNL     1       2.059   0.771  -0.013  0.00  0.00    +0.221 A 
ATOM      3  N   UNL     1       1.181   1.751   0.000  0.00  0.00    -0.101 NA
ATOM      4  N   UNL     1      -0.015   1.285   0.009  0.00  0.00    -0.022 NA
ATOM      5  N   UNL     1       0.002  -0.004   0.002  0.00  0.00    -0.038 NA
ENDROOT
BRANCH   1   9
ATOM      6  C   UNL     1       2.870  -4.277  -0.048  0.00  0.00    +0.000 A 
ATOM      7  C   UNL     1       1.711  -3.995   0.652  0.00  0.00    +0.002 A 
ATOM      8  C   UNL     1       1.206  -2.709   0.666  0.00  0.00    +0.028 A 
ATOM      9  C   UNL     1       1.863  -1.700  -0.025  0.00  0.00    +0.070 A 
ATOM     10  C   UNL     1       3.024  -1.987  -0.731  0.00  0.00    +0.028 A 
ATOM     11  C   UNL     1       3.527  -3.273  -0.737  0.00  0.00    +0.002 A 
ENDBRANCH   1   9
BRANCH   2  12
ATOM     12  S   UNL     1       3.813   0.935  -0.030  0.00  0.00    -0.019 S 
BRANCH  12  13
ATOM     13  C   UNL     1       3.956   2.692  -0.021  0.00  0.00    +0.167 A 
ATOM     14  N   UNL     1       3.007   3.607  -0.007  0.00  0.00    -0.133 NA
ATOM     15  N   UNL     1       3.344   4.941  -0.002  0.00  0.00    -0.125 NA
ATOM     16  C   UNL     1       4.614   5.298  -0.013  0.00  0.00    +0.180 A 
ATOM     17  S   UNL     1       5.426   3.707  -0.023  0.00  0.00    -0.024 S 
ATOM     18  N   UNL     1       5.171   6.571  -0.011  0.00  0.00    -0.336 N 
ATOM     19  H   UNL     1       4.596   7.352  -0.001  0.00  0.00    +0.144 HD
ATOM     20  H   UNL     1       6.135   6.679  -0.020  0.00  0.00    +0.144 HD
ENDBRANCH  12  13
ENDBRANCH   2  12
TORSDOF 3
