REMARK  Name = ZINC67241119
REMARK  6 active torsions:
REMARK  status: ('A' for Active; 'I' for Inactive)
REMARK    1  A    between atoms: C_1  and  C_2
REMARK    2  A    between atoms: N_6  and  C_14
REMARK    3  A    between atoms: C_14  and  C_15
REMARK    4  A    between atoms: N_17  and  C_18
REMARK    5  A    between atoms: C_21  and  C_24
REMARK    6  A    between atoms: C_24  and  N_25
REMARK                            x       y       z     vdW  Elec       q    Type
REMARK                         _______ _______ _______ _____ _____    ______ ____
ROOT
ATOM      1  C   UNL     1      -3.245  -3.085  -0.695  0.00  0.00    +0.235 C 
ATOM      2  O   UNL     1      -2.343  -3.200  -1.497  0.00  0.00    -0.274 OA
ATOM      3  N   UNL     1      -4.430  -3.685  -0.922  0.00  0.00    -0.284 N 
ATOM      4  H   UNL     1      -5.129  -3.649  -0.250  0.00  0.00    +0.155 HD
ENDROOT
BRANCH   3   5
ATOM      5  C   UNL     1      -4.653  -4.359  -2.128  0.00  0.00    +0.033 A 
ATOM      6  C   UNL     1      -5.911  -4.338  -2.715  0.00  0.00    +0.023 A 
ATOM      7  C   UNL     1      -6.128  -5.005  -3.905  0.00  0.00    +0.007 A 
ATOM      8  C   UNL     1      -5.093  -5.692  -4.512  0.00  0.00    -0.030 A 
ATOM      9  C   UNL     1      -3.839  -5.715  -3.930  0.00  0.00    +0.007 A 
ATOM     10  C   UNL     1      -3.614  -5.046  -2.743  0.00  0.00    +0.023 A 
BRANCH   8  11
ATOM     11  C   UNL     1      -5.333  -6.418  -5.811  0.00  0.00    +0.141 C 
BRANCH  11  12
ATOM     12  N   UNL     1      -5.065  -5.515  -6.932  0.00  0.00    -0.295 N 
ATOM     13  C   UNL     1      -5.215  -5.950  -8.199  0.00  0.00    +0.297 C 
ATOM     14  O   UNL     1      -5.572  -7.093  -8.411  0.00  0.00    -0.253 OA
ATOM     15  N   UNL     1      -4.968  -5.119  -9.231  0.00  0.00    -0.313 N 
ATOM     16  H   UNL     1      -4.781  -4.603  -6.763  0.00  0.00    +0.151 HD
ATOM     17  H   UNL     1      -4.684  -4.207  -9.062  0.00  0.00    +0.146 HD
ATOM     18  H   UNL     1      -5.076  -5.432 -10.142  0.00  0.00    +0.146 HD
ENDBRANCH  11  12
ENDBRANCH   8  11
ENDBRANCH   3   5
BRANCH   1  19
ATOM     19  C   UNL     1      -3.040  -2.271   0.557  0.00  0.00    +0.209 C 
BRANCH  19  24
ATOM     20  C   UNL     1      -0.028   1.531   0.026  0.00  0.00    +0.062 C 
ATOM     21  C   UNL     1      -0.003   0.001   0.008  0.00  0.00    +0.256 C 
ATOM     22  C   UNL     1      -1.417  -0.524   0.019  0.00  0.00    +0.261 C 
ATOM     23  O   UNL     1      -2.314   0.134  -0.465  0.00  0.00    -0.271 OA
ATOM     24  N   UNL     1      -1.680  -1.729   0.570  0.00  0.00    -0.256 N 
ATOM     25  C   UNL     1      -0.630  -2.452   1.155  0.00  0.00    +0.079 A 
ATOM     26  C   UNL     1      -0.773  -3.800   1.440  0.00  0.00    +0.027 A 
ATOM     27  C   UNL     1       0.274  -4.494   2.018  0.00  0.00    +0.002 A 
ATOM     28  C   UNL     1       1.461  -3.847   2.310  0.00  0.00    +0.004 A 
ATOM     29  C   UNL     1       1.610  -2.502   2.027  0.00  0.00    +0.047 A 
ATOM     30  C   UNL     1       0.566  -1.800   1.448  0.00  0.00    +0.143 A 
ATOM     31  O   UNL     1       0.695  -0.477   1.161  0.00  0.00    -0.478 OA
ENDBRANCH  19  24
ENDBRANCH   1  19
TORSDOF 5
