REMARK  Name = ZINC14457156
REMARK  10 active torsions:
REMARK  status: ('A' for Active; 'I' for Inactive)
REMARK    1  A    between atoms: C_1  and  C_2
REMARK    2  A    between atoms: C_2  and  O_3
REMARK    3  A    between atoms: O_3  and  C_4
REMARK    4  A    between atoms: C_7  and  N_10
REMARK    5  A    between atoms: N_10  and  S_11
REMARK    6  A    between atoms: S_11  and  C_14
REMARK    7  A    between atoms: C_27  and  C_30
REMARK    8  A    between atoms: C_33  and  O_37
REMARK    9  A    between atoms: C_34  and  O_36
REMARK   10  A    between atoms: O_37  and  C_38
REMARK                            x       y       z     vdW  Elec       q    Type
REMARK                         _______ _______ _______ _____ _____    ______ ____
ROOT
ATOM      1  C   UNL     1       4.311   0.307  -2.614  0.00  0.00    +0.109 A 
ATOM      2  C   UNL     1       3.819   0.054  -3.881  0.00  0.00    +0.030 A 
ATOM      3  C   UNL     1       2.502   0.334  -4.182  0.00  0.00    +0.025 A 
ATOM      4  C   UNL     1       1.660   0.871  -3.216  0.00  0.00    +0.031 A 
ATOM      5  C   UNL     1       2.169   1.137  -1.940  0.00  0.00    -0.018 A 
ATOM      6  C   UNL     1       3.484   0.848  -1.647  0.00  0.00    +0.034 A 
ATOM      7  C   UNL     1       1.247   1.732  -0.948  0.00  0.00    +0.049 C 
ATOM      8  C   UNL     1       1.440   1.553   0.513  0.00  0.00    -0.023 C 
ATOM      9  C   UNL     1       0.251   1.561   1.103  0.00  0.00    -0.030 C 
ATOM     10  C   UNL     1      -0.852   1.715   0.053  0.00  0.00    +0.033 C 
ATOM     11  C   UNL     1      -0.172   1.138  -1.196  0.00  0.00    +0.029 C 
ATOM     12  C   UNL     1      -0.604   1.671  -2.551  0.00  0.00    +0.105 C 
ATOM     13  N   UNL     1       0.318   1.112  -3.534  0.00  0.00    -0.336 N 
ATOM     14  H   UNL     1      -0.007   0.896  -4.422  0.00  0.00    +0.147 HD
ENDROOT
BRANCH  12  15
ATOM     15  C   UNL     1      -2.016   1.242  -2.853  0.00  0.00    -0.023 A 
ATOM     16  C   UNL     1      -2.263  -0.034  -3.325  0.00  0.00    +0.009 A 
ATOM     17  C   UNL     1      -3.557  -0.433  -3.604  0.00  0.00    +0.050 A 
ATOM     18  C   UNL     1      -4.610   0.446  -3.411  0.00  0.00    +0.161 A 
ATOM     19  C   UNL     1      -4.362   1.730  -2.935  0.00  0.00    +0.159 A 
ATOM     20  C   UNL     1      -3.063   2.122  -2.653  0.00  0.00    +0.054 A 
BRANCH  19  21
ATOM     21  O   UNL     1      -5.392   2.597  -2.744  0.00  0.00    -0.503 OA
ATOM     22  H   UNL     1      -5.779   2.558  -1.859  0.00  0.00    +0.292 HD
ENDBRANCH  19  21
BRANCH  18  23
ATOM     23  O   UNL     1      -5.883   0.056  -3.685  0.00  0.00    -0.491 OA
ATOM     24  C   UNL     1      -6.063  -1.276  -4.170  0.00  0.00    +0.277 C 
ENDBRANCH  18  23
ENDBRANCH  12  15
BRANCH   1  25
ATOM     25  S   UNL     1       5.991  -0.062  -2.230  0.00  0.00    +0.072 S 
ATOM     26  O   UNL     1       6.675  -0.176  -3.471  0.00  0.00    -0.150 OA
ATOM     27  O   UNL     1       6.389   0.858  -1.223  0.00  0.00    -0.150 OA
BRANCH  25  28
ATOM     28  N   UNL     1       6.016  -1.565  -1.535  0.00  0.00    -0.216 N 
ATOM     29  H   UNL     1       6.311  -1.669  -0.617  0.00  0.00    +0.174 HD
BRANCH  28  33
ATOM     30  C   UNL     1       4.815  -4.897  -3.732  0.00  0.00    +0.121 A 
ATOM     31  C   UNL     1       6.040  -4.301  -3.991  0.00  0.00    +0.047 A 
ATOM     32  C   UNL     1       6.439  -3.197  -3.264  0.00  0.00    +0.028 A 
ATOM     33  C   UNL     1       5.613  -2.683  -2.273  0.00  0.00    +0.048 A 
ATOM     34  C   UNL     1       4.389  -3.284  -2.010  0.00  0.00    +0.028 A 
ATOM     35  C   UNL     1       3.989  -4.385  -2.743  0.00  0.00    +0.047 A 
BRANCH  30  36
ATOM     36  O   UNL     1       4.423  -5.985  -4.448  0.00  0.00    -0.492 OA
BRANCH  36  38
ATOM     37  C   UNL     1       2.883  -7.754  -5.031  0.00  0.00    +0.048 C 
ATOM     38  C   UNL     1       3.149  -6.548  -4.128  0.00  0.00    +0.225 C 
ENDBRANCH  36  38
ENDBRANCH  30  36
ENDBRANCH  28  33
ENDBRANCH  25  28
ENDBRANCH   1  25
TORSDOF 8
