REMARK  Name = ZINC41910367
REMARK  5 active torsions:
REMARK  status: ('A' for Active; 'I' for Inactive)
REMARK    1  A    between atoms: C_1  and  C_2
REMARK    2  A    between atoms: C_5  and  C_11
REMARK    3  A    between atoms: C_5  and  N_14
REMARK    4  A    between atoms: C_7  and  C_9
REMARK    5  A    between atoms: C_7  and  C_10
REMARK                            x       y       z     vdW  Elec       q    Type
REMARK                         _______ _______ _______ _____ _____    ______ ____
ROOT
ATOM      1  C   UNL     1      -0.004   1.517   0.050  0.00  0.00    +0.007 C 
ATOM      2  C   UNL     1       0.011  -0.009   0.037  0.00  0.00    -0.011 C 
ATOM      3  C   UNL     1      -1.391  -0.588   0.017  0.00  0.00    +0.045 C 
ATOM      4  C   UNL     1      -2.063  -0.590   1.383  0.00  0.00    +0.167 C 
ATOM      5  C   UNL     1      -1.184  -1.251   2.432  0.00  0.00    +0.048 C 
ATOM      6  C   UNL     1       0.229  -0.699   2.495  0.00  0.00    -0.032 C 
ATOM      7  C   UNL     1       0.886  -0.578   1.133  0.00  0.00    +0.010 C 
ATOM      8  C   UNL     1       1.075  -1.694   3.328  0.00  0.00    +0.011 C 
ATOM      9  C   UNL     1       0.263   0.638   3.240  0.00  0.00    +0.011 C 
ENDROOT
BRANCH   4  10
ATOM     10  N   UNL     1      -2.455   0.763   1.786  0.00  0.00    -0.227 N 
ATOM     11  C   UNL     1      -2.965   1.143   3.005  0.00  0.00    +0.090 A 
ATOM     12  C   UNL     1      -3.266   0.464   4.181  0.00  0.00    +0.029 A 
ATOM     13  C   UNL     1      -3.776   1.147   5.248  0.00  0.00    +0.002 A 
ATOM     14  C   UNL     1      -3.998   2.516   5.170  0.00  0.00    +0.002 A 
ATOM     15  C   UNL     1      -3.712   3.205   4.029  0.00  0.00    +0.032 A 
ATOM     16  C   UNL     1      -3.187   2.528   2.920  0.00  0.00    +0.113 A 
ATOM     17  N   UNL     1      -2.814   2.928   1.687  0.00  0.00    -0.129 NA
ATOM     18  N   UNL     1      -2.380   1.927   1.006  0.00  0.00    -0.064 NA
ENDBRANCH   4  10
BRANCH   4  19
ATOM     19  C   UNL     1      -3.340  -1.412   1.265  0.00  0.00    +0.383 C 
ATOM     20  O   UNL     1      -3.642  -1.920   0.199  0.00  0.00    -0.244 OA
ATOM     21  O   UNL     1      -4.060  -1.562   2.238  0.00  0.00    -0.244 OA
ENDBRANCH   4  19
TORSDOF 2
