REMARK  Name = ZINC44977859
REMARK  4 active torsions:
REMARK  status: ('A' for Active; 'I' for Inactive)
REMARK    1  A    between atoms: C_1  and  C_2
REMARK    2  A    between atoms: C_7  and  C_10
REMARK    3  A    between atoms: C_12  and  C_15
REMARK    4  A    between atoms: C_18  and  N_21
REMARK                            x       y       z     vdW  Elec       q    Type
REMARK                         _______ _______ _______ _____ _____    ______ ____
ROOT
ATOM      1  C   UNL     1       1.492  -2.540   2.454  0.00  0.00    +0.175 A 
ATOM      2  N   UNL     1       2.595  -3.291   2.443  0.00  0.00    -0.192 NA
ATOM      3  C   UNL     1       2.973  -3.551   3.676  0.00  0.00    +0.258 A 
ATOM      4  O   UNL     1       2.101  -2.959   4.511  0.00  0.00    -0.333 OA
ATOM      5  N   UNL     1       1.149  -2.302   3.688  0.00  0.00    -0.061 NA
ENDROOT
BRANCH   1  11
ATOM      6  C   UNL     1      -0.019   1.526   0.010  0.00  0.00    +0.007 C 
ATOM      7  C   UNL     1       0.002  -0.004   0.002  0.00  0.00    -0.013 C 
ATOM      8  C   UNL     1      -1.433  -0.534   0.013  0.00  0.00    +0.003 C 
ATOM      9  C   UNL     1      -1.413  -2.063   0.004  0.00  0.00    +0.001 C 
ATOM     10  C   UNL     1      -0.673  -2.570   1.244  0.00  0.00    +0.011 C 
ATOM     11  C   UNL     1       0.763  -2.041   1.233  0.00  0.00    +0.061 C 
ATOM     12  C   UNL     1       0.742  -0.511   1.242  0.00  0.00    +0.014 C 
ENDBRANCH   1  11
BRANCH   3  13
ATOM     13  C   UNL     1       4.148  -4.352   4.072  0.00  0.00    +0.040 A 
ATOM     14  C   UNL     1       4.977  -4.909   3.096  0.00  0.00    +0.015 A 
ATOM     15  C   UNL     1       6.072  -5.656   3.469  0.00  0.00    +0.023 A 
ATOM     16  C   UNL     1       6.353  -5.857   4.817  0.00  0.00    +0.025 A 
ATOM     17  C   UNL     1       5.528  -5.304   5.792  0.00  0.00    +0.023 A 
ATOM     18  C   UNL     1       4.435  -4.551   5.426  0.00  0.00    +0.015 A 
BRANCH  16  19
ATOM     19  N   UNL     1       7.460  -6.613   5.191  0.00  0.00    -0.358 N 
ATOM     20  H   UNL     1       8.036  -6.999   4.512  0.00  0.00    +0.142 HD
ATOM     21  H   UNL     1       7.657  -6.754   6.131  0.00  0.00    +0.142 HD
ENDBRANCH  16  19
ENDBRANCH   3  13
TORSDOF 3
