REMARK  Name = ZINC12887610
REMARK  11 active torsions:
REMARK  status: ('A' for Active; 'I' for Inactive)
REMARK    1  A    between atoms: C_1  and  C_2
REMARK    2  A    between atoms: C_2  and  C_3
REMARK    3  A    between atoms: C_3  and  C_5
REMARK    4  A    between atoms: C_3  and  C_6
REMARK    5  A    between atoms: C_6  and  C_8
REMARK    6  A    between atoms: C_6  and  N_16
REMARK    7  A    between atoms: N_10  and  C_11
REMARK    8  A    between atoms: C_11  and  C_13
REMARK    9  A    between atoms: C_11  and  C_14
REMARK   10  A    between atoms: C_14  and  C_15
REMARK   11  A    between atoms: C_17  and  C_19
REMARK                            x       y       z     vdW  Elec       q    Type
REMARK                         _______ _______ _______ _____ _____    ______ ____
ROOT
ATOM      1  C   UNL     1      -1.306   0.166   1.258  0.00  0.00    +0.167 C 
ATOM      2  C   UNL     1       0.212  -0.064   1.285  0.00  0.00    +0.069 C 
ATOM      3  C   UNL     1       0.928   1.222   1.612  0.00  0.00    -0.015 A 
ATOM      4  C   UNL     1       2.308   1.375   2.037  0.00  0.00    +0.003 A 
ATOM      5  C   UNL     1       3.328   0.450   2.281  0.00  0.00    +0.010 A 
ATOM      6  C   UNL     1       4.540   0.956   2.681  0.00  0.00    +0.001 A 
ATOM      7  C   UNL     1       4.755   2.315   2.837  0.00  0.00    +0.002 A 
ATOM      8  C   UNL     1       3.764   3.252   2.602  0.00  0.00    +0.026 A 
ATOM      9  C   UNL     1       2.522   2.767   2.195  0.00  0.00    +0.047 A 
ATOM     10  N   UNL     1       1.350   3.395   1.886  0.00  0.00    -0.356 N 
ATOM     11  H   UNL     1       1.209   4.355   1.903  0.00  0.00    +0.166 HD
ATOM     12  C   UNL     1       0.404   2.466   1.547  0.00  0.00    +0.046 A 
ATOM     13  C   UNL     1      -1.034   2.733   1.172  0.00  0.00    +0.155 C 
ATOM     14  N   UNL     1      -1.552   1.461   0.616  0.00  0.00    -0.273 N 
ATOM     15  C   UNL     1      -2.203   1.730  -0.524  0.00  0.00    +0.248 C 
ATOM     16  O   UNL     1      -2.929   0.956  -1.116  0.00  0.00    -0.270 OA
ATOM     17  C   UNL     1      -1.905   3.102  -0.948  0.00  0.00    +0.042 A 
ATOM     18  C   UNL     1      -1.163   3.732   0.073  0.00  0.00    -0.009 A 
ATOM     19  C   UNL     1      -0.724   5.031  -0.052  0.00  0.00    +0.006 A 
ATOM     20  C   UNL     1      -1.058   5.702  -1.225  0.00  0.00    +0.000 A 
ATOM     21  C   UNL     1      -1.798   5.099  -2.223  0.00  0.00    +0.001 A 
ATOM     22  C   UNL     1      -2.244   3.790  -2.115  0.00  0.00    +0.013 A 
ENDROOT
BRANCH   1  24
ATOM     23  N   UNL     1      -1.698  -0.899   3.456  0.00  0.00    -0.302 N 
ATOM     24  C   UNL     1      -1.844   0.183   2.666  0.00  0.00    +0.235 C 
ATOM     25  O   UNL     1      -2.409   1.170   3.087  0.00  0.00    -0.274 OA
ATOM     26  H   UNL     1      -1.316  -1.714   3.096  0.00  0.00    +0.150 HD
BRANCH  23  27
ATOM     27  C   UNL     1      -2.115  -0.842   4.859  0.00  0.00    +0.162 C 
BRANCH  27  28
ATOM     28  C   UNL     1      -1.078  -1.518   5.719  0.00  0.00    +0.234 C 
ATOM     29  O   UNL     1      -0.145  -2.096   5.203  0.00  0.00    -0.274 OA
ATOM     30  N   UNL     1      -1.188  -1.481   7.062  0.00  0.00    -0.311 N 
ATOM     31  H   UNL     1      -1.971  -1.083   7.474  0.00  0.00    +0.149 HD
BRANCH  30  32
ATOM     32  C   UNL     1      -0.125  -2.041   7.900  0.00  0.00    +0.070 C 
ATOM     33  C   UNL     1       1.016  -1.029   8.021  0.00  0.00    +0.028 C 
BRANCH  32  34
ATOM     34  C   UNL     1      -0.681  -2.351   9.291  0.00  0.00    +0.018 C 
ATOM     35  C   UNL     1      -1.805  -3.382   9.172  0.00  0.00    +0.005 C 
ENDBRANCH  32  34
ENDBRANCH  30  32
ENDBRANCH  27  28
BRANCH  27  36
ATOM     36  C   UNL     1      -3.457  -1.558   5.021  0.00  0.00    +0.015 C 
ATOM     37  C   UNL     1      -4.541  -0.787   4.265  0.00  0.00    +0.010 C 
BRANCH  36  39
ATOM     38  C   UNL     1      -2.487  -3.832   5.384  0.00  0.00    +0.004 C 
ATOM     39  C   UNL     1      -3.351  -2.976   4.456  0.00  0.00    +0.002 C 
ENDBRANCH  36  39
ENDBRANCH  27  36
ENDBRANCH  23  27
ENDBRANCH   1  24
TORSDOF 7
