REMARK  Name = ZINC10532193
REMARK  8 active torsions:
REMARK  status: ('A' for Active; 'I' for Inactive)
REMARK    1  A    between atoms: C_1  and  C_2
REMARK    2  A    between atoms: C_8  and  N_10
REMARK    3  A    between atoms: C_14  and  C_16
REMARK    4  A    between atoms: C_16  and  O_17
REMARK    5  A    between atoms: O_17  and  C_18
REMARK    6  A    between atoms: C_18  and  C_20
REMARK    7  A    between atoms: C_23  and  N_29
REMARK    8  A    between atoms: C_24  and  N_26
REMARK                            x       y       z     vdW  Elec       q    Type
REMARK                         _______ _______ _______ _____ _____    ______ ____
ROOT
ATOM      1  C   UNL     1       0.017   1.139   0.010  0.00  0.00    +0.328 C 
ENDROOT
BRANCH   1   6
ATOM      2  N   UNL     1      -0.354   1.435   4.793  0.00  0.00    -0.296 N 
ATOM      3  C   UNL     1      -0.839   1.745   3.575  0.00  0.00    +0.306 C 
ATOM      4  O   UNL     1      -1.848   2.416   3.476  0.00  0.00    -0.252 OA
ATOM      5  N   UNL     1      -0.206   1.313   2.467  0.00  0.00    -0.237 N 
ATOM      6  C   UNL     1      -0.691   1.623   1.249  0.00  0.00    +0.258 C 
ATOM      7  O   UNL     1      -1.697   2.292   1.149  0.00  0.00    -0.272 OA
ATOM      8  H   UNL     1       0.451   0.900   4.873  0.00  0.00    +0.151 HD
ATOM      9  H   UNL     1       0.599   0.777   2.546  0.00  0.00    +0.159 HD
BRANCH   2  16
ATOM     10  C   UNL     1       1.076   2.962   6.797  0.00  0.00    +0.009 C 
ATOM     11  C   UNL     1      -0.047   1.986   7.156  0.00  0.00    +0.006 C 
ATOM     12  C   UNL     1       0.547   0.600   7.417  0.00  0.00    +0.005 C 
ATOM     13  C   UNL     1      -0.576  -0.376   7.776  0.00  0.00    +0.000 C 
ATOM     14  C   UNL     1      -1.572  -0.457   6.618  0.00  0.00    +0.002 C 
ATOM     15  C   UNL     1      -2.165   0.929   6.358  0.00  0.00    +0.022 C 
ATOM     16  C   UNL     1      -1.043   1.905   5.998  0.00  0.00    +0.077 C 
ENDBRANCH   2  16
ENDBRANCH   1   6
BRANCH   1  17
ATOM     17  O   UNL     1      -0.696   1.602  -1.167  0.00  0.00    -0.452 OA
BRANCH  17  18
ATOM     18  C   UNL     1      -0.189   1.253  -2.366  0.00  0.00    +0.340 C 
ATOM     19  O   UNL     1       0.821   0.580  -2.426  0.00  0.00    -0.245 OA
BRANCH  18  20
ATOM     20  C   UNL     1      -0.860   1.687  -3.605  0.00  0.00    +0.061 A 
ATOM     21  C   UNL     1      -2.023   2.462  -3.537  0.00  0.00    +0.017 A 
ATOM     22  C   UNL     1      -2.644   2.864  -4.685  0.00  0.00    +0.026 A 
ATOM     23  C   UNL     1      -2.123   2.506  -5.926  0.00  0.00    +0.055 A 
ATOM     24  C   UNL     1      -0.966   1.735  -6.003  0.00  0.00    +0.147 A 
ATOM     25  C   UNL     1      -0.332   1.330  -4.850  0.00  0.00    +0.049 A 
BRANCH  24  26
ATOM     26  N   UNL     1      -0.415   1.355  -7.323  0.00  0.00    +0.058 N 
ATOM     27  O   UNL     1       0.532   0.593  -7.391  0.00  0.00    -0.126 OA
ATOM     28  O   UNL     1      -0.909   1.806  -8.341  0.00  0.00    -0.126 OA
ENDBRANCH  24  26
BRANCH  23  29
ATOM     29  N   UNL     1      -2.760   2.919  -7.091  0.00  0.00    -0.356 N 
ATOM     30  H   UNL     1      -3.314   3.715  -7.084  0.00  0.00    +0.142 HD
ATOM     31  H   UNL     1      -2.650   2.411  -7.910  0.00  0.00    +0.142 HD
ENDBRANCH  23  29
ENDBRANCH  18  20
ENDBRANCH  17  18
ENDBRANCH   1  17
TORSDOF 7
