REMARK  Name = ZINC12033623
REMARK  8 active torsions:
REMARK  status: ('A' for Active; 'I' for Inactive)
REMARK    1  A    between atoms: C_1  and  C_2
REMARK    2  A    between atoms: C_7  and  C_10
REMARK    3  A    between atoms: C_11  and  C_13
REMARK    4  A    between atoms: C_13  and  S_14
REMARK    5  A    between atoms: S_14  and  C_15
REMARK    6  A    between atoms: C_20  and  N_24
REMARK    7  A    between atoms: C_21  and  N_23
REMARK    8  A    between atoms: C_25  and  C_27
REMARK                            x       y       z     vdW  Elec       q    Type
REMARK                         _______ _______ _______ _____ _____    ______ ____
ROOT
ATOM      1  C   UNL     1      -3.545   3.076  -0.160  0.00  0.00    +0.171 A 
ATOM      2  N   UNL     1      -2.368   3.758  -0.238  0.00  0.00    -0.300 N 
ATOM      3  H   UNL     1      -2.374   4.723  -0.331  0.00  0.00    +0.171 HD
ATOM      4  C   UNL     1      -1.194   3.095  -0.180  0.00  0.00    +0.275 A 
ATOM      5  O   UNL     1      -0.135   3.699  -0.243  0.00  0.00    -0.266 OA
ATOM      6  C   UNL     1      -1.213   1.698  -0.051  0.00  0.00    +0.139 A 
ATOM      7  C   UNL     1      -2.442   1.051   0.024  0.00  0.00    +0.146 A 
ATOM      8  N   UNL     1      -3.572   1.766  -0.034  0.00  0.00    -0.207 NA
ENDROOT
BRANCH   6   9
ATOM      9  N   UNL     1      -0.011   0.966   0.007  0.00  0.00    -0.272 N 
ATOM     10  C   UNL     1       0.873   1.040  -1.007  0.00  0.00    +0.284 C 
ATOM     11  O   UNL     1       0.596   1.670  -2.011  0.00  0.00    -0.266 OA
ATOM     12  H   UNL     1       0.178   0.405   0.776  0.00  0.00    +0.155 HD
BRANCH  10  13
ATOM     13  C   UNL     1       2.169   0.364  -0.901  0.00  0.00    +0.191 A 
ATOM     14  C   UNL     1       3.150   0.354  -1.851  0.00  0.00    +0.056 A 
ATOM     15  C   UNL     1       4.208  -0.406  -1.332  0.00  0.00    +0.058 A 
ATOM     16  C   UNL     1       3.829  -0.830  -0.104  0.00  0.00    +0.171 A 
ATOM     17  O   UNL     1       2.600  -0.364   0.151  0.00  0.00    -0.444 OA
ATOM     18 BR   UNL     1       4.865  -1.903   1.059  0.00  0.00    -0.008 Br
ENDBRANCH  10  13
ENDBRANCH   6   9
BRANCH   7  19
ATOM     19  N   UNL     1      -2.496  -0.325   0.156  0.00  0.00    -0.341 N 
ATOM     20  H   UNL     1      -1.676  -0.841   0.197  0.00  0.00    +0.144 HD
ATOM     21  H   UNL     1      -3.355  -0.773   0.208  0.00  0.00    +0.144 HD
ENDBRANCH   7  19
BRANCH   1  22
ATOM     22  S   UNL     1      -5.063   3.966  -0.230  0.00  0.00    -0.078 S 
BRANCH  22  23
ATOM     23  C   UNL     1      -6.238   2.597  -0.086  0.00  0.00    +0.173 C 
BRANCH  23  32
ATOM     24  C   UNL     1     -12.319   2.550   1.012  0.00  0.00    +0.039 C 
ATOM     25  C   UNL     1     -10.834   2.203   1.128  0.00  0.00    +0.133 C 
ATOM     26  C   UNL     1     -10.075   2.795  -0.065  0.00  0.00    +0.139 C 
ATOM     27  N   UNL     1      -8.692   2.292  -0.031  0.00  0.00    -0.296 N 
ATOM     28  C   UNL     1      -8.486   0.841   0.100  0.00  0.00    +0.139 C 
ATOM     29  C   UNL     1      -9.323   0.344   1.291  0.00  0.00    +0.133 C 
ATOM     30  O   UNL     1     -10.674   0.782   1.129  0.00  0.00    -0.371 OA
ATOM     31  C   UNL     1      -8.755   0.912   2.593  0.00  0.00    +0.039 C 
ATOM     32  C   UNL     1      -7.645   3.136  -0.123  0.00  0.00    +0.226 C 
ATOM     33  O   UNL     1      -7.835   4.328  -0.236  0.00  0.00    -0.275 OA
ENDBRANCH  23  32
ENDBRANCH  22  23
ENDBRANCH   1  22
TORSDOF 6
