REMARK  Name = ZINC43619829
REMARK  3 active torsions:
REMARK  status: ('A' for Active; 'I' for Inactive)
REMARK    1  A    between atoms: C_1  and  N_2
REMARK    2  A    between atoms: C_5  and  N_8
REMARK    3  A    between atoms: C_13  and  C_22
REMARK                            x       y       z     vdW  Elec       q    Type
REMARK                         _______ _______ _______ _____ _____    ______ ____
ROOT
ATOM      1  N   UNL     1       1.514  -4.069   0.043  0.00  0.00    -0.299 N 
ATOM      2  C   UNL     1       2.573  -5.083   0.006  0.00  0.00    +0.110 C 
ATOM      3  C   UNL     1       1.899  -6.422   0.359  0.00  0.00    +0.003 C 
ATOM      4  C   UNL     1       1.927  -6.627   1.894  0.00  0.00    -0.005 C 
ATOM      5  C   UNL     1       0.575  -7.344   2.138  0.00  0.00    -0.018 C 
ATOM      6  N   UNL     1      -0.370  -6.709   1.193  0.00  0.00    +0.395 N 
ATOM      7  C   UNL     1       0.408  -6.129   0.062  0.00  0.00    +0.018 C 
ATOM      8  C   UNL     1       0.293  -4.633   0.039  0.00  0.00    +0.206 C 
ATOM      9  O   UNL     1      -0.753  -4.020   0.017  0.00  0.00    -0.277 OA
ATOM     10  C   UNL     1      -0.036  -6.786  -1.247  0.00  0.00    -0.004 C 
ATOM     11  C   UNL     1      -1.441  -7.347  -0.895  0.00  0.00    -0.019 C 
ATOM     12  C   UNL     1      -1.258  -7.748   0.622  0.00  0.00    -0.076 C 
ATOM     13  H   UNL     1      -0.914  -6.002   1.663  0.00  0.00    -0.079 HD
ENDROOT
BRANCH   5  14
ATOM     14  C   UNL     1       0.119  -7.134   3.559  0.00  0.00    +0.013 A 
ATOM     15  C   UNL     1      -0.583  -6.079   4.015  0.00  0.00    +0.021 A 
ATOM     16  C   UNL     1      -0.799  -6.277   5.395  0.00  0.00    +0.020 A 
ATOM     17  C   UNL     1      -0.220  -7.447   5.731  0.00  0.00    +0.094 A 
ATOM     18  N   UNL     1       0.342  -7.984   4.606  0.00  0.00    -0.291 N 
ATOM     19  C   UNL     1       1.030  -9.195   4.539  0.00  0.00    +0.235 A 
ATOM     20  N   UNL     1       1.627  -9.536   3.409  0.00  0.00    -0.220 NA
ATOM     21  C   UNL     1       2.288 -10.677   3.311  0.00  0.00    +0.116 A 
ATOM     22  C   UNL     1       2.351 -11.518   4.411  0.00  0.00    +0.039 A 
ATOM     23  C   UNL     1       1.714 -11.129   5.579  0.00  0.00    +0.116 A 
ATOM     24  N   UNL     1       1.074  -9.972   5.609  0.00  0.00    -0.220 NA
ENDBRANCH   5  14
BRANCH   1  29
ATOM     25  C   UNL     1       0.776   1.521   0.221  0.00  0.00    -0.096 C 
ATOM     26  N   UNL     1       0.661   0.057   0.177  0.00  0.00    +0.378 N 
ATOM     27  C   UNL     1       1.301  -0.446  -1.045  0.00  0.00    -0.077 C 
ATOM     28  C   UNL     1       1.114  -1.962  -1.137  0.00  0.00    +0.004 C 
ATOM     29  C   UNL     1       1.755  -2.624   0.086  0.00  0.00    +0.072 C 
ATOM     30  C   UNL     1       1.132  -2.039   1.357  0.00  0.00    +0.004 C 
ATOM     31  C   UNL     1       1.318  -0.520   1.356  0.00  0.00    -0.077 C 
ATOM     32  H   UNL     1      -0.313  -0.203   0.175  0.00  0.00    -0.082 HD
ENDBRANCH   1  29
TORSDOF 2
