REMARK  Name = ZINC50705971
REMARK  7 active torsions:
REMARK  status: ('A' for Active; 'I' for Inactive)
REMARK    1  A    between atoms: C_6  and  C_7
REMARK    2  A    between atoms: N_9  and  C_10
REMARK    3  A    between atoms: N_9  and  C_13
REMARK    4  A    between atoms: C_10  and  C_11
REMARK    5  A    between atoms: C_11  and  O_12
REMARK    6  A    between atoms: C_13  and  C_14
REMARK    7  A    between atoms: C_14  and  O_15
REMARK                            x       y       z     vdW  Elec       q    Type
REMARK                         _______ _______ _______ _____ _____    ______ ____
ROOT
ATOM      1  C   UNL     1      -1.227  -0.782  -0.017  0.00  0.00    +0.250 C 
ATOM      2  O   UNL     1      -1.200  -1.996   0.037  0.00  0.00    -0.270 OA
ATOM      3  N   UNL     1      -2.408  -0.136  -0.086  0.00  0.00    -0.293 N 
ENDROOT
BRANCH   1   9
ATOM      4  C   UNL     1       0.241   1.003   0.928  0.00  0.00    +0.033 A 
ATOM      5  C   UNL     1       1.441   1.693   0.894  0.00  0.00    +0.037 A 
ATOM      6  C   UNL     1       2.391   1.361  -0.056  0.00  0.00    +0.128 A 
ATOM      7  N   UNL     1       2.175   0.398  -0.931  0.00  0.00    -0.239 NA
ATOM      8  C   UNL     1       1.046  -0.293  -0.943  0.00  0.00    +0.128 A 
ATOM      9  C   UNL     1       0.033  -0.015  -0.009  0.00  0.00    +0.077 A 
ATOM     10  N   UNL     1       0.862  -1.294  -1.879  0.00  0.00    -0.343 N 
ATOM     11 BR   UNL     1       1.778   3.079   2.135  0.00  0.00    -0.049 Br
ATOM     12  H   UNL     1       1.528  -1.441  -2.569  0.00  0.00    +0.144 HD
ATOM     13  H   UNL     1       0.068  -1.850  -1.845  0.00  0.00    +0.144 HD
ENDBRANCH   1   9
BRANCH   3  14
ATOM     14  C   UNL     1      -3.661  -0.886   0.036  0.00  0.00    +0.136 C 
BRANCH  14  15
ATOM     15  C   UNL     1      -4.073  -0.953   1.508  0.00  0.00    +0.174 C 
BRANCH  15  16
ATOM     16  O   UNL     1      -4.373   0.362   1.979  0.00  0.00    -0.393 OA
ATOM     17  H   UNL     1      -4.643   0.396   2.907  0.00  0.00    +0.209 HD
ENDBRANCH  15  16
ENDBRANCH  14  15
ENDBRANCH   3  14
BRANCH   3  18
ATOM     18  C   UNL     1      -2.439   1.315  -0.282  0.00  0.00    +0.136 C 
BRANCH  18  19
ATOM     19  C   UNL     1      -2.333   1.630  -1.776  0.00  0.00    +0.174 C 
BRANCH  19  20
ATOM     20  O   UNL     1      -3.489   1.132  -2.452  0.00  0.00    -0.393 OA
ATOM     21  H   UNL     1      -3.489   1.297  -3.404  0.00  0.00    +0.209 HD
ENDBRANCH  19  20
ENDBRANCH  18  19
ENDBRANCH   3  18
TORSDOF 7
