REMARK  Name = ZINC02863229
REMARK  5 active torsions:
REMARK  status: ('A' for Active; 'I' for Inactive)
REMARK    1  A    between atoms: C_1  and  C_2
REMARK    2  A    between atoms: C_5  and  S_8
REMARK    3  A    between atoms: S_8  and  N_11
REMARK    4  A    between atoms: N_11  and  C_12
REMARK    5  A    between atoms: C_16  and  C_19
REMARK                            x       y       z     vdW  Elec       q    Type
REMARK                         _______ _______ _______ _____ _____    ______ ____
ROOT
ATOM      1  N   UNL     1       0.074   2.490   4.720  0.00  0.00    -0.215 N 
ATOM      2  H   UNL     1       0.951   2.900   4.661  0.00  0.00    +0.174 HD
ENDROOT
BRANCH   1   3
ATOM      3  C   UNL     1      -0.578   2.066   3.558  0.00  0.00    +0.067 A 
ATOM      4  C   UNL     1      -1.959   2.178   3.455  0.00  0.00    +0.027 A 
ATOM      5  C   UNL     1      -2.601   1.758   2.307  0.00  0.00    +0.022 A 
ATOM      6  C   UNL     1      -1.869   1.231   1.256  0.00  0.00    +0.045 A 
ATOM      7  C   UNL     1      -0.494   1.113   1.357  0.00  0.00    -0.012 A 
ATOM      8  C   UNL     1       0.153   1.532   2.504  0.00  0.00    +0.068 A 
ATOM      9 CL   UNL     1       1.879   1.390   2.628  0.00  0.00    -0.081 Cl
ATOM     10  C   UNL     1       0.298   0.534   0.214  0.00  0.00    +0.047 C 
ATOM     11 CL   UNL     1      -2.679   0.711  -0.188  0.00  0.00    -0.083 Cl
ENDBRANCH   1   3
BRANCH   1  12
ATOM     12  S   UNL     1      -0.651   2.293   6.195  0.00  0.00    +0.072 S 
ATOM     13  O   UNL     1       0.301   2.692   7.172  0.00  0.00    -0.150 OA
ATOM     14  O   UNL     1      -1.938   2.888   6.098  0.00  0.00    -0.150 OA
BRANCH  12  19
ATOM     15  C   UNL     1      -1.541  -3.624   6.969  0.00  0.00    +0.044 C 
ATOM     16  C   UNL     1      -1.319  -2.146   6.776  0.00  0.00    -0.050 A 
ATOM     17  C   UNL     1      -0.141  -1.563   7.203  0.00  0.00    +0.005 A 
ATOM     18  C   UNL     1       0.063  -0.207   7.026  0.00  0.00    +0.029 A 
ATOM     19  C   UNL     1      -0.911   0.565   6.421  0.00  0.00    +0.109 A 
ATOM     20  C   UNL     1      -2.091  -0.018   5.999  0.00  0.00    +0.029 A 
ATOM     21  C   UNL     1      -2.293  -1.374   6.172  0.00  0.00    +0.005 A 
ENDBRANCH  12  19
ENDBRANCH   1  12
TORSDOF 3
