REMARK  Name = ZINC43367169
REMARK  8 active torsions:
REMARK  status: ('A' for Active; 'I' for Inactive)
REMARK    1  A    between atoms: C_1  and  C_2
REMARK    2  A    between atoms: C_5  and  C_7
REMARK    3  A    between atoms: C_7  and  C_9
REMARK    4  A    between atoms: C_7  and  S_13
REMARK    5  A    between atoms: C_9  and  C_11
REMARK    6  A    between atoms: C_9  and  N_12
REMARK    7  A    between atoms: S_13  and  C_14
REMARK    8  A    between atoms: N_18  and  C_19
REMARK                            x       y       z     vdW  Elec       q    Type
REMARK                         _______ _______ _______ _____ _____    ______ ____
ROOT
ATOM      1  C   UNL     1       1.614  -3.282  -0.055  0.00  0.00    +0.105 C 
ENDROOT
BRANCH   1   6
ATOM      2  C   UNL     1      -0.361   1.339   0.381  0.00  0.00    +0.086 C 
ATOM      3  C   UNL     1      -0.250  -0.162   0.298  0.00  0.00    +0.102 A 
ATOM      4  C   UNL     1      -1.274  -1.032   0.372  0.00  0.00    +0.044 A 
ATOM      5  C   UNL     1      -0.720  -2.327   0.250  0.00  0.00    +0.046 A 
ATOM      6  C   UNL     1       0.609  -2.171   0.109  0.00  0.00    +0.117 A 
ATOM      7  O   UNL     1       0.887  -0.857   0.133  0.00  0.00    -0.464 OA
ENDBRANCH   1   6
BRANCH   1   8
ATOM      8  C   UNL     1       2.346  -3.114  -1.387  0.00  0.00    -0.057 C 
ATOM      9  C   UNL     1       3.297  -4.295  -1.598  0.00  0.00    -0.013 C 
BRANCH   8  10
ATOM     10  N   UNL     1       1.368  -3.072  -2.482  0.00  0.00    +0.381 N 
ATOM     11  H   UNL     1       0.741  -2.293  -2.343  0.00  0.00    -0.090 HD
ATOM     12  H   UNL     1       1.851  -2.961  -3.361  0.00  0.00    -0.090 HD
ATOM     13  H   UNL     1       0.840  -3.931  -2.495  0.00  0.00    -0.090 HD
ENDBRANCH   8  10
ENDBRANCH   1   8
BRANCH   1  14
ATOM     14  S   UNL     1       2.811  -3.218   1.306  0.00  0.00    -0.075 S 
BRANCH  14  15
ATOM     15  C   UNL     1       1.869  -3.668   2.725  0.00  0.00    +0.210 A 
ATOM     16  N   UNL     1       0.576  -3.911   2.760  0.00  0.00    -0.102 NA
ATOM     17  N   UNL     1       0.207  -4.212   3.952  0.00  0.00    -0.022 NA
ATOM     18  N   UNL     1       1.216  -4.185   4.754  0.00  0.00    -0.043 NA
ATOM     19  N   UNL     1       2.339  -3.835   3.984  0.00  0.00    -0.223 N 
ATOM     20  C   UNL     1       3.721  -3.681   4.444  0.00  0.00    +0.177 C 
ENDBRANCH  14  15
ENDBRANCH   1  14
TORSDOF 5
