REMARK  Name = ZINC43188346
REMARK  14 active torsions:
REMARK  status: ('A' for Active; 'I' for Inactive)
REMARK    1  A    between atoms: C_1  and  C_2
REMARK    2  A    between atoms: C_2  and  C_3
REMARK    3  A    between atoms: C_3  and  C_5
REMARK    4  A    between atoms: C_3  and  N_6
REMARK    5  A    between atoms: C_7  and  C_9
REMARK    6  A    between atoms: C_12  and  C_15
REMARK    7  A    between atoms: C_15  and  N_16
REMARK    8  A    between atoms: N_19  and  C_20
REMARK    9  A    between atoms: C_20  and  C_21
REMARK   10  A    between atoms: C_21  and  C_22
REMARK   11  A    between atoms: C_21  and  C_23
REMARK   12  A    between atoms: C_21  and  N_24
REMARK   13  A    between atoms: N_24  and  C_25
REMARK   14  A    between atoms: N_24  and  C_26
REMARK                            x       y       z     vdW  Elec       q    Type
REMARK                         _______ _______ _______ _____ _____    ______ ____
ROOT
ATOM      1  C   UNL     1       8.350   1.647  -2.166  0.00  0.00    +0.141 C 
ENDROOT
BRANCH   1   5
ATOM      2  C   UNL     1       4.244   0.462  -2.305  0.00  0.00    +0.037 A 
ATOM      3  C   UNL     1       4.864   0.696  -1.077  0.00  0.00    +0.013 A 
ATOM      4  C   UNL     1       6.189   1.078  -1.039  0.00  0.00    +0.006 A 
ATOM      5  C   UNL     1       6.903   1.230  -2.215  0.00  0.00    -0.030 A 
ATOM      6  C   UNL     1       6.293   0.999  -3.436  0.00  0.00    +0.006 A 
ATOM      7  C   UNL     1       4.971   0.610  -3.487  0.00  0.00    +0.013 A 
BRANCH   2   9
ATOM      8  N   UNL     1       2.125  -0.091  -1.209  0.00  0.00    -0.309 N 
ATOM      9  C   UNL     1       2.824   0.051  -2.353  0.00  0.00    +0.244 C 
ATOM     10  O   UNL     1       2.288  -0.157  -3.423  0.00  0.00    -0.270 OA
ATOM     11  H   UNL     1       2.553   0.075  -0.355  0.00  0.00    +0.149 HD
BRANCH   8  12
ATOM     12  C   UNL     1       0.718  -0.497  -1.257  0.00  0.00    +0.070 C 
ATOM     13  C   UNL     1       0.630  -2.023  -1.329  0.00  0.00    +0.028 C 
BRANCH  12  15
ATOM     14  C   UNL     1      -0.019   1.526   0.010  0.00  0.00    +0.005 C 
ATOM     15  C   UNL     1       0.002  -0.004   0.002  0.00  0.00    +0.018 C 
ENDBRANCH  12  15
ENDBRANCH   8  12
ENDBRANCH   2   9
ENDBRANCH   1   5
BRANCH   1  16
ATOM     16  N   UNL     1       9.200   0.457  -2.090  0.00  0.00    -0.295 N 
ATOM     17  C   UNL     1      10.540   0.588  -2.036  0.00  0.00    +0.300 C 
ATOM     18  O   UNL     1      11.044   1.694  -2.051  0.00  0.00    -0.253 OA
ATOM     19  N   UNL     1      11.322  -0.508  -1.966  0.00  0.00    -0.301 N 
ATOM     20  H   UNL     1       8.798  -0.426  -2.078  0.00  0.00    +0.151 HD
ATOM     21  H   UNL     1      10.920  -1.390  -1.953  0.00  0.00    +0.150 HD
BRANCH  19  22
ATOM     22  C   UNL     1      12.779  -0.365  -1.907  0.00  0.00    +0.093 C 
BRANCH  22  23
ATOM     23  C   UNL     1      13.424  -1.750  -1.833  0.00  0.00    -0.056 C 
ATOM     24  C   UNL     1      14.946  -1.601  -1.772  0.00  0.00    -0.008 C 
ATOM     25  C   UNL     1      12.932  -2.476  -0.579  0.00  0.00    -0.008 C 
BRANCH  23  26
ATOM     26  N   UNL     1      13.056  -2.527  -3.024  0.00  0.00    +0.380 N 
ATOM     27  C   UNL     1      13.528  -1.830  -4.228  0.00  0.00    -0.096 C 
ATOM     28  C   UNL     1      13.675  -3.857  -2.953  0.00  0.00    -0.096 C 
ATOM     29  H   UNL     1      12.052  -2.625  -3.064  0.00  0.00    -0.082 HD
ENDBRANCH  23  26
ENDBRANCH  22  23
ENDBRANCH  19  22
ENDBRANCH   1  16
TORSDOF 8
