REMARK  Name = ZINC39294815
REMARK  4 active torsions:
REMARK  status: ('A' for Active; 'I' for Inactive)
REMARK    1  A    between atoms: C_1  and  C_2
REMARK    2  A    between atoms: C_2  and  O_4
REMARK    3  A    between atoms: O_4  and  N_5
REMARK    4  A    between atoms: N_5  and  C_6
REMARK                            x       y       z     vdW  Elec       q    Type
REMARK                         _______ _______ _______ _____ _____    ______ ____
ROOT
ATOM      1  C   UNL     1      -2.095  -2.928   0.006  0.00  0.00    +0.077 A 
ATOM      2  C   UNL     1      -3.372  -2.379   0.016  0.00  0.00    +0.029 A 
ATOM      3  C   UNL     1      -4.480  -3.203   0.023  0.00  0.00    +0.004 A 
ATOM      4  C   UNL     1      -4.320  -4.575   0.022  0.00  0.00    +0.023 A 
ATOM      5  C   UNL     1      -3.044  -5.132   0.013  0.00  0.00    +0.032 A 
ATOM      6  C   UNL     1      -1.929  -4.311  -0.003  0.00  0.00    -0.000 A 
ATOM      7  C   UNL     1      -0.534  -4.877  -0.029  0.00  0.00    +0.040 C 
ATOM      8  C   UNL     1      -0.535  -6.324   0.465  0.00  0.00    +0.023 C 
ATOM      9  C   UNL     1      -1.600  -7.111  -0.310  0.00  0.00    +0.102 C 
ATOM     10  N   UNL     1      -2.909  -6.524   0.018  0.00  0.00    -0.344 N 
ATOM     11  H   UNL     1      -3.669  -7.092   0.222  0.00  0.00    +0.146 HD
ENDROOT
BRANCH   1  12
ATOM     12  N   UNL     1      -0.980  -2.095   0.000  0.00  0.00    -0.218 N 
ATOM     13  H   UNL     1      -0.089  -2.477  -0.010  0.00  0.00    +0.207 HD
BRANCH  12  14
ATOM     14  O   UNL     1      -1.147  -0.689   0.009  0.00  0.00    -0.342 OA
BRANCH  14  16
ATOM     15  C   UNL     1      -0.018   1.503   0.010  0.00  0.00    +0.138 C 
ATOM     16  C   UNL     1       0.002  -0.004   0.002  0.00  0.00    +0.330 C 
ATOM     17  O   UNL     1       1.060  -0.596  -0.011  0.00  0.00    -0.249 OA
ENDBRANCH  14  16
ENDBRANCH  12  14
ENDBRANCH   1  12
TORSDOF 3
