REMARK  Name = ZINC12658153
REMARK  7 active torsions:
REMARK  status: ('A' for Active; 'I' for Inactive)
REMARK    1  A    between atoms: C_1  and  C_2
REMARK    2  A    between atoms: C_4  and  S_12
REMARK    3  A    between atoms: S_12  and  C_13
REMARK    4  A    between atoms: C_13  and  C_14
REMARK    5  A    between atoms: N_19  and  C_20
REMARK    6  A    between atoms: C_20  and  C_21
REMARK    7  A    between atoms: C_20  and  C_22
REMARK                            x       y       z     vdW  Elec       q    Type
REMARK                         _______ _______ _______ _____ _____    ______ ____
ROOT
ATOM      1  S   UNL     1      -2.653  -2.901   0.010  0.00  0.00    -0.097 S 
ENDROOT
BRANCH   1   5
ATOM      2  C   UNL     1       2.573  -2.840  -0.038  0.00  0.00    +0.044 C 
ATOM      3  C   UNL     1       1.269  -2.086  -0.022  0.00  0.00    -0.039 A 
ATOM      4  C   UNL     1       0.079  -2.749  -0.015  0.00  0.00    +0.038 A 
ATOM      5  C   UNL     1      -1.123  -2.026   0.001  0.00  0.00    +0.098 A 
ATOM      6  N   UNL     1      -1.135  -0.708   0.009  0.00  0.00    -0.240 NA
ATOM      7  C   UNL     1       0.002  -0.004   0.002  0.00  0.00    +0.072 A 
ATOM      8  C   UNL     1       1.249  -0.676  -0.013  0.00  0.00    +0.003 A 
ATOM      9  C   UNL     1       2.438   0.069  -0.020  0.00  0.00    +0.010 A 
ATOM     10  C   UNL     1       2.380   1.430  -0.012  0.00  0.00    +0.001 A 
ATOM     11  C   UNL     1       1.156   2.093   0.002  0.00  0.00    +0.002 A 
ATOM     12  C   UNL     1      -0.017   1.401   0.010  0.00  0.00    +0.028 A 
ENDBRANCH   1   5
BRANCH   1  13
ATOM     13  C   UNL     1      -3.810  -1.509   0.029  0.00  0.00    +0.172 C 
BRANCH  13  14
ATOM     14  C   UNL     1      -5.224  -2.032   0.039  0.00  0.00    +0.231 C 
ATOM     15  O   UNL     1      -5.428  -3.227   0.034  0.00  0.00    -0.274 OA
ATOM     16  N   UNL     1      -6.261  -1.171   0.054  0.00  0.00    -0.240 N 
ATOM     17  C   UNL     1      -7.525  -1.638   0.063  0.00  0.00    +0.306 C 
ATOM     18  O   UNL     1      -7.730  -2.836   0.058  0.00  0.00    -0.252 OA
ATOM     19  N   UNL     1      -8.561  -0.777   0.077  0.00  0.00    -0.297 N 
ATOM     20  H   UNL     1      -6.097  -0.215   0.058  0.00  0.00    +0.159 HD
ATOM     21  H   UNL     1      -8.398   0.179   0.081  0.00  0.00    +0.151 HD
BRANCH  19  22
ATOM     22  C   UNL     1      -9.935  -1.285   0.087  0.00  0.00    +0.068 C 
ATOM     23  C   UNL     1     -10.357  -1.588   1.527  0.00  0.00    +0.027 C 
ATOM     24  C   UNL     1     -10.873  -0.232  -0.508  0.00  0.00    +0.027 C 
ENDBRANCH  19  22
ENDBRANCH  13  14
ENDBRANCH   1  13
TORSDOF 4
