REMARK  Name = ZINC01171668
REMARK  7 active torsions:
REMARK  status: ('A' for Active; 'I' for Inactive)
REMARK    1  A    between atoms: C_1  and  C_2
REMARK    2  A    between atoms: C_8  and  C_13
REMARK    3  A    between atoms: C_9  and  O_12
REMARK    4  A    between atoms: C_13  and  C_15
REMARK    5  A    between atoms: C_13  and  N_22
REMARK    6  A    between atoms: C_18  and  O_21
REMARK    7  A    between atoms: N_22  and  C_23
REMARK                            x       y       z     vdW  Elec       q    Type
REMARK                         _______ _______ _______ _____ _____    ______ ____
ROOT
ATOM      1  C   UNL     1       1.284   3.654   0.022  0.00  0.00    +0.136 C 
ENDROOT
BRANCH   1   9
ATOM      2  C   UNL     1      -1.118  -3.107  -1.329  0.00  0.00    +0.065 C 
ATOM      3  C   UNL     1       0.038  -2.177  -1.065  0.00  0.00    +0.039 A 
ATOM      4  C   UNL     1       1.331  -2.695  -1.029  0.00  0.00    +0.023 A 
ATOM      5  C   UNL     1       2.390  -1.867  -0.791  0.00  0.00    +0.012 A 
ATOM      6  C   UNL     1       2.131  -0.498  -0.588  0.00  0.00    +0.004 A 
ATOM      7  C   UNL     1       3.170   0.414  -0.339  0.00  0.00    +0.010 A 
ATOM      8  C   UNL     1       2.881   1.731  -0.147  0.00  0.00    +0.010 A 
ATOM      9  C   UNL     1       1.567   2.190  -0.194  0.00  0.00    +0.021 A 
ATOM     10  C   UNL     1       0.531   1.333  -0.435  0.00  0.00    +0.148 A 
ATOM     11  C   UNL     1       0.792  -0.038  -0.638  0.00  0.00    +0.113 A 
ATOM     12  N   UNL     1      -0.200  -0.902  -0.875  0.00  0.00    -0.248 NA
BRANCH  10  13
ATOM     13  O   UNL     1      -0.744   1.800  -0.483  0.00  0.00    -0.504 OA
ATOM     14  H   UNL     1      -1.199   1.790   0.370  0.00  0.00    +0.292 HD
ENDBRANCH  10  13
ENDBRANCH   1   9
BRANCH   1  15
ATOM     15  C   UNL     1       0.987   3.898   1.479  0.00  0.00    -0.023 A 
ATOM     16  C   UNL     1       2.016   3.902   2.402  0.00  0.00    +0.009 A 
ATOM     17  C   UNL     1       1.746   4.131   3.738  0.00  0.00    +0.046 A 
ATOM     18  C   UNL     1       0.440   4.346   4.154  0.00  0.00    +0.117 A 
ATOM     19  C   UNL     1      -0.591   4.337   3.226  0.00  0.00    +0.046 A 
ATOM     20  C   UNL     1      -0.316   4.113   1.891  0.00  0.00    +0.009 A 
BRANCH  18  21
ATOM     21  O   UNL     1       0.172   4.566   5.468  0.00  0.00    -0.507 OA
ATOM     22  H   UNL     1      -0.009   3.761   5.972  0.00  0.00    +0.292 HD
ENDBRANCH  18  21
ENDBRANCH   1  15
BRANCH   1  23
ATOM     23  N   UNL     1       2.454   4.441  -0.376  0.00  0.00    -0.320 N 
ATOM     24  H   UNL     1       3.118   4.691   0.285  0.00  0.00    +0.148 HD
BRANCH  23  25
ATOM     25  C   UNL     1       2.611   4.830  -1.702  0.00  0.00    +0.097 A 
ATOM     26  C   UNL     1       1.714   4.378  -2.664  0.00  0.00    +0.041 A 
ATOM     27  C   UNL     1       1.879   4.778  -3.978  0.00  0.00    +0.005 A 
ATOM     28  C   UNL     1       2.947   5.610  -4.288  0.00  0.00    +0.018 A 
ATOM     29  C   UNL     1       3.803   6.015  -3.284  0.00  0.00    +0.084 A 
ATOM     30  N   UNL     1       3.668   5.647  -1.982  0.00  0.00    -0.350 N 
ATOM     31  H   UNL     1       4.320   5.964  -1.255  0.00  0.00    +0.166 HD
ENDBRANCH  23  25
ENDBRANCH   1  23
TORSDOF 6
