REMARK  Name = ZINC66242858
REMARK  5 active torsions:
REMARK  status: ('A' for Active; 'I' for Inactive)
REMARK    1  A    between atoms: C_5  and  C_7
REMARK    2  A    between atoms: C_7  and  C_9
REMARK    3  A    between atoms: C_7  and  N_19
REMARK    4  A    between atoms: C_9  and  N_10
REMARK    5  A    between atoms: N_13  and  C_14
REMARK                            x       y       z     vdW  Elec       q    Type
REMARK                         _______ _______ _______ _____ _____    ______ ____
ROOT
ATOM      1  C   UNL     1       1.229  -2.186  -0.022  0.00  0.00    +0.107 C 
ENDROOT
BRANCH   1   6
ATOM      2  C   UNL     1       0.887   1.469   0.861  0.00  0.00    +0.000 A 
ATOM      3  C   UNL     1       1.287   2.076  -0.315  0.00  0.00    +0.001 A 
ATOM      4  C   UNL     1       1.668   1.305  -1.396  0.00  0.00    +0.020 A 
ATOM      5  C   UNL     1       1.650  -0.076  -1.302  0.00  0.00    +0.046 A 
ATOM      6  C   UNL     1       1.250  -0.683  -0.125  0.00  0.00    -0.010 A 
ATOM      7  C   UNL     1       0.868   0.090   0.956  0.00  0.00    +0.006 A 
ATOM      8 CL   UNL     1       2.128  -1.045  -2.660  0.00  0.00    -0.083 Cl
ENDBRANCH   1   6
BRANCH   1   9
ATOM      9  N   UNL     1      -0.071  -2.691  -0.485  0.00  0.00    -0.289 NA
ATOM     10  C   UNL     1      -1.176  -2.030   0.224  0.00  0.00    +0.113 C 
ATOM     11  C   UNL     1      -2.506  -2.626  -0.245  0.00  0.00    +0.175 C 
ATOM     12  O   UNL     1      -2.612  -2.484  -1.664  0.00  0.00    -0.377 OA
ATOM     13  C   UNL     1      -1.552  -3.116  -2.387  0.00  0.00    +0.175 C 
ATOM     14  C   UNL     1      -0.212  -2.525  -1.939  0.00  0.00    +0.113 C 
ENDBRANCH   1   9
BRANCH   1  15
ATOM     15  C   UNL     1       1.446  -2.600   1.435  0.00  0.00    +0.139 C 
BRANCH  15  16
ATOM     16  N   UNL     1       1.307  -4.054   1.555  0.00  0.00    -0.356 N 
ATOM     17  C   UNL     1       1.462  -4.660   2.779  0.00  0.00    +0.169 C 
ATOM     18  N   UNL     1       1.732  -3.942   3.833  0.00  0.00    -0.371 N 
ATOM     19  N   UNL     1       1.331  -6.024   2.892  0.00  0.00    -0.355 N 
ATOM     20  H   UNL     1       1.106  -4.588   0.771  0.00  0.00    +0.162 HD
ATOM     21  H   UNL     1       1.841  -4.370   4.697  0.00  0.00    +0.159 HD
ATOM     22  H   UNL     1       1.131  -6.559   2.108  0.00  0.00    +0.163 HD
ATOM     23  H   UNL     1       1.824  -2.979   3.753  0.00  0.00    +0.159 HD
BRANCH  19  24
ATOM     24  C   UNL     1       1.496  -6.670   4.197  0.00  0.00    +0.082 C 
ATOM     25  C   UNL     1       2.982  -7.011   4.434  0.00  0.00    +0.024 C 
ATOM     26  C   UNL     1       2.946  -8.371   5.175  0.00  0.00    +0.002 C 
ATOM     27  C   UNL     1       1.776  -9.109   4.478  0.00  0.00    +0.002 C 
ATOM     28  C   UNL     1       0.729  -8.004   4.225  0.00  0.00    +0.024 C 
ENDBRANCH  19  24
ENDBRANCH  15  16
ENDBRANCH   1  15
TORSDOF 5
