REMARK  Name = ZINC17420833
REMARK  8 active torsions:
REMARK  status: ('A' for Active; 'I' for Inactive)
REMARK    1  A    between atoms: C_1  and  C_2
REMARK    2  A    between atoms: C_2  and  C_3
REMARK    3  A    between atoms: C_3  and  C_4
REMARK    4  A    between atoms: C_3  and  C_24
REMARK    5  A    between atoms: C_3  and  O_28
REMARK    6  A    between atoms: C_10  and  C_11
REMARK    7  A    between atoms: C_11  and  O_12
REMARK    8  A    between atoms: N_26  and  C_27
REMARK                            x       y       z     vdW  Elec       q    Type
REMARK                         _______ _______ _______ _____ _____    ______ ____
ROOT
ATOM      1  C   UNL     1      -5.713   2.977   2.443  0.00  0.00    +0.005 A 
ATOM      2  C   UNL     1      -4.402   2.666   2.074  0.00  0.00    +0.035 A 
ATOM      3  C   UNL     1      -4.076   1.375   1.710  0.00  0.00    +0.071 A 
ATOM      4  N   UNL     1      -5.035   0.402   1.712  0.00  0.00    -0.302 N 
ATOM      5  C   UNL     1      -6.305   0.689   2.067  0.00  0.00    +0.258 A 
ATOM      6  O   UNL     1      -7.149  -0.192   2.062  0.00  0.00    -0.267 OA
ATOM      7  C   UNL     1      -6.661   1.996   2.441  0.00  0.00    +0.049 A 
ATOM      8  C   UNL     1      -4.423  -0.864   1.289  0.00  0.00    +0.162 C 
ATOM      9  C   UNL     1      -2.969  -0.568   1.023  0.00  0.00    +0.000 A 
ATOM     10  C   UNL     1      -2.778   0.800   1.285  0.00  0.00    +0.093 A 
ATOM     11  N   UNL     1      -1.586   1.357   1.142  0.00  0.00    -0.245 NA
ATOM     12  C   UNL     1      -0.531   0.649   0.737  0.00  0.00    +0.072 A 
ATOM     13  C   UNL     1       0.731   1.254   0.583  0.00  0.00    +0.028 A 
ATOM     14  C   UNL     1       1.792   0.509   0.174  0.00  0.00    +0.002 A 
ATOM     15  C   UNL     1       1.654  -0.851  -0.098  0.00  0.00    +0.001 A 
ATOM     16  C   UNL     1       0.450  -1.473   0.038  0.00  0.00    +0.010 A 
ATOM     17  C   UNL     1      -0.667  -0.735   0.459  0.00  0.00    +0.001 A 
ATOM     18  C   UNL     1      -1.930  -1.343   0.612  0.00  0.00    +0.017 A 
ENDROOT
BRANCH   1  19
ATOM     19  C   UNL     1      -6.077   4.385   2.841  0.00  0.00    +0.166 C 
BRANCH  19  20
ATOM     20  C   UNL     1      -6.694   5.095   1.664  0.00  0.00    +0.249 C 
ATOM     21  O   UNL     1      -6.712   4.562   0.575  0.00  0.00    -0.272 OA
ATOM     22  N   UNL     1      -7.226   6.324   1.822  0.00  0.00    -0.316 N 
ATOM     23  C   UNL     1      -7.826   7.015   0.678  0.00  0.00    +0.128 C 
ATOM     24  H   UNL     1      -7.213   6.750   2.693  0.00  0.00    +0.148 HD
ENDBRANCH  19  20
BRANCH  19  26
ATOM     25  C   UNL     1      -6.964   5.632   4.816  0.00  0.00    +0.007 C 
ATOM     26  C   UNL     1      -7.080   4.345   3.996  0.00  0.00    +0.046 C 
ENDBRANCH  19  26
BRANCH  19  27
ATOM     27  O   UNL     1      -4.901   5.082   3.255  0.00  0.00    -0.375 OA
ATOM     28  H   UNL     1      -4.180   5.054   2.611  0.00  0.00    +0.211 HD
ENDBRANCH  19  27
ENDBRANCH   1  19
BRANCH   7  29
ATOM     29  C   UNL     1      -8.081   2.311   2.836  0.00  0.00    +0.196 C 
BRANCH  29  30
ATOM     30  O   UNL     1      -8.611   3.304   1.955  0.00  0.00    -0.390 OA
ATOM     31  H   UNL     1      -9.493   3.616   2.200  0.00  0.00    +0.210 HD
ENDBRANCH  29  30
ENDBRANCH   7  29
TORSDOF 6
