REMARK  Name = ZINC39272763
REMARK  4 active torsions:
REMARK  status: ('A' for Active; 'I' for Inactive)
REMARK    1  A    between atoms: C_3  and  N_11
REMARK    2  A    between atoms: C_6  and  C_7
REMARK    3  A    between atoms: N_11  and  C_12
REMARK    4  A    between atoms: C_20  and  N_22
REMARK                            x       y       z     vdW  Elec       q    Type
REMARK                         _______ _______ _______ _____ _____    ______ ____
ROOT
ATOM      1  N   UNL     1       3.582   2.122  -0.021  0.00  0.00    -0.318 N 
ATOM      2  H   UNL     1       3.568   3.092  -0.039  0.00  0.00    +0.148 HD
ENDROOT
BRANCH   1   3
ATOM      3  C   UNL     1       4.858   1.409   0.073  0.00  0.00    +0.245 C 
ATOM      4  C   UNL     1       5.652   2.010   1.207  0.00  0.00    +0.127 C 
ATOM      5  N   UNL     1       5.498   2.196   2.478  0.00  0.00    -0.233 NA
ATOM      6  C   UNL     1       6.590   2.808   2.975  0.00  0.00    +0.224 C 
ATOM      7  N   UNL     1       7.480   3.036   2.043  0.00  0.00    -0.217 NA
ATOM      8  C   UNL     1       6.990   2.568   0.865  0.00  0.00    +0.160 C 
ATOM      9  N   UNL     1       7.404   2.512  -0.369  0.00  0.00    -0.310 N 
ATOM     10  C   UNL     1       6.686   1.973  -1.377  0.00  0.00    +0.209 C 
ATOM     11  N   UNL     1       5.508   1.447  -1.251  0.00  0.00    -0.224 NA
ATOM     12  H   UNL     1       8.277   2.880  -0.576  0.00  0.00    +0.170 HD
BRANCH  10  13
ATOM     13  N   UNL     1       7.250   1.983  -2.639  0.00  0.00    -0.234 NA
ATOM     14  H   UNL     1       6.766   1.604  -3.389  0.00  0.00    +0.173 HD
ENDBRANCH  10  13
ENDBRANCH   1   3
BRANCH   1  17
ATOM     15  C   UNL     1       1.222  -0.681  -0.290  0.00  0.00    +0.014 A 
ATOM     16  C   UNL     1       2.407   0.024  -0.227  0.00  0.00    +0.023 A 
ATOM     17  C   UNL     1       2.385   1.406  -0.086  0.00  0.00    +0.029 A 
ATOM     18  C   UNL     1       1.169   2.073  -0.010  0.00  0.00    +0.023 A 
ATOM     19  C   UNL     1      -0.013   1.362  -0.075  0.00  0.00    +0.014 A 
ATOM     20  C   UNL     1       0.013  -0.014  -0.214  0.00  0.00    +0.055 A 
BRANCH  20  21
ATOM     21  C   UNL     1      -1.279  -0.787  -0.284  0.00  0.00    +0.417 C 
ATOM     22  F   UNL     1      -1.670  -1.159   1.006  0.00  0.00    -0.166 F 
ATOM     23  F   UNL     1      -2.271   0.015  -0.859  0.00  0.00    -0.166 F 
ATOM     24  F   UNL     1      -1.095  -1.933  -1.065  0.00  0.00    -0.166 F 
ENDBRANCH  20  21
ENDBRANCH   1  17
TORSDOF 4
