REMARK  Name = ZINC66575486
REMARK  5 active torsions:
REMARK  status: ('A' for Active; 'I' for Inactive)
REMARK    1  A    between atoms: C_3  and  O_8
REMARK    2  A    between atoms: O_8  and  C_9
REMARK    3  A    between atoms: C_12  and  S_15
REMARK    4  A    between atoms: S_15  and  N_18
REMARK    5  A    between atoms: N_18  and  C_19
REMARK                            x       y       z     vdW  Elec       q    Type
REMARK                         _______ _______ _______ _____ _____    ______ ____
ROOT
ATOM      1  C   UNL     1       5.244   1.829   0.679  0.00  0.00    +0.129 A 
ATOM      2  C   UNL     1       5.176   0.447   0.581  0.00  0.00    +0.048 A 
ATOM      3  C   UNL     1       6.333  -0.289   0.410  0.00  0.00    +0.032 A 
ATOM      4  C   UNL     1       7.557   0.350   0.337  0.00  0.00    +0.105 A 
ATOM      5  C   UNL     1       7.626   1.728   0.435  0.00  0.00    +0.032 A 
ATOM      6  C   UNL     1       6.472   2.469   0.600  0.00  0.00    +0.048 A 
ENDROOT
BRANCH   4   7
ATOM      7  S   UNL     1       9.030  -0.592   0.120  0.00  0.00    +0.059 S 
ATOM      8  O   UNL     1      10.096   0.198   0.629  0.00  0.00    -0.153 OA
ATOM      9  O   UNL     1       8.751  -1.898   0.603  0.00  0.00    -0.153 OA
BRANCH   7  10
ATOM     10  N   UNL     1       9.283  -0.734  -1.511  0.00  0.00    -0.178 NA
ATOM     11  H   UNL     1       9.240  -1.606  -1.934  0.00  0.00    +0.149 HD
BRANCH  10  12
ATOM     12  C   UNL     1       9.572   0.456  -2.314  0.00  0.00    +0.162 C 
ATOM     13  C   UNL     1       9.061   0.249  -3.742  0.00  0.00    +0.030 C 
ATOM     14  C   UNL     1       9.215  -1.201  -4.163  0.00  0.00    +0.004 C 
ATOM     15  C   UNL     1      10.658  -1.650  -4.299  0.00  0.00    +0.019 C 
ATOM     16  C   UNL     1      11.354  -1.668  -2.937  0.00  0.00    +0.104 C 
ATOM     17  N   UNL     1      11.890  -0.325  -2.664  0.00  0.00    -0.314 N 
ATOM     18  C   UNL     1      11.068   0.686  -2.363  0.00  0.00    +0.232 C 
ATOM     19  O   UNL     1      11.518   1.789  -2.135  0.00  0.00    -0.274 OA
ATOM     20  H   UNL     1      12.847  -0.171  -2.700  0.00  0.00    +0.149 HD
ENDBRANCH  10  12
ENDBRANCH   7  10
ENDBRANCH   4   7
BRANCH   1  21
ATOM     21  O   UNL     1       4.108   2.556   0.848  0.00  0.00    -0.456 OA
BRANCH  21  24
ATOM     22  C   UNL     1       4.006   2.591   4.485  0.00  0.00    +0.005 A 
ATOM     23  C   UNL     1       4.429   2.334   3.195  0.00  0.00    +0.046 A 
ATOM     24  C   UNL     1       3.693   2.807   2.117  0.00  0.00    +0.130 A 
ATOM     25  C   UNL     1       2.534   3.537   2.338  0.00  0.00    +0.066 A 
ATOM     26  C   UNL     1       2.115   3.792   3.631  0.00  0.00    +0.044 A 
ATOM     27  C   UNL     1       2.851   3.318   4.703  0.00  0.00    +0.020 A 
ATOM     28 CL   UNL     1       0.666   4.706   3.909  0.00  0.00    -0.083 Cl
ENDBRANCH  21  24
ENDBRANCH   1  21
TORSDOF 5
