REMARK  Name = ZINC31167456
REMARK  18 active torsions:
REMARK  status: ('A' for Active; 'I' for Inactive)
REMARK    1  A    between atoms: C_1  and  C_2
REMARK    2  A    between atoms: C_2  and  C_4
REMARK    3  A    between atoms: C_2  and  O_38
REMARK    4  A    between atoms: C_4  and  C_5
REMARK    5  A    between atoms: C_5  and  C_7
REMARK    6  A    between atoms: C_5  and  O_37
REMARK    7  A    between atoms: C_7  and  C_9
REMARK    8  A    between atoms: C_7  and  S_29
REMARK    9  A    between atoms: C_9  and  C_11
REMARK   10  A    between atoms: C_9  and  O_28
REMARK   11  A    between atoms: C_12  and  C_13
REMARK   12  A    between atoms: C_13  and  C_14
REMARK   13  A    between atoms: C_18  and  O_24
REMARK   14  A    between atoms: C_20  and  O_23
REMARK   15  A    between atoms: S_29  and  C_30
REMARK   16  A    between atoms: C_30  and  C_31
REMARK   17  A    between atoms: C_31  and  C_33
REMARK   18  A    between atoms: C_31  and  O_36
REMARK                            x       y       z     vdW  Elec       q    Type
REMARK                         _______ _______ _______ _____ _____    ______ ____
ROOT
ATOM      1  C   UNL     1      -0.988   2.865  -3.215  0.00  0.00    +0.152 C 
ENDROOT
BRANCH   1   2
ATOM      2  O   UNL     1      -0.627   2.267  -4.461  0.00  0.00    -0.387 OA
ATOM      3  H   UNL     1      -0.687   1.176  -4.586  0.00  0.00    +0.210 HD
ENDBRANCH   1   2
BRANCH   1   4
ATOM      4  C   UNL     1      -0.100   2.325  -2.123  0.00  0.00    +0.001 C 
ATOM      5  C   UNL     1      -0.626   1.688  -1.106  0.00  0.00    -0.021 C 
BRANCH   5   6
ATOM      6  C   UNL     1       0.261   1.147  -0.015  0.00  0.00    +0.101 C 
BRANCH   6   7
ATOM      7  C   UNL     1      -0.198   1.683   1.317  0.00  0.00    +0.113 A 
ATOM      8  C   UNL     1      -1.109   0.988   2.009  0.00  0.00    +0.052 A 
ATOM      9  C   UNL     1      -1.565   1.496   3.307  0.00  0.00    +0.018 A 
ATOM     10  C   UNL     1      -1.015   2.715   3.775  0.00  0.00    +0.109 A 
ATOM     11  C   UNL     1      -1.423   3.234   5.009  0.00  0.00    +0.135 A 
ATOM     12  C   UNL     1      -2.363   2.549   5.758  0.00  0.00    +0.093 A 
ATOM     13  C   UNL     1      -2.901   1.352   5.296  0.00  0.00    +0.139 A 
ATOM     14  C   UNL     1      -2.508   0.823   4.075  0.00  0.00    +0.091 A 
ATOM     15 CL   UNL     1      -3.189  -0.671   3.511  0.00  0.00    -0.079 Cl
ATOM     16  C   UNL     1      -0.025   3.390   2.936  0.00  0.00    +0.348 A 
ATOM     17  O   UNL     1       0.475   4.439   3.297  0.00  0.00    -0.244 OA
ATOM     18  O   UNL     1       0.328   2.835   1.762  0.00  0.00    -0.426 OA
BRANCH  11  19
ATOM     19  O   UNL     1      -0.902   4.401   5.467  0.00  0.00    -0.506 OA
ATOM     20  H   UNL     1      -1.227   4.805   6.437  0.00  0.00    +0.292 HD
ENDBRANCH  11  19
BRANCH  13  21
ATOM     21  O   UNL     1      -3.822   0.695   6.047  0.00  0.00    -0.505 OA
ATOM     22  H   UNL     1      -4.252  -0.251   5.688  0.00  0.00    +0.292 HD
ENDBRANCH  13  21
ENDBRANCH   6   7
ENDBRANCH   5   6
ENDBRANCH   1   4
BRANCH   1  23
ATOM     23  C   UNL     1      -0.816   4.382  -3.308  0.00  0.00    +0.107 C 
BRANCH  23  24
ATOM     24  S   UNL     1      -1.887   5.033  -4.619  0.00  0.00    -0.149 S 
BRANCH  24  25
ATOM     25  C   UNL     1      -2.138   6.770  -4.159  0.00  0.00    +0.112 C 
BRANCH  25  26
ATOM     26  C   UNL     1      -3.137   7.413  -5.123  0.00  0.00    +0.237 C 
BRANCH  26  27
ATOM     27  C   UNL     1      -3.253   8.884  -4.818  0.00  0.00    +0.385 C 
ATOM     28  O   UNL     1      -4.297   9.338  -4.414  0.00  0.00    -0.243 OA
ATOM     29  O   UNL     1      -2.195   9.692  -4.996  0.00  0.00    -0.243 OA
ENDBRANCH  26  27
BRANCH  26  30
ATOM     30  O   UNL     1      -4.415   6.793  -4.968  0.00  0.00    -0.380 OA
ATOM     31  H   UNL     1      -5.266   7.125  -5.580  0.00  0.00    +0.211 HD
ENDBRANCH  26  30
ENDBRANCH  25  26
ENDBRANCH  24  25
ENDBRANCH  23  24
BRANCH  23  32
ATOM     32  C   UNL     1       0.643   4.711  -3.631  0.00  0.00    +0.133 C 
BRANCH  32  33
ATOM     33  O   UNL     1       0.970   4.204  -4.927  0.00  0.00    -0.391 OA
ATOM     34  H   UNL     1       0.889   3.126  -5.132  0.00  0.00    +0.210 HD
ENDBRANCH  32  33
BRANCH  32  35
ATOM     35  C   UNL     1       0.840   6.228  -3.614  0.00  0.00    +0.063 C 
BRANCH  35  37
ATOM     36  C   UNL     1       2.509   8.067  -3.890  0.00  0.00    +0.037 C 
ATOM     37  C   UNL     1       2.326   6.552  -3.783  0.00  0.00    +0.114 C 
BRANCH  37  38
ATOM     38  O   UNL     1       3.052   6.063  -2.654  0.00  0.00    -0.392 OA
ATOM     39  H   UNL     1       3.039   4.989  -2.415  0.00  0.00    +0.210 HD
ENDBRANCH  37  38
ENDBRANCH  35  37
ENDBRANCH  32  35
ENDBRANCH  23  32
ENDBRANCH   1  23
TORSDOF 17
