REMARK  Name = ZINC10085007
REMARK  9 active torsions:
REMARK  status: ('A' for Active; 'I' for Inactive)
REMARK    1  A    between atoms: C_1  and  C_2
REMARK    2  A    between atoms: C_2  and  C_4
REMARK    3  A    between atoms: C_2  and  O_15
REMARK    4  A    between atoms: N_6  and  C_7
REMARK    5  A    between atoms: C_11  and  C_13
REMARK    6  A    between atoms: O_15  and  C_16
REMARK    7  A    between atoms: C_16  and  C_18
REMARK    8  A    between atoms: C_19  and  C_20
REMARK    9  A    between atoms: C_24  and  N_26
REMARK                            x       y       z     vdW  Elec       q    Type
REMARK                         _______ _______ _______ _____ _____    ______ ____
ROOT
ATOM      1  O   UNL     1       2.430   7.927   0.212  0.00  0.00    -0.449 OA
ENDROOT
BRANCH   1   3
ATOM      2  C   UNL     1       0.432   7.832   1.568  0.00  0.00    +0.062 C 
ATOM      3  C   UNL     1       1.090   7.434   0.245  0.00  0.00    +0.259 C 
BRANCH   3   4
ATOM      4  C   UNL     1       1.104   5.932   0.124  0.00  0.00    +0.258 C 
ATOM      5  O   UNL     1       2.160   5.335   0.111  0.00  0.00    -0.271 OA
ATOM      6  N   UNL     1      -0.056   5.252   0.030  0.00  0.00    -0.282 N 
ATOM      7  H   UNL     1      -0.895   5.733  -0.037  0.00  0.00    +0.155 HD
BRANCH   6   8
ATOM      8  C   UNL     1      -0.048   3.853   0.029  0.00  0.00    +0.035 A 
ATOM      9  C   UNL     1      -0.994   3.153  -0.712  0.00  0.00    +0.023 A 
ATOM     10  C   UNL     1      -0.992   1.771  -0.717  0.00  0.00    +0.003 A 
ATOM     11  C   UNL     1      -0.050   1.076   0.014  0.00  0.00    +0.019 A 
ATOM     12  C   UNL     1       0.901   1.768   0.766  0.00  0.00    +0.054 A 
ATOM     13  C   UNL     1       0.902   3.164   0.766  0.00  0.00    +0.042 A 
BRANCH  12  14
ATOM     14  C   UNL     1       1.875   1.049   1.530  0.00  0.00    +0.099 C 
ATOM     15  N   UNL     1       2.649   0.479   2.136  0.00  0.00    -0.191 NA
ENDBRANCH  12  14
ENDBRANCH   6   8
ENDBRANCH   3   4
ENDBRANCH   1   3
BRANCH   1  16
ATOM     16  C   UNL     1       2.617   9.160  -0.303  0.00  0.00    +0.333 C 
ATOM     17  O   UNL     1       1.666   9.798  -0.713  0.00  0.00    -0.246 OA
BRANCH  16  18
ATOM     18  C   UNL     1       3.962   9.730  -0.369  0.00  0.00    +0.092 C 
ATOM     19  C   UNL     1       4.148  10.963  -0.884  0.00  0.00    +0.015 C 
BRANCH  19  20
ATOM     20  C   UNL     1       5.501  11.536  -0.950  0.00  0.00    -0.023 A 
ATOM     21  C   UNL     1       6.598  10.805  -0.480  0.00  0.00    +0.009 A 
ATOM     22  C   UNL     1       7.862  11.348  -0.545  0.00  0.00    +0.023 A 
ATOM     23  C   UNL     1       8.050  12.615  -1.074  0.00  0.00    +0.071 A 
ATOM     24  C   UNL     1       6.969  13.345  -1.541  0.00  0.00    +0.145 A 
ATOM     25  C   UNL     1       5.699  12.812  -1.488  0.00  0.00    +0.042 A 
ATOM     26 CL   UNL     1       9.647  13.291  -1.151  0.00  0.00    -0.081 Cl
BRANCH  24  27
ATOM     27  N   UNL     1       7.179  14.698  -2.104  0.00  0.00    +0.058 N 
ATOM     28  O   UNL     1       6.230  15.340  -2.515  0.00  0.00    -0.126 OA
ATOM     29  O   UNL     1       8.302  15.168  -2.155  0.00  0.00    -0.126 OA
ENDBRANCH  24  27
ENDBRANCH  19  20
ENDBRANCH  16  18
ENDBRANCH   1  16
TORSDOF 8
