REMARK  Name = ZINC67131638
REMARK  6 active torsions:
REMARK  status: ('A' for Active; 'I' for Inactive)
REMARK    1  A    between atoms: C_1  and  C_2
REMARK    2  A    between atoms: C_2  and  C_4
REMARK    3  A    between atoms: C_2  and  N_11
REMARK    4  A    between atoms: N_11  and  C_12
REMARK    5  A    between atoms: C_12  and  C_13
REMARK    6  A    between atoms: N_15  and  N_16
REMARK                            x       y       z     vdW  Elec       q    Type
REMARK                         _______ _______ _______ _____ _____    ______ ____
ROOT
ATOM      1  C   UNL     1      -3.311  -1.115   1.354  0.00  0.00    +0.244 C 
ATOM      2  O   UNL     1      -3.831  -1.396   0.295  0.00  0.00    -0.273 OA
ATOM      3  N   UNL     1      -3.996  -1.271   2.504  0.00  0.00    -0.223 N 
ATOM      4  H   UNL     1      -3.579  -1.045   3.351  0.00  0.00    +0.174 HD
ENDROOT
BRANCH   3   5
ATOM      5  N   UNL     1      -5.309  -1.758   2.477  0.00  0.00    -0.137 N 
ATOM      6  C   UNL     1      -6.405  -0.994   2.660  0.00  0.00    +0.263 C 
ATOM      7  O   UNL     1      -6.441   0.199   2.871  0.00  0.00    -0.271 OA
ATOM      8  C   UNL     1      -7.580  -1.939   2.545  0.00  0.00    +0.114 C 
ATOM      9  C   UNL     1      -8.477  -1.533   1.381  0.00  0.00    +0.035 C 
ATOM     10  C   UNL     1      -9.642  -2.520   1.264  0.00  0.00    +0.003 C 
ATOM     11  C   UNL     1     -10.440  -2.521   2.570  0.00  0.00    +0.000 C 
ATOM     12  C   UNL     1      -9.533  -2.952   3.724  0.00  0.00    +0.003 C 
ATOM     13  C   UNL     1      -8.368  -1.968   3.850  0.00  0.00    +0.035 C 
ATOM     14  N   UNL     1      -6.962  -3.246   2.288  0.00  0.00    -0.284 N 
ATOM     15  C   UNL     1      -5.631  -3.039   2.260  0.00  0.00    +0.326 C 
ATOM     16  O   UNL     1      -4.815  -3.918   2.064  0.00  0.00    -0.251 OA
ATOM     17  H   UNL     1      -7.421  -4.090   2.160  0.00  0.00    +0.151 HD
ENDBRANCH   3   5
BRANCH   1  18
ATOM     18  C   UNL     1      -1.898  -0.590   1.383  0.00  0.00    +0.179 C 
BRANCH  18  19
ATOM     19  N   UNL     1      -1.376  -0.512   0.012  0.00  0.00    -0.302 NA
ATOM     20  H   UNL     1      -1.974   0.053  -0.571  0.00  0.00    +0.123 HD
BRANCH  19  22
ATOM     21  C   UNL     1      -0.019   1.526   0.010  0.00  0.00    +0.029 C 
ATOM     22  C   UNL     1       0.002  -0.004   0.002  0.00  0.00    +0.081 C 
BRANCH  22  23
ATOM     23  C   UNL     1       0.707  -0.490  -1.238  0.00  0.00    -0.031 A 
ATOM     24  C   UNL     1       0.037  -0.521  -2.447  0.00  0.00    +0.006 A 
ATOM     25  C   UNL     1       0.684  -0.967  -3.584  0.00  0.00    +0.020 A 
ATOM     26  C   UNL     1       2.002  -1.382  -3.513  0.00  0.00    +0.041 A 
ATOM     27  C   UNL     1       2.672  -1.350  -2.303  0.00  0.00    +0.020 A 
ATOM     28  C   UNL     1       2.026  -0.899  -1.167  0.00  0.00    +0.006 A 
ATOM     29 CL   UNL     1       2.814  -1.942  -4.941  0.00  0.00    -0.084 Cl
ENDBRANCH  22  23
ENDBRANCH  19  22
ENDBRANCH  18  19
ENDBRANCH   1  18
TORSDOF 5
