REMARK  Name = ZINC64540641
REMARK  10 active torsions:
REMARK  status: ('A' for Active; 'I' for Inactive)
REMARK    1  A    between atoms: C_1  and  C_2
REMARK    2  A    between atoms: C_2  and  N_3
REMARK    3  A    between atoms: N_6  and  C_9
REMARK    4  A    between atoms: C_9  and  C_10
REMARK    5  A    between atoms: C_10  and  C_11
REMARK    6  A    between atoms: C_11  and  N_12
REMARK    7  A    between atoms: C_13  and  C_15
REMARK    8  A    between atoms: C_15  and  C_17
REMARK    9  A    between atoms: C_15  and  C_18
REMARK   10  A    between atoms: C_24  and  C_26
REMARK                            x       y       z     vdW  Elec       q    Type
REMARK                         _______ _______ _______ _____ _____    ______ ____
ROOT
ATOM      1  C   UNL     1       5.063  -8.210  -5.700  0.00  0.00    +0.075 C 
ATOM      2  C   UNL     1       3.652  -8.801  -5.677  0.00  0.00    +0.017 C 
ENDROOT
BRANCH   1   3
ATOM      3  C   UNL     1       5.814  -8.734  -6.926  0.00  0.00    +0.004 C 
ATOM      4  C   UNL     1       7.226  -8.142  -6.950  0.00  0.00    +0.023 C 
ATOM      5  C   UNL     1       7.963  -8.641  -8.196  0.00  0.00    +0.108 C 
ATOM      6  N   UNL     1       7.925 -10.110  -8.212  0.00  0.00    -0.300 N 
ATOM      7  C   UNL     1       6.624 -10.784  -8.102  0.00  0.00    +0.108 C 
ATOM      8  C   UNL     1       5.901 -10.261  -6.857  0.00  0.00    +0.023 C 
ATOM      9  C   UNL     1       9.061 -10.825  -8.325  0.00  0.00    +0.242 C 
ATOM     10  O   UNL     1      10.129 -10.257  -8.416  0.00  0.00    -0.273 OA
BRANCH   9  11
ATOM     11  C   UNL     1       9.005 -12.331  -8.340  0.00  0.00    +0.190 C 
ATOM     12  C   UNL     1       8.447 -12.845  -7.032  0.00  0.00    +0.016 C 
ATOM     13  C   UNL     1       9.418 -13.610  -6.484  0.00  0.00    -0.004 A 
ATOM     14  C   UNL     1       9.494 -14.377  -5.235  0.00  0.00    +0.010 A 
ATOM     15  C   UNL     1      10.627 -15.059  -4.952  0.00  0.00    +0.001 A 
ATOM     16  C   UNL     1      11.728 -15.052  -5.819  0.00  0.00    +0.002 A 
ATOM     17  C   UNL     1      11.734 -14.370  -6.984  0.00  0.00    +0.026 A 
ATOM     18  C   UNL     1      10.595 -13.618  -7.383  0.00  0.00    +0.043 A 
ATOM     19  N   UNL     1      10.359 -12.887  -8.447  0.00  0.00    -0.370 N 
ATOM     20  H   UNL     1      10.976 -12.738  -9.181  0.00  0.00    +0.161 HD
ENDBRANCH   9  11
ENDBRANCH   1   3
BRANCH   1  22
ATOM     21  N   UNL     1       4.354  -6.023  -4.788  0.00  0.00    -0.315 N 
ATOM     22  C   UNL     1       4.977  -6.707  -5.768  0.00  0.00    +0.216 C 
ATOM     23  O   UNL     1       5.469  -6.114  -6.704  0.00  0.00    -0.276 OA
ATOM     24  H   UNL     1       3.961  -6.498  -4.040  0.00  0.00    +0.149 HD
BRANCH  21  25
ATOM     25  C   UNL     1       4.271  -4.562  -4.854  0.00  0.00    +0.105 C 
BRANCH  25  26
ATOM     26  C   UNL     1       3.520  -4.038  -3.629  0.00  0.00    +0.034 C 
BRANCH  26  27
ATOM     27  C   UNL     1       3.433  -2.512  -3.697  0.00  0.00    +0.086 C 
BRANCH  27  31
ATOM     28  N   UNL     1       0.690  -0.478  -1.207  0.00  0.00    +0.381 N 
ATOM     29  C   UNL     1       2.100  -0.069  -1.160  0.00  0.00    -0.063 C 
ATOM     30  C   UNL     1       2.812  -0.546  -2.427  0.00  0.00    +0.066 C 
ATOM     31  N   UNL     1       2.711  -2.009  -2.521  0.00  0.00    -0.306 NA
ATOM     32  C   UNL     1       1.305  -2.435  -2.544  0.00  0.00    +0.066 C 
ATOM     33  C   UNL     1       0.605  -1.943  -1.275  0.00  0.00    -0.063 C 
ATOM     34  H   UNL     1       0.251  -0.077  -2.022  0.00  0.00    -0.082 HD
BRANCH  28  36
ATOM     35  C   UNL     1      -0.019   1.526   0.010  0.00  0.00    -0.017 C 
ATOM     36  C   UNL     1       0.002  -0.004   0.002  0.00  0.00    -0.082 C 
ENDBRANCH  28  36
ENDBRANCH  27  31
ENDBRANCH  26  27
ENDBRANCH  25  26
ENDBRANCH  21  25
ENDBRANCH   1  22
TORSDOF 8
