REMARK  Name = ZINC43238569
REMARK  9 active torsions:
REMARK  status: ('A' for Active; 'I' for Inactive)
REMARK    1  A    between atoms: C_1  and  C_2
REMARK    2  A    between atoms: C_2  and  C_3
REMARK    3  A    between atoms: C_3  and  C_5
REMARK    4  A    between atoms: C_3  and  N_23
REMARK    5  A    between atoms: C_5  and  C_7
REMARK    6  A    between atoms: C_5  and  S_13
REMARK    7  A    between atoms: N_10  and  C_12
REMARK    8  A    between atoms: S_13  and  C_14
REMARK    9  A    between atoms: C_20  and  N_22
REMARK                            x       y       z     vdW  Elec       q    Type
REMARK                         _______ _______ _______ _____ _____    ______ ____
ROOT
ATOM      1  C   UNL     1      -1.447  -2.085   0.115  0.00  0.00    +0.073 C 
ENDROOT
BRANCH   1   2
ATOM      2  C   UNL     1      -0.712  -2.340   1.406  0.00  0.00    +0.002 A 
ATOM      3  C   UNL     1      -1.059  -1.836   2.663  0.00  0.00    +0.139 A 
ATOM      4  N   UNL     1      -0.187  -2.275   3.534  0.00  0.00    -0.180 NA
ATOM      5  N   UNL     1       0.744  -3.073   2.857  0.00  0.00    -0.274 N 
ATOM      6  C   UNL     1       0.397  -3.102   1.554  0.00  0.00    +0.112 A 
ATOM      7  C   UNL     1       1.889  -3.761   3.459  0.00  0.00    +0.172 C 
ENDBRANCH   1   2
BRANCH   1   8
ATOM      8  C   UNL     1      -1.454  -0.584  -0.180  0.00  0.00    -0.057 C 
BRANCH   8   9
ATOM      9  N   UNL     1      -2.245  -0.327  -1.390  0.00  0.00    +0.381 N 
ATOM     10  H   UNL     1      -1.885  -0.881  -2.152  0.00  0.00    -0.090 HD
ATOM     11  H   UNL     1      -3.209  -0.574  -1.221  0.00  0.00    -0.090 HD
ATOM     12  H   UNL     1      -2.186   0.652  -1.629  0.00  0.00    -0.090 HD
ENDBRANCH   8   9
BRANCH   8  14
ATOM     13  C   UNL     1      -0.014   1.421  -0.568  0.00  0.00    +0.002 C 
ATOM     14  C   UNL     1      -0.019  -0.100  -0.397  0.00  0.00    -0.018 C 
ENDBRANCH   8  14
ENDBRANCH   1   8
BRANCH   1  15
ATOM     15  S   UNL     1      -3.154  -2.681   0.263  0.00  0.00    -0.081 S 
BRANCH  15  16
ATOM     16  C   UNL     1      -2.988  -4.432   0.354  0.00  0.00    +0.171 A 
ATOM     17  N   UNL     1      -4.093  -5.197   0.576  0.00  0.00    -0.302 N 
ATOM     18  H   UNL     1      -4.960  -4.775   0.682  0.00  0.00    +0.171 HD
ATOM     19  C   UNL     1      -3.985  -6.540   0.648  0.00  0.00    +0.254 A 
ATOM     20  O   UNL     1      -4.971  -7.233   0.847  0.00  0.00    -0.268 OA
ATOM     21  C   UNL     1      -2.724  -7.125   0.492  0.00  0.00    +0.113 A 
ATOM     22  C   UNL     1      -1.630  -6.302   0.268  0.00  0.00    +0.124 A 
ATOM     23  N   UNL     1      -1.798  -4.977   0.201  0.00  0.00    -0.209 NA
BRANCH  22  24
ATOM     24  N   UNL     1      -0.372  -6.849   0.110  0.00  0.00    -0.343 N 
ATOM     25  H   UNL     1      -0.253  -7.811   0.156  0.00  0.00    +0.144 HD
ATOM     26  H   UNL     1       0.392  -6.273  -0.046  0.00  0.00    +0.144 HD
ENDBRANCH  22  24
ENDBRANCH  15  16
ENDBRANCH   1  15
TORSDOF 7
