REMARK  Name = ZINC00735819
REMARK  11 active torsions:
REMARK  status: ('A' for Active; 'I' for Inactive)
REMARK    1  A    between atoms: C_1  and  C_2
REMARK    2  A    between atoms: C_2  and  C_3
REMARK    3  A    between atoms: C_3  and  C_5
REMARK    4  A    between atoms: C_3  and  N_6
REMARK    5  A    between atoms: C_7  and  C_9
REMARK    6  A    between atoms: C_11  and  N_25
REMARK    7  A    between atoms: C_14  and  N_15
REMARK    8  A    between atoms: N_28  and  C_29
REMARK    9  A    between atoms: C_29  and  C_30
REMARK   10  A    between atoms: C_29  and  C_31
REMARK   11  A    between atoms: C_29  and  C_32
REMARK                            x       y       z     vdW  Elec       q    Type
REMARK                         _______ _______ _______ _____ _____    ______ ____
ROOT
ATOM      1  C   UNL     1      -0.215   0.406  -4.836  0.00  0.00    +0.059 A 
ATOM      2  C   UNL     1      -1.589   0.637  -4.728  0.00  0.00    +0.038 A 
ATOM      3  C   UNL     1      -2.317   0.996  -5.848  0.00  0.00    +0.036 A 
ATOM      4  C   UNL     1      -1.686   1.128  -7.081  0.00  0.00    +0.025 A 
ATOM      5  C   UNL     1      -0.330   0.902  -7.197  0.00  0.00    +0.026 A 
ATOM      6  C   UNL     1       0.416   0.546  -6.081  0.00  0.00    +0.042 A 
ENDROOT
BRANCH   6   7
ATOM      7  N   UNL     1       1.784   0.323  -6.199  0.00  0.00    -0.325 N 
ATOM      8  C   UNL     1       2.318  -1.012  -6.517  0.00  0.00    +0.110 C 
ATOM      9  C   UNL     1       3.013  -0.928  -7.875  0.00  0.00    +0.054 C 
ATOM     10  C   UNL     1       3.925   0.268  -7.938  0.00  0.00    -0.041 A 
ATOM     11  C   UNL     1       4.930   0.263  -8.898  0.00  0.00    +0.004 A 
ATOM     12  C   UNL     1       5.794   1.331  -9.016  0.00  0.00    +0.000 A 
ATOM     13  C   UNL     1       5.661   2.419  -8.173  0.00  0.00    +0.000 A 
ATOM     14  C   UNL     1       4.667   2.426  -7.217  0.00  0.00    +0.005 A 
ATOM     15  C   UNL     1       3.800   1.349  -7.094  0.00  0.00    -0.027 A 
ATOM     16  C   UNL     1       2.752   1.410  -6.016  0.00  0.00    +0.140 C 
ENDBRANCH   6   7
BRANCH   3  17
ATOM     17  N   UNL     1      -3.696   1.228  -5.741  0.00  0.00    -0.269 N 
ATOM     18  C   UNL     1      -4.279   2.183  -6.492  0.00  0.00    +0.304 C 
ATOM     19  O   UNL     1      -3.627   2.785  -7.323  0.00  0.00    -0.252 OA
ATOM     20  N   UNL     1      -5.585   2.469  -6.323  0.00  0.00    -0.294 N 
ATOM     21  H   UNL     1      -4.230   0.701  -5.126  0.00  0.00    +0.156 HD
ATOM     22  H   UNL     1      -6.105   1.988  -5.660  0.00  0.00    +0.151 HD
BRANCH  20  23
ATOM     23  C   UNL     1      -6.220   3.507  -7.140  0.00  0.00    +0.028 C 
ATOM     24  C   UNL     1      -6.113   3.128  -8.618  0.00  0.00    +0.031 C 
ATOM     25  C   UNL     1      -7.694   3.632  -6.750  0.00  0.00    +0.031 C 
ATOM     26  C   UNL     1      -5.514   4.844  -6.904  0.00  0.00    +0.031 C 
ENDBRANCH  20  23
ENDBRANCH   3  17
BRANCH   1  28
ATOM     27  N   UNL     1      -0.043  -0.111  -2.453  0.00  0.00    -0.309 N 
ATOM     28  C   UNL     1       0.568   0.022  -3.647  0.00  0.00    +0.246 C 
ATOM     29  O   UNL     1       1.764  -0.173  -3.744  0.00  0.00    -0.270 OA
ATOM     30  H   UNL     1      -0.997   0.045  -2.376  0.00  0.00    +0.149 HD
BRANCH  27  31
ATOM     31  C   UNL     1       0.735  -0.492  -1.271  0.00  0.00    +0.070 C 
ATOM     32  C   UNL     1       0.861  -2.015  -1.213  0.00  0.00    +0.028 C 
BRANCH  31  34
ATOM     33  C   UNL     1       0.012   1.540  -0.010  0.00  0.00    +0.005 C 
ATOM     34  C   UNL     1       0.027   0.011  -0.011  0.00  0.00    +0.018 C 
ENDBRANCH  31  34
ENDBRANCH  27  31
ENDBRANCH   1  28
TORSDOF 6
