REMARK  Name = ZINC07821598
REMARK  7 active torsions:
REMARK  status: ('A' for Active; 'I' for Inactive)
REMARK    1  A    between atoms: C_1  and  C_2
REMARK    2  A    between atoms: C_5  and  O_11
REMARK    3  A    between atoms: C_6  and  N_8
REMARK    4  A    between atoms: O_11  and  C_12
REMARK    5  A    between atoms: C_12  and  C_14
REMARK    6  A    between atoms: C_12  and  C_15
REMARK    7  A    between atoms: N_17  and  C_18
REMARK                            x       y       z     vdW  Elec       q    Type
REMARK                         _______ _______ _______ _____ _____    ______ ____
ROOT
ATOM      1  C   UNL     1       2.470  -2.762  -0.016  0.00  0.00    +0.256 C 
ATOM      2  C   UNL     1       3.193  -3.065   1.298  0.00  0.00    +0.062 C 
ENDROOT
BRANCH   1   3
ATOM      3  C   UNL     1       2.347  -4.028  -0.825  0.00  0.00    +0.258 C 
ATOM      4  O   UNL     1       1.251  -4.447  -1.131  0.00  0.00    -0.271 OA
ATOM      5  N   UNL     1       3.454  -4.693  -1.209  0.00  0.00    -0.282 N 
ATOM      6  H   UNL     1       4.327  -4.399  -0.903  0.00  0.00    +0.155 HD
BRANCH   5   7
ATOM      7  C   UNL     1       3.346  -5.808  -2.047  0.00  0.00    +0.034 A 
ATOM      8  C   UNL     1       2.345  -5.861  -3.010  0.00  0.00    +0.023 A 
ATOM      9  C   UNL     1       2.243  -6.962  -3.834  0.00  0.00    +0.006 A 
ATOM     10  C   UNL     1       3.134  -8.016  -3.707  0.00  0.00    -0.044 A 
ATOM     11  C   UNL     1       4.131  -7.966  -2.750  0.00  0.00    -0.042 A 
ATOM     12  C   UNL     1       4.240  -6.861  -1.925  0.00  0.00    +0.027 A 
ATOM     13  C   UNL     1       4.964  -9.228  -2.814  0.00  0.00    +0.036 C 
ATOM     14  C   UNL     1       4.648  -9.853  -4.189  0.00  0.00    +0.009 C 
ATOM     15  C   UNL     1       3.230  -9.315  -4.479  0.00  0.00    +0.036 C 
ENDBRANCH   5   7
ENDBRANCH   1   3
BRANCH   1  16
ATOM     16  O   UNL     1       1.167  -2.247   0.264  0.00  0.00    -0.478 OA
BRANCH  16  21
ATOM     17  C   UNL     1       0.760   3.284   1.246  0.00  0.00    +0.044 C 
ATOM     18  C   UNL     1       0.869   1.804   0.983  0.00  0.00    -0.048 A 
ATOM     19  C   UNL     1       2.112   1.222   0.822  0.00  0.00    +0.007 A 
ATOM     20  C   UNL     1       2.215  -0.135   0.581  0.00  0.00    +0.048 A 
ATOM     21  C   UNL     1       1.069  -0.913   0.501  0.00  0.00    +0.152 A 
ATOM     22  C   UNL     1      -0.177  -0.326   0.664  0.00  0.00    +0.168 A 
ATOM     23  C   UNL     1      -0.275   1.031   0.905  0.00  0.00    +0.039 A 
BRANCH  22  24
ATOM     24  N   UNL     1      -1.402  -1.153   0.581  0.00  0.00    +0.060 N 
ATOM     25  O   UNL     1      -2.496  -0.637   0.724  0.00  0.00    -0.126 OA
ATOM     26  O   UNL     1      -1.316  -2.349   0.368  0.00  0.00    -0.126 OA
ENDBRANCH  22  24
ENDBRANCH  16  21
ENDBRANCH   1  16
TORSDOF 5
