REMARK  Name = ZINC20679618
REMARK  3 active torsions:
REMARK  status: ('A' for Active; 'I' for Inactive)
REMARK    1  A    between atoms: C_5  and  N_7
REMARK    2  A    between atoms: C_11  and  C_20
REMARK    3  A    between atoms: C_23  and  O_26
REMARK                            x       y       z     vdW  Elec       q    Type
REMARK                         _______ _______ _______ _____ _____    ______ ____
ROOT
ATOM      1  C   UNL     1       1.168   2.086   0.002  0.00  0.00    +0.003 A 
ATOM      2  C   UNL     1       2.373   1.408  -0.005  0.00  0.00    +0.006 A 
ATOM      3  C   UNL     1       2.401   0.030  -0.004  0.00  0.00    -0.017 A 
ATOM      4  C   UNL     1       1.210  -0.703  -0.013  0.00  0.00    +0.062 A 
ATOM      5  C   UNL     1       0.002  -0.004   0.002  0.00  0.00    +0.147 A 
ATOM      6  C   UNL     1      -0.017   1.373   0.010  0.00  0.00    +0.034 A 
ATOM      7  N   UNL     1       1.151  -2.094  -0.059  0.00  0.00    -0.335 N 
ATOM      8  C   UNL     1       2.413  -2.805   0.022  0.00  0.00    +0.105 C 
ATOM      9  C   UNL     1       3.442  -2.036  -0.780  0.00  0.00    +0.029 C 
ATOM     10  C   UNL     1       3.674  -0.722   0.029  0.00  0.00    +0.049 C 
ATOM     11  C   UNL     1       4.934  -0.192  -0.544  0.00  0.00    -0.023 C 
ATOM     12  C   UNL     1       5.657  -1.213  -0.991  0.00  0.00    -0.030 C 
ATOM     13  C   UNL     1       4.896  -2.524  -0.777  0.00  0.00    +0.033 C 
ATOM     14  H   UNL     1       0.209  -2.654  -0.151  0.00  0.00    +0.147 HD
ENDROOT
BRANCH   8  15
ATOM     15  C   UNL     1       2.258  -4.194  -0.539  0.00  0.00    -0.027 A 
ATOM     16  C   UNL     1       1.473  -4.402  -1.659  0.00  0.00    +0.009 A 
ATOM     17  C   UNL     1       1.333  -5.674  -2.179  0.00  0.00    +0.046 A 
ATOM     18  C   UNL     1       1.972  -6.745  -1.571  0.00  0.00    +0.117 A 
ATOM     19  C   UNL     1       2.753  -6.535  -0.444  0.00  0.00    +0.046 A 
ATOM     20  C   UNL     1       2.894  -5.260   0.069  0.00  0.00    +0.009 A 
BRANCH  18  21
ATOM     21  O   UNL     1       1.831  -7.998  -2.078  0.00  0.00    -0.507 OA
ATOM     22  H   UNL     1       2.338  -8.847  -1.595  0.00  0.00    +0.292 HD
ENDBRANCH  18  21
ENDBRANCH   8  15
BRANCH   5  23
ATOM     23  N   UNL     1      -1.275  -0.752   0.009  0.00  0.00    +0.058 N 
ATOM     24  O   UNL     1      -2.333  -0.150   0.022  0.00  0.00    -0.126 OA
ATOM     25  O   UNL     1      -1.267  -1.970   0.003  0.00  0.00    -0.126 OA
ENDBRANCH   5  23
TORSDOF 3
