REMARK  Name = ZINC65265752
REMARK  5 active torsions:
REMARK  status: ('A' for Active; 'I' for Inactive)
REMARK    1  A    between atoms: C_1  and  O_2
REMARK    2  A    between atoms: O_2  and  C_3
REMARK    3  A    between atoms: C_3  and  C_4
REMARK    4  A    between atoms: C_4  and  N_5
REMARK    5  A    between atoms: C_21  and  C_23
REMARK                            x       y       z     vdW  Elec       q    Type
REMARK                         _______ _______ _______ _____ _____    ______ ____
ROOT
ATOM      1  N   UNL     1      -0.531  -1.979   1.394  0.00  0.00    -0.373 N 
ATOM      2  C   UNL     1      -0.531  -3.260   1.572  0.00  0.00    +0.095 C 
ATOM      3  N   UNL     1      -1.082  -4.117   0.650  0.00  0.00    -0.303 N 
ATOM      4  C   UNL     1      -0.273  -4.629  -0.360  0.00  0.00    +0.037 A 
ATOM      5  C   UNL     1      -0.731  -4.652  -1.670  0.00  0.00    +0.023 A 
ATOM      6  C   UNL     1       0.062  -5.172  -2.673  0.00  0.00    +0.002 A 
ATOM      7  C   UNL     1       1.314  -5.669  -2.360  0.00  0.00    +0.000 A 
ATOM      8  C   UNL     1       1.771  -5.641  -1.061  0.00  0.00    +0.007 A 
ATOM      9  C   UNL     1       0.988  -5.113  -0.038  0.00  0.00    -0.012 A 
ATOM     10  C   UNL     1       1.594  -5.096   1.342  0.00  0.00    +0.119 C 
ATOM     11  N   UNL     1       0.586  -5.215   2.405  0.00  0.00    -0.299 NA
ATOM     12  C   UNL     1       0.073  -3.883   2.784  0.00  0.00    +0.091 C 
ATOM     13  C   UNL     1      -0.941  -4.007   3.934  0.00  0.00    +0.050 C 
ATOM     14  C   UNL     1      -0.035  -4.032   5.186  0.00  0.00    +0.110 C 
ATOM     15  N   UNL     1       1.254  -3.434   4.807  0.00  0.00    -0.295 N 
ATOM     16  C   UNL     1       1.188  -3.020   3.390  0.00  0.00    +0.137 C 
ATOM     17  C   UNL     1       2.321  -3.289   5.617  0.00  0.00    +0.249 C 
ATOM     18  O   UNL     1       3.371  -2.868   5.171  0.00  0.00    -0.270 OA
ATOM     19  H   UNL     1      -0.131  -1.397   2.059  0.00  0.00    +0.161 HD
ATOM     20  H   UNL     1      -0.164  -5.828   2.125  0.00  0.00    +0.123 HD
ATOM     21  H   UNL     1      -2.019  -4.363   0.704  0.00  0.00    +0.153 HD
ENDROOT
BRANCH  17  22
ATOM     22  C   UNL     1       2.215  -3.641   7.048  0.00  0.00    +0.073 A 
ATOM     23  C   UNL     1       1.097  -3.248   7.786  0.00  0.00    +0.036 A 
ATOM     24  C   UNL     1       1.004  -3.580   9.122  0.00  0.00    +0.042 A 
ATOM     25  C   UNL     1       2.016  -4.303   9.732  0.00  0.00    +0.023 A 
ATOM     26  C   UNL     1       3.126  -4.696   9.009  0.00  0.00    +0.040 A 
ATOM     27  C   UNL     1       3.231  -4.374   7.668  0.00  0.00    +0.136 A 
ATOM     28  F   UNL     1       4.314  -4.764   6.960  0.00  0.00    -0.205 F 
ATOM     29 CL   UNL     1      -0.386  -3.092  10.041  0.00  0.00    -0.084 Cl
ENDBRANCH  17  22
BRANCH   1  30
ATOM     30  C   UNL     1      -1.135  -1.407   0.188  0.00  0.00    +0.141 C 
BRANCH  30  31
ATOM     31  C   UNL     1      -1.002   0.117   0.225  0.00  0.00    +0.180 C 
BRANCH  31  33
ATOM     32  C   UNL     1       0.615   1.885   0.191  0.00  0.00    +0.194 C 
ATOM     33  O   UNL     1       0.380   0.476   0.163  0.00  0.00    -0.381 OA
ENDBRANCH  31  33
ENDBRANCH  30  31
ENDBRANCH   1  30
TORSDOF 4
