REMARK  Name = ZINC63372988
REMARK  10 active torsions:
REMARK  status: ('A' for Active; 'I' for Inactive)
REMARK    1  A    between atoms: C_1  and  C_2
REMARK    2  A    between atoms: C_2  and  C_3
REMARK    3  A    between atoms: C_2  and  C_4
REMARK    4  A    between atoms: C_4  and  C_6
REMARK    5  A    between atoms: C_4  and  N_32
REMARK    6  A    between atoms: C_11  and  C_14
REMARK    7  A    between atoms: N_16  and  CA_17
REMARK    8  A    between atoms: CA_17  and  CB_19
REMARK    9  A    between atoms: CA_17  and  C_29
REMARK   10  A    between atoms: CB_19  and  CG_20
REMARK                            x       y       z     vdW  Elec       q    Type
REMARK                         _______ _______ _______ _____ _____    ______ ____
ROOT
ATOM      1  C   UNK A   0       2.141   4.084   5.290  0.00  0.00    +0.217 C 
ATOM      2  O   UNK A   0       3.328   4.129   5.042  0.00  0.00    -0.275 OA
ATOM      3  N   TRP A   1       1.666   4.655   6.414  0.00  0.00    -0.302 N 
ATOM      4  H   TRP A   1       0.717   4.619   6.613  0.00  0.00    +0.150 HD
ENDROOT
BRANCH   1  10
ATOM      5  C   UNK A   0       0.186  -0.127   2.472  0.00  0.00    +0.201 C 
ATOM      6  O   UNK A   0      -0.415  -0.961   3.115  0.00  0.00    -0.277 OA
ATOM      7  N   UNK A   0       0.239   1.149   2.905  0.00  0.00    -0.303 N 
ATOM      8  C   UNK A   0       1.024   2.155   2.176  0.00  0.00    +0.108 C 
ATOM      9  C   UNK A   0       1.989   2.831   3.155  0.00  0.00    +0.032 C 
ATOM     10  C   UNK A   0       1.199   3.388   4.342  0.00  0.00    +0.078 C 
ATOM     11  C   UNK A   0       0.495   2.242   5.072  0.00  0.00    +0.032 C 
ATOM     12  C   UNK A   0      -0.492   1.560   4.111  0.00  0.00    +0.108 C 
BRANCH   5  13
ATOM     13  C   UNK A   0       0.874  -0.515   1.189  0.00  0.00    +0.016 C 
BRANCH  13  14
ATOM     14  N   UNK A   0       1.213  -1.944   1.228  0.00  0.00    +0.386 N 
ATOM     15  H   UNK A   0       0.369  -2.487   1.336  0.00  0.00    -0.089 HD
ATOM     16  H   UNK A   0       1.673  -2.205   0.369  0.00  0.00    -0.089 HD
ATOM     17  H   UNK A   0       1.829  -2.122   2.008  0.00  0.00    -0.089 HD
ENDBRANCH  13  14
BRANCH  13  19
ATOM     18  C   UNK A   0      -0.475   1.227   0.011  0.00  0.00    +0.006 C 
ATOM     19  C   UNK A   0      -0.060  -0.246   0.007  0.00  0.00    -0.023 C 
ATOM     20  C   UNK A   0       0.666  -0.568  -1.301  0.00  0.00    +0.006 C 
ENDBRANCH  13  19
ENDBRANCH   5  13
ENDBRANCH   1  10
BRANCH   3  21
ATOM     21  CA  TRP A   1       2.582   5.331   7.336  0.00  0.00    +0.190 C 
BRANCH  21  22
ATOM     22  C   TRP A   1       3.184   4.320   8.277  0.00  0.00    +0.376 C 
ATOM     23  O   TRP A   1       2.877   3.144   8.187  0.00  0.00    -0.244 OA
ATOM     24  OXT TRP A   1       3.979   4.679   9.130  0.00  0.00    -0.244 OA
ENDBRANCH  21  22
BRANCH  21  25
ATOM     25  CB  TRP A   1       1.813   6.382   8.140  0.00  0.00    +0.067 C 
BRANCH  25  26
ATOM     26  CG  TRP A   1       1.314   7.459   7.211  0.00  0.00    -0.039 C 
ATOM     27  CD2 TRP A   1       0.092   7.536   6.637  0.00  0.00    -0.001 A 
ATOM     28  CE3 TRP A   1      -1.093   6.672   6.701  0.00  0.00    +0.010 A 
ATOM     29  CZ3 TRP A   1      -2.195   7.018   5.998  0.00  0.00    +0.001 A 
ATOM     30  CH2 TRP A   1      -2.234   8.178   5.212  0.00  0.00    +0.002 A 
ATOM     31  CZ2 TRP A   1      -1.186   9.021   5.103  0.00  0.00    +0.026 A 
ATOM     32  CE2 TRP A   1       0.025   8.755   5.800  0.00  0.00    +0.043 A 
ATOM     33  NE1 TRP A   1       1.162   9.407   5.855  0.00  0.00    -0.380 N 
ATOM     34  CD1 TRP A   1       2.077   8.677   6.739  0.00  0.00    +0.144 C 
ATOM     35  HE1 TRP A   1       1.362  10.235   5.391  0.00  0.00    +0.160 HD
ENDBRANCH  25  26
ENDBRANCH  21  25
ENDBRANCH   3  21
TORSDOF 8
