REMARK  Name = ZINC39553601
REMARK  6 active torsions:
REMARK  status: ('A' for Active; 'I' for Inactive)
REMARK    1  A    between atoms: C_1  and  C_2
REMARK    2  A    between atoms: C_4  and  C_16
REMARK    3  A    between atoms: N_18  and  C_19
REMARK    4  A    between atoms: C_22  and  C_25
REMARK    5  A    between atoms: C_25  and  O_27
REMARK    6  A    between atoms: O_27  and  C_28
REMARK                            x       y       z     vdW  Elec       q    Type
REMARK                         _______ _______ _______ _____ _____    ______ ____
ROOT
ATOM      1  C   UNL     1      -0.058   1.503   0.010  0.00  0.00    +0.065 C 
ATOM      2  C   UNL     1      -0.024  -0.004   0.002  0.00  0.00    +0.041 A 
ATOM      3  C   UNL     1      -0.013  -0.673  -1.210  0.00  0.00    +0.038 A 
ATOM      4  C   UNL     1       0.019  -2.069  -1.220  0.00  0.00    +0.068 A 
ATOM      5  C   UNL     1       0.038  -2.737   0.021  0.00  0.00    +0.120 A 
ATOM      6  C   UNL     1       0.023  -1.973   1.204  0.00  0.00    +0.161 A 
ATOM      7  N   UNL     1      -0.002  -0.652   1.147  0.00  0.00    -0.233 NA
ATOM      8  N   UNL     1       0.042  -2.885   2.237  0.00  0.00    -0.312 N 
ATOM      9  C   UNL     1       0.076  -4.128   1.685  0.00  0.00    +0.112 A 
ATOM     10  N   UNL     1       0.068  -4.033   0.384  0.00  0.00    -0.230 NA
ATOM     11  C   UNL     1       0.126  -5.421   2.465  0.00  0.00    +0.074 C 
ATOM     12  C   UNL     1      -0.918  -5.379   3.583  0.00  0.00    +0.008 C 
ATOM     13  C   UNL     1      -0.304  -4.757   4.833  0.00  0.00    +0.002 C 
ATOM     14  C   UNL     1       0.716  -3.686   4.450  0.00  0.00    +0.022 C 
ATOM     15  C   UNL     1       0.019  -2.570   3.668  0.00  0.00    +0.125 C 
ENDROOT
BRANCH   4  16
ATOM     16  C   UNL     1       0.034  -2.821  -2.491  0.00  0.00    +0.250 C 
ATOM     17  O   UNL     1       0.062  -4.036  -2.478  0.00  0.00    -0.270 OA
ATOM     18  N   UNL     1       0.016  -2.160  -3.666  0.00  0.00    -0.281 N 
ATOM     19  H   UNL     1      -0.073  -1.195  -3.678  0.00  0.00    +0.155 HD
BRANCH  18  20
ATOM     20  C   UNL     1       0.127  -2.865  -4.863  0.00  0.00    +0.034 A 
ATOM     21  C   UNL     1       0.818  -2.308  -5.935  0.00  0.00    +0.024 A 
ATOM     22  C   UNL     1       0.929  -3.001  -7.119  0.00  0.00    +0.017 A 
ATOM     23  C   UNL     1       0.346  -4.266  -7.244  0.00  0.00    +0.059 A 
ATOM     24  C   UNL     1      -0.347  -4.822  -6.165  0.00  0.00    +0.017 A 
ATOM     25  C   UNL     1      -0.450  -4.126  -4.982  0.00  0.00    +0.024 A 
BRANCH  23  26
ATOM     26  C   UNL     1       0.463  -5.011  -8.511  0.00  0.00    +0.339 C 
ATOM     27  O   UNL     1       1.066  -4.526  -9.448  0.00  0.00    -0.245 OA
BRANCH  26  28
ATOM     28  O   UNL     1      -0.099  -6.230  -8.630  0.00  0.00    -0.464 OA
ATOM     29  C   UNL     1       0.054  -6.895  -9.885  0.00  0.00    +0.280 C 
ENDBRANCH  26  28
ENDBRANCH  23  26
ENDBRANCH  18  20
ENDBRANCH   4  16
TORSDOF 4
