REMARK  Name = ZINC00048961
REMARK  10 active torsions:
REMARK  status: ('A' for Active; 'I' for Inactive)
REMARK    1  A    between atoms: C_1  and  C_2
REMARK    2  A    between atoms: C_2  and  O_3
REMARK    3  A    between atoms: O_3  and  C_4
REMARK    4  A    between atoms: C_4  and  C_6
REMARK    5  A    between atoms: C_7  and  C_24
REMARK    6  A    between atoms: C_8  and  C_18
REMARK    7  A    between atoms: C_8  and  C_21
REMARK    8  A    between atoms: C_9  and  C_17
REMARK    9  A    between atoms: C_10  and  C_11
REMARK   10  A    between atoms: C_18  and  C_20
REMARK                            x       y       z     vdW  Elec       q    Type
REMARK                         _______ _______ _______ _____ _____    ______ ____
ROOT
ATOM      1  C   UNL     1      -1.298  -2.184  -0.274  0.00  0.00    +0.070 C 
ATOM      2  C   UNL     1      -2.444  -2.821   0.031  0.00  0.00    -0.020 C 
ATOM      3  C   UNL     1      -2.419  -4.295   0.350  0.00  0.00    +0.175 C 
ATOM      4  C   UNL     1      -0.064  -4.296  -0.345  0.00  0.00    -0.005 C 
ATOM      5  C   UNL     1      -0.025  -2.943  -0.306  0.00  0.00    +0.011 C 
ATOM      6  C   UNL     1       1.209  -5.102  -0.379  0.00  0.00    +0.059 C 
ATOM      7  C   UNL     1      -3.747  -2.064   0.053  0.00  0.00    +0.043 C 
ATOM      8  N   UNL     1      -1.304  -4.979  -0.390  0.00  0.00    -0.388 NA
ATOM      9  H   UNL     1      -1.581  -5.073  -1.375  0.00  0.00    +0.125 HD
ATOM     10  H   UNL     1      -1.170  -5.911   0.018  0.00  0.00    +0.125 HD
ENDROOT
BRANCH   5  11
ATOM     11  C   UNL     1       1.274  -2.232  -0.290  0.00  0.00    -0.016 A 
ATOM     12  C   UNL     1       1.646  -1.479   0.824  0.00  0.00    +0.008 A 
ATOM     13  C   UNL     1       2.860  -0.824   0.835  0.00  0.00    +0.001 A 
ATOM     14  C   UNL     1       3.702  -0.901  -0.260  0.00  0.00    +0.000 A 
ATOM     15  C   UNL     1       3.335  -1.641  -1.370  0.00  0.00    +0.001 A 
ATOM     16  C   UNL     1       2.127  -2.306  -1.391  0.00  0.00    +0.008 A 
ENDBRANCH   5  11
BRANCH   3  17
ATOM     17  C   UNL     1      -2.248  -4.486   1.835  0.00  0.00    +0.244 C 
ATOM     18  O   UNL     1      -2.598  -3.615   2.603  0.00  0.00    -0.273 OA
ATOM     19  N   UNL     1      -1.705  -5.625   2.309  0.00  0.00    -0.327 N 
ATOM     20  H   UNL     1      -1.425  -6.322   1.695  0.00  0.00    +0.145 HD
ATOM     21  H   UNL     1      -1.595  -5.748   3.265  0.00  0.00    +0.145 HD
ENDBRANCH   3  17
BRANCH   3  22
ATOM     22  C   UNL     1      -3.713  -4.929  -0.094  0.00  0.00    +0.165 C 
ATOM     23  O   UNL     1      -4.705  -4.251  -0.220  0.00  0.00    -0.295 OA
ATOM     24  C   UNL     1      -3.768  -6.407  -0.380  0.00  0.00    +0.089 C 
ENDBRANCH   3  22
BRANCH   1  25
ATOM     25  C   UNL     1      -1.310  -0.740  -0.582  0.00  0.00    +0.340 C 
ATOM     26  O   UNL     1      -2.367  -0.147  -0.672  0.00  0.00    -0.245 OA
BRANCH  25  27
ATOM     27  O   UNL     1      -0.150  -0.080  -0.762  0.00  0.00    -0.461 OA
BRANCH  27  29
ATOM     28  C   UNL     1       1.171   1.911  -1.231  0.00  0.00    +0.048 C 
ATOM     29  C   UNL     1      -0.238   1.338  -1.061  0.00  0.00    +0.229 C 
ENDBRANCH  27  29
ENDBRANCH  25  27
ENDBRANCH   1  25
TORSDOF 6
