REMARK  Name = ZINC06550681
REMARK  8 active torsions:
REMARK  status: ('A' for Active; 'I' for Inactive)
REMARK    1  A    between atoms: C_1  and  C_2
REMARK    2  A    between atoms: C_2  and  C_4
REMARK    3  A    between atoms: C_2  and  N_12
REMARK    4  A    between atoms: N_6  and  C_7
REMARK    5  A    between atoms: N_12  and  C_13
REMARK    6  A    between atoms: C_23  and  C_25
REMARK    7  A    between atoms: C_26  and  N_33
REMARK    8  A    between atoms: C_27  and  C_30
REMARK                            x       y       z     vdW  Elec       q    Type
REMARK                         _______ _______ _______ _____ _____    ______ ____
ROOT
ATOM      1  N   UNL     1       0.778  -0.182   0.977  0.00  0.00    -0.255 N 
ATOM      2  C   UNL     1       0.240  -0.843   2.021  0.00  0.00    +0.261 C 
ATOM      3  O   UNL     1      -0.884  -1.302   1.937  0.00  0.00    -0.269 OA
ENDROOT
BRANCH   1   4
ATOM      4  C   UNL     1       2.029   0.434   1.108  0.00  0.00    +0.041 A 
ATOM      5  C   UNL     1       3.190  -0.310   0.950  0.00  0.00    +0.027 A 
ATOM      6  C   UNL     1       4.424   0.297   1.080  0.00  0.00    +0.051 A 
ATOM      7  C   UNL     1       4.507   1.652   1.368  0.00  0.00    +0.162 A 
ATOM      8  C   UNL     1       3.346   2.400   1.524  0.00  0.00    +0.164 A 
ATOM      9  C   UNL     1       2.108   1.791   1.390  0.00  0.00    +0.073 A 
ATOM     10  O   UNL     1       3.408   3.732   1.799  0.00  0.00    -0.485 OA
ATOM     11  C   UNL     1       4.657   4.231   2.289  0.00  0.00    +0.270 C 
ATOM     12  C   UNL     1       5.780   3.661   1.412  0.00  0.00    +0.270 C 
ATOM     13  O   UNL     1       5.732   2.232   1.497  0.00  0.00    -0.485 OA
ENDBRANCH   1   4
BRANCH   2  14
ATOM     14  C   UNL     1       1.008  -1.010   3.256  0.00  0.00    +0.116 A 
ATOM     15  C   UNL     1       0.641  -1.636   4.448  0.00  0.00    +0.076 A 
ATOM     16  C   UNL     1       1.637  -1.603   5.422  0.00  0.00    +0.155 A 
ATOM     17  N   UNL     1       2.784  -1.016   5.156  0.00  0.00    -0.203 NA
ATOM     18  S   UNL     1       2.664  -0.473   3.637  0.00  0.00    +0.019 S 
BRANCH  16  19
ATOM     19  C   UNL     1       1.407  -2.222   6.740  0.00  0.00    +0.262 C 
ATOM     20  O   UNL     1       0.365  -2.808   6.964  0.00  0.00    -0.269 OA
ATOM     21  N   UNL     1       2.351  -2.137   7.698  0.00  0.00    -0.324 N 
ATOM     22  H   UNL     1       3.182  -1.669   7.520  0.00  0.00    +0.145 HD
ATOM     23  H   UNL     1       2.200  -2.543   8.566  0.00  0.00    +0.145 HD
ENDBRANCH  16  19
BRANCH  15  24
ATOM     24  N   UNL     1      -0.597  -2.234   4.644  0.00  0.00    -0.355 N 
ATOM     25  H   UNL     1      -1.214  -2.326   3.902  0.00  0.00    +0.142 HD
ATOM     26  H   UNL     1      -0.845  -2.559   5.524  0.00  0.00    +0.142 HD
ENDBRANCH  15  24
ENDBRANCH   2  14
BRANCH   1  28
ATOM     27  C   UNL     1      -0.090   1.356  -0.715  0.00  0.00    +0.038 C 
ATOM     28  C   UNL     1       0.054  -0.108  -0.295  0.00  0.00    +0.164 C 
BRANCH  28  29
ATOM     29  C   UNL     1       0.819  -0.861  -1.353  0.00  0.00    +0.234 C 
ATOM     30  O   UNL     1       1.866  -1.406  -1.072  0.00  0.00    -0.274 OA
ATOM     31  N   UNL     1       0.340  -0.929  -2.611  0.00  0.00    -0.311 N 
ATOM     32  H   UNL     1      -0.497  -0.493  -2.835  0.00  0.00    +0.149 HD
BRANCH  31  33
ATOM     33  C   UNL     1       1.084  -1.661  -3.639  0.00  0.00    +0.073 C 
ATOM     34  C   UNL     1       2.111  -0.728  -4.313  0.00  0.00    +0.022 C 
ATOM     35  C   UNL     1       2.101  -1.162  -5.799  0.00  0.00    +0.002 C 
ATOM     36  C   UNL     1       0.604  -1.470  -6.055  0.00  0.00    +0.002 C 
ATOM     37  C   UNL     1       0.126  -2.132  -4.747  0.00  0.00    +0.022 C 
ENDBRANCH  31  33
ENDBRANCH  28  29
ENDBRANCH   1  28
TORSDOF 7
