REMARK  Name = ZINC50037676
REMARK  9 active torsions:
REMARK  status: ('A' for Active; 'I' for Inactive)
REMARK    1  A    between atoms: C_1  and  C_2
REMARK    2  A    between atoms: C_2  and  C_4
REMARK    3  A    between atoms: C_2  and  N_9
REMARK    4  A    between atoms: C_4  and  C_5
REMARK    5  A    between atoms: C_5  and  C_6
REMARK    6  A    between atoms: C_6  and  C_7
REMARK    7  A    between atoms: C_6  and  C_8
REMARK    8  A    between atoms: C_10  and  C_12
REMARK    9  A    between atoms: C_17  and  N_18
REMARK                            x       y       z     vdW  Elec       q    Type
REMARK                         _______ _______ _______ _____ _____    ______ ____
ROOT
ATOM      1  N   UNL     1      -1.104  -0.943  -0.684  0.00  0.00    -0.309 N 
ATOM      2  C   UNL     1      -2.047  -0.794  -1.635  0.00  0.00    +0.247 C 
ATOM      3  O   UNL     1      -1.757  -0.303  -2.708  0.00  0.00    -0.270 OA
ATOM      4  H   UNL     1      -1.335  -1.335   0.172  0.00  0.00    +0.149 HD
ENDROOT
BRANCH   2   5
ATOM      5  C   UNL     1      -3.435  -1.228  -1.372  0.00  0.00    +0.070 A 
ATOM      6  C   UNL     1      -3.694  -2.537  -0.962  0.00  0.00    +0.056 A 
ATOM      7  C   UNL     1      -4.993  -2.936  -0.718  0.00  0.00    +0.159 A 
ATOM      8  C   UNL     1      -6.039  -2.038  -0.879  0.00  0.00    +0.161 A 
ATOM      9  C   UNL     1      -5.785  -0.738  -1.287  0.00  0.00    +0.074 A 
ATOM     10  C   UNL     1      -4.491  -0.328  -1.527  0.00  0.00    +0.141 A 
ATOM     11  F   UNL     1      -7.309  -2.433  -0.640  0.00  0.00    -0.202 F 
ATOM     12  F   UNL     1      -5.246  -4.203  -0.321  0.00  0.00    -0.202 F 
BRANCH  10  13
ATOM     13  N   UNL     1      -4.222   1.063  -1.956  0.00  0.00    +0.057 N 
ATOM     14  O   UNL     1      -5.142   1.806  -2.209  0.00  0.00    -0.126 OA
ATOM     15  O   UNL     1      -3.083   1.457  -2.052  0.00  0.00    -0.126 OA
ENDBRANCH  10  13
ENDBRANCH   2   5
BRANCH   1  17
ATOM     16  C   UNL     1       0.407   0.979  -0.637  0.00  0.00    +0.028 C 
ATOM     17  C   UNL     1       0.273  -0.514  -0.945  0.00  0.00    +0.070 C 
BRANCH  17  18
ATOM     18  C   UNL     1       1.232  -1.306  -0.054  0.00  0.00    +0.022 C 
BRANCH  18  19
ATOM     19  C   UNL     1       1.188  -2.784  -0.447  0.00  0.00    +0.005 C 
BRANCH  19  20
ATOM     20  C   UNL     1       2.147  -3.577   0.443  0.00  0.00    -0.017 C 
ATOM     21  C   UNL     1       2.012  -5.070   0.136  0.00  0.00    +0.007 C 
ATOM     22  C   UNL     1       3.584  -3.128   0.171  0.00  0.00    +0.007 C 
ENDBRANCH  19  20
ENDBRANCH  18  19
ENDBRANCH  17  18
ENDBRANCH   1  17
TORSDOF 6
