REMARK  Name = ZINC08757718
REMARK  6 active torsions:
REMARK  status: ('A' for Active; 'I' for Inactive)
REMARK    1  A    between atoms: C_5  and  N_7
REMARK    2  A    between atoms: N_7  and  C_8
REMARK    3  A    between atoms: C_8  and  N_25
REMARK    4  A    between atoms: N_15  and  C_18
REMARK    5  A    between atoms: N_25  and  C_26
REMARK    6  A    between atoms: C_26  and  C_27
REMARK                            x       y       z     vdW  Elec       q    Type
REMARK                         _______ _______ _______ _____ _____    ______ ____
ROOT
ATOM      1  C   UNL     1      -2.609   1.527   0.045  0.00  0.00    +0.106 C 
ATOM      2  C   UNL     1      -1.318   2.063  -0.052  0.00  0.00    +0.135 C 
ATOM      3  C   UNL     1      -0.179   1.216  -0.137  0.00  0.00    +0.260 C 
ATOM      4  O   UNL     1      -0.307   0.005  -0.127  0.00  0.00    -0.269 OA
ATOM      5  N   UNL     1       1.044   1.774  -0.236  0.00  0.00    -0.235 N 
ATOM      6  C   UNL     1       1.196   3.108  -0.248  0.00  0.00    +0.320 C 
ATOM      7  O   UNL     1       2.315   3.574  -0.338  0.00  0.00    -0.251 OA
ATOM      8  N   UNL     1       0.147   3.944  -0.164  0.00  0.00    -0.190 N 
ATOM      9  C   UNL     1      -1.111   3.470  -0.063  0.00  0.00    +0.267 C 
ATOM     10  O   UNL     1      -2.055   4.234   0.014  0.00  0.00    -0.269 OA
ATOM     11  H   UNL     1       1.827   1.203  -0.298  0.00  0.00    +0.159 HD
ENDROOT
BRANCH   8  12
ATOM     12  C   UNL     1       0.364   5.329  -0.181  0.00  0.00    +0.046 A 
ATOM     13  C   UNL     1      -0.089   6.090  -1.250  0.00  0.00    +0.025 A 
ATOM     14  C   UNL     1       0.122   7.455  -1.263  0.00  0.00    +0.017 A 
ATOM     15  C   UNL     1       0.794   8.062  -0.216  0.00  0.00    +0.018 A 
ATOM     16  C   UNL     1       1.251   7.305   0.848  0.00  0.00    +0.017 A 
ATOM     17  C   UNL     1       1.038   5.941   0.867  0.00  0.00    +0.025 A 
ATOM     18 BR   UNL     1       1.087   9.930  -0.240  0.00  0.00    -0.050 Br
ENDBRANCH   8  12
BRANCH   1  19
ATOM     19  N   UNL     1      -3.694   2.348  -0.021  0.00  0.00    -0.301 N 
ATOM     20  H   UNL     1      -4.098   2.684   0.794  0.00  0.00    +0.153 HD
BRANCH  19  25
ATOM     21  C   UNL     1      -4.245   2.498  -3.653  0.00  0.00    +0.002 A 
ATOM     22  C   UNL     1      -5.279   3.414  -3.724  0.00  0.00    +0.002 A 
ATOM     23  C   UNL     1      -5.788   3.977  -2.569  0.00  0.00    +0.022 A 
ATOM     24  C   UNL     1      -5.265   3.626  -1.339  0.00  0.00    +0.062 A 
ATOM     25  C   UNL     1      -4.227   2.705  -1.264  0.00  0.00    +0.051 A 
ATOM     26  C   UNL     1      -3.714   2.146  -2.428  0.00  0.00    +0.025 A 
ATOM     27 CL   UNL     1      -5.905   4.333   0.112  0.00  0.00    -0.082 Cl
ENDBRANCH  19  25
ENDBRANCH   1  19
BRANCH   1  28
ATOM     28  N   UNL     1      -2.778   0.185   0.205  0.00  0.00    -0.327 N 
ATOM     29  H   UNL     1      -2.010  -0.407   0.177  0.00  0.00    +0.148 HD
BRANCH  28  30
ATOM     30  C   UNL     1      -4.119  -0.364   0.418  0.00  0.00    +0.138 C 
BRANCH  30  31
ATOM     31  C   UNL     1      -4.020  -1.843   0.687  0.00  0.00    -0.030 A 
ATOM     32  C   UNL     1      -4.077  -2.741  -0.362  0.00  0.00    +0.008 A 
ATOM     33  C   UNL     1      -3.981  -4.098  -0.117  0.00  0.00    +0.038 A 
ATOM     34  C   UNL     1      -3.838  -4.558   1.181  0.00  0.00    +0.123 A 
ATOM     35  C   UNL     1      -3.787  -3.658   2.232  0.00  0.00    +0.038 A 
ATOM     36  C   UNL     1      -3.877  -2.302   1.984  0.00  0.00    +0.008 A 
ATOM     37  F   UNL     1      -3.749  -5.885   1.422  0.00  0.00    -0.205 F 
ENDBRANCH  30  31
ENDBRANCH  28  30
ENDBRANCH   1  28
TORSDOF 6
