REMARK  Name = ZINC39467316
REMARK  3 active torsions:
REMARK  status: ('A' for Active; 'I' for Inactive)
REMARK    1  A    between atoms: C_4  and  P_8
REMARK    2  A    between atoms: C_5  and  O_7
REMARK    3  A    between atoms: C_17  and  O_26
REMARK                            x       y       z     vdW  Elec       q    Type
REMARK                         _______ _______ _______ _____ _____    ______ ____
ROOT
ATOM      1  P   UNL     1       3.989  -0.847  -0.042  0.00  0.00    +0.291 P 
ATOM      2  O   UNL     1       3.874  -2.129   0.689  0.00  0.00    -0.269 OA
ATOM      3  N   UNL     1       5.173   0.091   0.624  0.00  0.00    -0.288 NA
ATOM      4  N   UNL     1       5.708   1.098  -0.151  0.00  0.00    +0.397 N 
ATOM      5  C   UNL     1       6.803   1.681   0.641  0.00  0.00    -0.050 C 
ATOM      6  C   UNL     1       7.469   2.827  -0.109  0.00  0.00    -0.011 C 
ATOM      7  C   UNL     1       6.453   3.938  -0.394  0.00  0.00    +0.085 C 
ATOM      8  C   UNL     1       7.206   5.069  -1.067  0.00  0.00    +0.197 C 
ATOM      9  C   UNL     1       8.222   4.714  -2.070  0.00  0.00    +0.155 C 
ATOM     10  C   UNL     1       8.606   3.451  -2.234  0.00  0.00    +0.025 C 
ATOM     11  C   UNL     1       8.026   2.316  -1.438  0.00  0.00    +0.016 C 
ATOM     12  C   UNL     1       6.887   1.672  -2.231  0.00  0.00    -0.003 C 
ATOM     13  C   UNL     1       6.223   0.559  -1.412  0.00  0.00    -0.020 C 
ATOM     14  C   UNL     1       5.097  -0.025  -2.275  0.00  0.00    +0.157 C 
ATOM     15  O   UNL     1       4.467  -1.112  -1.575  0.00  0.00    -0.316 OA
ATOM     16  O   UNL     1       6.980   6.227  -0.787  0.00  0.00    -0.289 OA
ATOM     17  H   UNL     1       5.482  -0.062   1.530  0.00  0.00    +0.111 HD
ATOM     18  H   UNL     1       5.001   1.793  -0.341  0.00  0.00    -0.055 HD
ENDROOT
BRANCH   1  22
ATOM     19  C   UNL     1      -0.017   1.377   0.010  0.00  0.00    +0.004 A 
ATOM     20  C   UNL     1       1.171   2.086   0.002  0.00  0.00    +0.001 A 
ATOM     21  C   UNL     1       2.379   1.415  -0.013  0.00  0.00    +0.018 A 
ATOM     22  C   UNL     1       2.403   0.033  -0.021  0.00  0.00    +0.091 A 
ATOM     23  C   UNL     1       1.214  -0.680  -0.013  0.00  0.00    +0.131 A 
ATOM     24  C   UNL     1       0.002  -0.004   0.002  0.00  0.00    +0.046 A 
BRANCH  23  25
ATOM     25  O   UNL     1       1.235  -2.039  -0.021  0.00  0.00    -0.506 OA
ATOM     26  H   UNL     1       1.249  -2.437   0.860  0.00  0.00    +0.292 HD
ENDBRANCH  23  25
ENDBRANCH   1  22
BRANCH   9  27
ATOM     27  O   UNL     1       8.775   5.689  -2.839  0.00  0.00    -0.504 OA
ATOM     28  H   UNL     1       8.438   6.576  -2.652  0.00  0.00    +0.292 HD
ENDBRANCH   9  27
TORSDOF 3
