REMARK  Name = ZINC09369254
REMARK  7 active torsions:
REMARK  status: ('A' for Active; 'I' for Inactive)
REMARK    1  A    between atoms: C_1  and  C_2
REMARK    2  A    between atoms: C_5  and  C_33
REMARK    3  A    between atoms: N_8  and  S_10
REMARK    4  A    between atoms: S_10  and  C_13
REMARK    5  A    between atoms: C_16  and  C_19
REMARK    6  A    between atoms: C_19  and  C_21
REMARK    7  A    between atoms: C_21  and  C_31
REMARK                            x       y       z     vdW  Elec       q    Type
REMARK                         _______ _______ _______ _____ _____    ______ ____
ROOT
ATOM      1  C   UNL     1       2.565   2.431   2.025  0.00  0.00    +0.106 A 
ATOM      2  C   UNL     1       3.573   3.155   1.411  0.00  0.00    +0.029 A 
ATOM      3  C   UNL     1       3.410   4.503   1.172  0.00  0.00    +0.013 A 
ATOM      4  C   UNL     1       2.226   5.138   1.549  0.00  0.00    +0.023 A 
ATOM      5  C   UNL     1       1.214   4.403   2.167  0.00  0.00    +0.013 A 
ATOM      6  C   UNL     1       1.387   3.054   2.396  0.00  0.00    +0.029 A 
ENDROOT
BRANCH   1   7
ATOM      7  S   UNL     1       2.781   0.709   2.326  0.00  0.00    +0.061 S 
ATOM      8  O   UNL     1       1.911   0.372   3.398  0.00  0.00    -0.153 OA
ATOM      9  O   UNL     1       4.182   0.478   2.381  0.00  0.00    -0.153 OA
BRANCH   7  15
ATOM     10  C   UNL     1       0.187   1.552  -0.356  0.00  0.00    +0.009 C 
ATOM     11  C   UNL     1       0.221   0.023  -0.401  0.00  0.00    +0.002 C 
ATOM     12  C   UNL     1       1.086  -0.434  -1.577  0.00  0.00    +0.009 C 
ATOM     13  C   UNL     1       2.500   0.130  -1.422  0.00  0.00    +0.002 C 
ATOM     14  C   UNL     1       3.120  -0.406  -0.128  0.00  0.00    +0.112 C 
ATOM     15  N   UNL     1       2.221  -0.096   0.992  0.00  0.00    -0.176 NA
ATOM     16  C   UNL     1       0.814  -0.514   0.905  0.00  0.00    +0.112 C 
ATOM     17  C   UNL     1       3.356  -0.300  -2.615  0.00  0.00    +0.009 C 
ENDBRANCH   7  15
ENDBRANCH   1   7
BRANCH   4  18
ATOM     18  C   UNL     1       2.045   6.585   1.296  0.00  0.00    +0.206 C 
ATOM     19  O   UNL     1       2.574   7.105   0.329  0.00  0.00    -0.286 OA
BRANCH  18  20
ATOM     20  C   UNL     1       1.258   7.364   2.175  0.00  0.00    +0.127 C 
ATOM     21  C   UNL     1       0.978   8.705   1.866  0.00  0.00    +0.092 C 
ATOM     22  N   UNL     1       0.251   9.593   2.592  0.00  0.00    -0.307 N 
ATOM     23  C   UNL     1       0.079  10.882   2.128  0.00  0.00    +0.046 A 
ATOM     24  C   UNL     1      -0.625  11.946   2.710  0.00  0.00    +0.024 A 
ATOM     25  C   UNL     1      -0.683  13.171   2.088  0.00  0.00    +0.002 A 
ATOM     26  C   UNL     1      -0.052  13.390   0.875  0.00  0.00    +0.001 A 
ATOM     27  C   UNL     1       0.649  12.357   0.279  0.00  0.00    +0.017 A 
ATOM     28  C   UNL     1       0.709  11.131   0.900  0.00  0.00    +0.035 A 
ATOM     29  S   UNL     1       1.473   9.577   0.517  0.00  0.00    -0.071 S 
ATOM     30  H   UNL     1      -0.147   9.322   3.434  0.00  0.00    +0.153 HD
BRANCH  20  31
ATOM     31  C   UNL     1       0.747   6.785   3.381  0.00  0.00    +0.105 C 
ATOM     32  N   UNL     1       0.341   6.326   4.338  0.00  0.00    -0.191 NA
ENDBRANCH  20  31
ENDBRANCH  18  20
ENDBRANCH   4  18
TORSDOF 5
