REMARK  Name = ZINC39691280
REMARK  7 active torsions:
REMARK  status: ('A' for Active; 'I' for Inactive)
REMARK    1  A    between atoms: C_1  and  C_2
REMARK    2  A    between atoms: C_7  and  C_8
REMARK    3  A    between atoms: C_8  and  C_9
REMARK    4  A    between atoms: C_9  and  N_10
REMARK    5  A    between atoms: C_11  and  C_13
REMARK    6  A    between atoms: C_24  and  C_26
REMARK    7  A    between atoms: C_27  and  C_31
REMARK                            x       y       z     vdW  Elec       q    Type
REMARK                         _______ _______ _______ _____ _____    ______ ____
ROOT
ATOM      1  C   UNL     1      -2.557   2.269   6.027  0.00  0.00    +0.100 C 
ATOM      2  C   UNL     1      -2.126   1.330   7.176  0.00  0.00    +0.121 C 
ATOM      3  N   UNL     1      -2.962   1.740   8.329  0.00  0.00    -0.296 N 
ATOM      4  C   UNL     1      -4.292   2.022   7.737  0.00  0.00    +0.115 C 
ATOM      5  C   UNL     1      -3.980   2.720   6.399  0.00  0.00    -0.004 C 
ATOM      6  C   UNL     1      -4.972   2.275   5.328  0.00  0.00    -0.010 C 
ATOM      7  C   UNL     1      -6.370   2.785   5.690  0.00  0.00    -0.082 C 
ATOM      8  N   UNL     1      -6.348   4.250   5.787  0.00  0.00    +0.379 N 
ATOM      9  C   UNL     1      -5.462   4.666   6.881  0.00  0.00    -0.082 C 
ATOM     10  C   UNL     1      -4.026   4.235   6.570  0.00  0.00    -0.010 C 
ATOM     11  C   UNL     1      -2.597   1.836   9.622  0.00  0.00    +0.254 C 
ATOM     12  O   UNL     1      -1.434   1.669   9.940  0.00  0.00    -0.269 OA
ATOM     13  H   UNL     1      -6.013   4.638   4.918  0.00  0.00    -0.086 HD
ATOM     14  H   UNL     1      -7.282   4.588   5.965  0.00  0.00    -0.086 HD
ENDROOT
BRANCH  11  15
ATOM     15  C   UNL     1      -3.599   2.142  10.647  0.00  0.00    +0.077 A 
ATOM     16  C   UNL     1      -3.420   2.387  12.000  0.00  0.00    -0.031 A 
ATOM     17  C   UNL     1      -4.564   2.647  12.716  0.00  0.00    +0.011 A 
ATOM     18  C   UNL     1      -5.758   2.648  12.074  0.00  0.00    +0.046 A 
ATOM     19  S   UNL     1      -5.367   2.304  10.476  0.00  0.00    -0.092 S 
ATOM     20  C   UNL     1      -2.058   2.368  12.644  0.00  0.00    +0.045 C 
ENDBRANCH  11  15
BRANCH   1  22
ATOM     21  N   UNL     1      -2.503   2.203   3.555  0.00  0.00    -0.315 N 
ATOM     22  C   UNL     1      -2.568   1.524   4.717  0.00  0.00    +0.218 C 
ATOM     23  O   UNL     1      -2.636   0.313   4.709  0.00  0.00    -0.275 OA
ATOM     24  H   UNL     1      -2.449   3.172   3.562  0.00  0.00    +0.149 HD
BRANCH  21  25
ATOM     25  C   UNL     1      -2.514   1.479   2.282  0.00  0.00    +0.109 C 
BRANCH  25  26
ATOM     26  C   UNL     1      -2.430   2.478   1.126  0.00  0.00    +0.054 C 
BRANCH  26  33
ATOM     27  C   UNL     1      -4.942   1.714  -0.080  0.00  0.00    +0.044 C 
ATOM     28  C   UNL     1      -3.643   1.368  -0.761  0.00  0.00    -0.047 A 
ATOM     29  C   UNL     1      -3.653   0.690  -1.966  0.00  0.00    +0.003 A 
ATOM     30  C   UNL     1      -2.462   0.372  -2.590  0.00  0.00    +0.000 A 
ATOM     31  C   UNL     1      -1.260   0.733  -2.010  0.00  0.00    +0.000 A 
ATOM     32  C   UNL     1      -1.250   1.412  -0.806  0.00  0.00    +0.004 A 
ATOM     33  C   UNL     1      -2.442   1.733  -0.184  0.00  0.00    -0.043 A 
ENDBRANCH  26  33
ENDBRANCH  25  26
ENDBRANCH  21  25
ENDBRANCH   1  22
TORSDOF 5
