REMARK  Name = ZINC17149013
REMARK  5 active torsions:
REMARK  status: ('A' for Active; 'I' for Inactive)
REMARK    1  A    between atoms: C_1  and  N_2
REMARK    2  A    between atoms: C_4  and  C_21
REMARK    3  A    between atoms: N_9  and  C_14
REMARK    4  A    between atoms: N_23  and  C_24
REMARK    5  A    between atoms: C_24  and  C_25
REMARK                            x       y       z     vdW  Elec       q    Type
REMARK                         _______ _______ _______ _____ _____    ______ ____
ROOT
ATOM      1  C   UNL     1       3.195   4.670   1.516  0.00  0.00    +0.149 C 
ATOM      2  N   UNL     1       2.665   3.446   0.909  0.00  0.00    -0.344 N 
ATOM      3  C   UNL     1       1.364   3.189   0.688  0.00  0.00    +0.101 A 
ATOM      4  C   UNL     1       1.247   1.942   0.103  0.00  0.00    +0.078 A 
ATOM      5  C   UNL     1       2.556   1.419  -0.029  0.00  0.00    +0.086 A 
ATOM      6  C   UNL     1       3.422   2.377   0.475  0.00  0.00    +0.132 A 
ATOM      7  C   UNL     1       4.812   2.110   0.462  0.00  0.00    +0.285 A 
ATOM      8  O   UNL     1       5.600   2.929   0.902  0.00  0.00    -0.265 OA
ATOM      9  N   UNL     1       5.255   0.941  -0.043  0.00  0.00    -0.227 N 
ATOM     10  C   UNL     1       4.400   0.027  -0.532  0.00  0.00    +0.334 A 
ATOM     11  O   UNL     1       4.837  -1.016  -0.979  0.00  0.00    -0.246 OA
ATOM     12  N   UNL     1       3.070   0.240  -0.538  0.00  0.00    -0.305 N 
ATOM     13  H   UNL     1       2.473  -0.434  -0.897  0.00  0.00    +0.170 HD
ENDROOT
BRANCH   9  14
ATOM     14  C   UNL     1       6.631   0.675  -0.057  0.00  0.00    +0.055 A 
ATOM     15  C   UNL     1       7.228   0.043   1.025  0.00  0.00    +0.028 A 
ATOM     16  C   UNL     1       8.583  -0.224   1.006  0.00  0.00    +0.022 A 
ATOM     17  C   UNL     1       9.348   0.148  -0.086  0.00  0.00    +0.041 A 
ATOM     18  C   UNL     1       8.756   0.783  -1.163  0.00  0.00    +0.022 A 
ATOM     19  C   UNL     1       7.400   1.047  -1.151  0.00  0.00    +0.028 A 
ATOM     20 CL   UNL     1      11.052  -0.182  -0.104  0.00  0.00    -0.084 Cl
ENDBRANCH   9  14
BRANCH   4  21
ATOM     21  C   UNL     1      -0.004   1.281  -0.301  0.00  0.00    +0.248 C 
ATOM     22  O   UNL     1       0.028   0.176  -0.808  0.00  0.00    -0.270 OA
ATOM     23  N   UNL     1      -1.186   1.901  -0.114  0.00  0.00    -0.309 N 
ATOM     24  H   UNL     1      -1.212   2.783   0.291  0.00  0.00    +0.149 HD
BRANCH  23  25
ATOM     25  C   UNL     1      -2.431   1.245  -0.521  0.00  0.00    +0.136 C 
BRANCH  25  26
ATOM     26  C   UNL     1      -3.617   2.157  -0.200  0.00  0.00    +0.135 C 
ATOM     27  C   UNL     1      -4.932   1.476  -0.625  0.00  0.00    +0.035 C 
ATOM     28  C   UNL     1      -5.757   1.395   0.682  0.00  0.00    +0.031 C 
ATOM     29  C   UNL     1      -5.090   2.488   1.555  0.00  0.00    +0.160 C 
ATOM     30  O   UNL     1      -3.691   2.382   1.218  0.00  0.00    -0.375 OA
ENDBRANCH  25  26
ENDBRANCH  23  25
ENDBRANCH   4  21
TORSDOF 4
