REMARK  Name = ZINC46905775
REMARK  12 active torsions:
REMARK  status: ('A' for Active; 'I' for Inactive)
REMARK    1  A    between atoms: C_1  and  C_2
REMARK    2  A    between atoms: C_2  and  C_3
REMARK    3  A    between atoms: C_2  and  C_4
REMARK    4  A    between atoms: C_4  and  C_6
REMARK    5  A    between atoms: C_4  and  N_21
REMARK    6  A    between atoms: C_6  and  N_7
REMARK    7  A    between atoms: N_10  and  N_11
REMARK    8  A    between atoms: C_12  and  C_14
REMARK    9  A    between atoms: N_21  and  C_22
REMARK   10  A    between atoms: N_21  and  C_25
REMARK   11  A    between atoms: C_22  and  C_23
REMARK   12  A    between atoms: C_25  and  C_26
REMARK                            x       y       z     vdW  Elec       q    Type
REMARK                         _______ _______ _______ _____ _____    ______ ____
ROOT
ATOM      1  N   UNL     1      -3.860  -1.581  -0.659  0.00  0.00    -0.300 N 
ATOM      2  C   UNL     1      -4.818  -1.825  -1.574  0.00  0.00    +0.316 C 
ATOM      3  O   UNL     1      -4.687  -1.422  -2.714  0.00  0.00    -0.251 OA
ATOM      4  N   UNL     1      -5.922  -2.515  -1.226  0.00  0.00    -0.218 N 
ATOM      5  H   UNL     1      -3.929  -1.964   0.230  0.00  0.00    +0.150 HD
ATOM      6  H   UNL     1      -6.578  -2.754  -1.900  0.00  0.00    +0.174 HD
ENDROOT
BRANCH   4   7
ATOM      7  N   UNL     1      -6.124  -2.888   0.110  0.00  0.00    -0.229 N 
ATOM      8  C   UNL     1      -7.172  -3.667   0.441  0.00  0.00    +0.263 C 
ATOM      9  O   UNL     1      -7.943  -4.047  -0.419  0.00  0.00    -0.269 OA
ATOM     10  H   UNL     1      -5.508  -2.585   0.796  0.00  0.00    +0.173 HD
BRANCH   8  11
ATOM     11  C   UNL     1      -7.384  -4.060   1.849  0.00  0.00    +0.073 A 
ATOM     12  C   UNL     1      -6.504  -3.621   2.840  0.00  0.00    +0.016 A 
ATOM     13  C   UNL     1      -6.708  -3.991   4.152  0.00  0.00    +0.001 A 
ATOM     14  C   UNL     1      -7.782  -4.796   4.491  0.00  0.00    +0.003 A 
ATOM     15  C   UNL     1      -8.659  -5.236   3.517  0.00  0.00    +0.039 A 
ATOM     16  C   UNL     1      -8.471  -4.868   2.197  0.00  0.00    +0.136 A 
ATOM     17  F   UNL     1      -9.331  -5.293   1.246  0.00  0.00    -0.205 F 
ENDBRANCH   8  11
ENDBRANCH   4   7
BRANCH   1  18
ATOM     18  C   UNL     1      -2.713  -0.738  -1.006  0.00  0.00    +0.091 C 
BRANCH  18  19
ATOM     19  C   UNL     1      -1.695  -0.767   0.136  0.00  0.00    -0.048 C 
BRANCH  19  21
ATOM     20  C   UNL     1      -1.186   1.665  -0.124  0.00  0.00    +0.005 C 
ATOM     21  C   UNL     1      -0.591   0.256  -0.139  0.00  0.00    -0.029 C 
ATOM     22  C   UNL     1       0.488   0.146   0.941  0.00  0.00    +0.005 C 
ENDBRANCH  19  21
BRANCH  19  23
ATOM     23  N   UNL     1      -1.105  -2.109   0.233  0.00  0.00    +0.387 N 
ATOM     24  H   UNL     1      -0.408  -2.118   0.962  0.00  0.00    -0.080 HD
BRANCH  23  25
ATOM     25  C   UNL     1      -2.158  -3.084   0.550  0.00  0.00    -0.051 C 
BRANCH  25  26
ATOM     26  C   UNL     1      -1.532  -4.426   0.829  0.00  0.00    -0.053 C 
ATOM     27  C   UNL     1      -1.782  -5.044   1.956  0.00  0.00    +0.002 C 
ENDBRANCH  25  26
ENDBRANCH  23  25
BRANCH  23  28
ATOM     28  C   UNL     1      -0.479  -2.463  -1.048  0.00  0.00    -0.051 C 
BRANCH  28  29
ATOM     29  C   UNL     1       0.902  -1.865  -1.114  0.00  0.00    -0.053 C 
ATOM     30  C   UNL     1       1.937  -2.631  -1.351  0.00  0.00    +0.002 C 
ENDBRANCH  28  29
ENDBRANCH  23  28
ENDBRANCH  19  23
ENDBRANCH  18  19
ENDBRANCH   1  18
TORSDOF 10
