REMARK  Name = ZINC11440504
REMARK  9 active torsions:
REMARK  status: ('A' for Active; 'I' for Inactive)
REMARK    1  A    between atoms: C_1  and  C_2
REMARK    2  A    between atoms: C_2  and  C_4
REMARK    3  A    between atoms: C_2  and  O_11
REMARK    4  A    between atoms: N_9  and  C_10
REMARK    5  A    between atoms: O_11  and  C_12
REMARK    6  A    between atoms: C_12  and  C_14
REMARK    7  A    between atoms: C_14  and  C_15
REMARK    8  A    between atoms: C_15  and  N_16
REMARK    9  A    between atoms: N_19  and  C_20
REMARK                            x       y       z     vdW  Elec       q    Type
REMARK                         _______ _______ _______ _____ _____    ______ ____
ROOT
ATOM      1  C   UNL     1      -7.264   1.227   2.188  0.00  0.00    +0.117 C 
ENDROOT
BRANCH   1   2
ATOM      2  N   UNL     1      -6.368   0.892   1.079  0.00  0.00    -0.299 N 
ATOM      3  C   UNL     1      -5.103   1.358   1.069  0.00  0.00    +0.300 C 
ATOM      4  O   UNL     1      -4.706   2.058   1.981  0.00  0.00    -0.253 OA
ATOM      5  N   UNL     1      -4.279   1.049   0.049  0.00  0.00    -0.294 N 
ATOM      6  H   UNL     1      -6.684   0.334   0.351  0.00  0.00    +0.150 HD
ATOM      7  H   UNL     1      -4.595   0.491  -0.679  0.00  0.00    +0.151 HD
BRANCH   5   8
ATOM      8  C   UNL     1      -2.904   1.556   0.038  0.00  0.00    +0.037 C 
ATOM      9  C   UNL     1      -2.188   1.063  -1.221  0.00  0.00    +0.029 C 
ATOM     10  C   UNL     1      -0.753   1.593  -1.232  0.00  0.00    -0.008 C 
ATOM     11  C   UNL     1      -0.013   1.086   0.008  0.00  0.00    +0.007 C 
ATOM     12  C   UNL     1      -0.729   1.579   1.267  0.00  0.00    -0.008 C 
ATOM     13  C   UNL     1      -2.164   1.050   1.278  0.00  0.00    +0.029 C 
ATOM     14  C   UNL     1      -0.750   3.109   1.275  0.00  0.00    +0.007 C 
ATOM     15  C   UNL     1      -1.490   3.616   0.036  0.00  0.00    -0.008 C 
ATOM     16  C   UNL     1      -0.773   3.123  -1.223  0.00  0.00    +0.007 C 
ATOM     17  C   UNL     1      -2.925   3.086   0.047  0.00  0.00    +0.029 C 
ENDBRANCH   5   8
ENDBRANCH   1   2
BRANCH   1  18
ATOM     18  C   UNL     1      -8.629   0.577   1.955  0.00  0.00    +0.139 C 
BRANCH  18  19
ATOM     19  C   UNL     1      -9.551   0.922   3.096  0.00  0.00    +0.309 C 
ATOM     20  O   UNL     1      -9.156   1.617   4.002  0.00  0.00    -0.251 OA
BRANCH  19  21
ATOM     21  O   UNL     1     -10.810   0.458   3.106  0.00  0.00    -0.452 OA
BRANCH  21  23
ATOM     22  C   UNL     1     -12.373   2.137   3.922  0.00  0.00    +0.062 C 
ATOM     23  C   UNL     1     -11.642   0.830   4.236  0.00  0.00    +0.259 C 
BRANCH  23  24
ATOM     24  C   UNL     1     -12.650  -0.259   4.499  0.00  0.00    +0.261 C 
ATOM     25  O   UNL     1     -12.666  -1.251   3.802  0.00  0.00    -0.271 OA
ATOM     26  N   UNL     1     -13.533  -0.130   5.508  0.00  0.00    -0.237 N 
ATOM     27  C   UNL     1     -14.435  -1.104   5.743  0.00  0.00    +0.306 C 
ATOM     28  O   UNL     1     -14.451  -2.098   5.045  0.00  0.00    -0.252 OA
ATOM     29  N   UNL     1     -15.319  -0.975   6.753  0.00  0.00    -0.302 N 
ATOM     30  C   UNL     1     -16.298  -2.034   7.008  0.00  0.00    +0.129 C 
ATOM     31  H   UNL     1     -13.521   0.664   6.066  0.00  0.00    +0.159 HD
ATOM     32  H   UNL     1     -15.306  -0.181   7.310  0.00  0.00    +0.150 HD
ENDBRANCH  23  24
ENDBRANCH  21  23
ENDBRANCH  19  21
ENDBRANCH  18  19
ENDBRANCH   1  18
TORSDOF 7
