REMARK  Name = ZINC40346613
REMARK  5 active torsions:
REMARK  status: ('A' for Active; 'I' for Inactive)
REMARK    1  A    between atoms: C_1  and  C_2
REMARK    2  A    between atoms: C_5  and  S_9
REMARK    3  A    between atoms: C_6  and  N_8
REMARK    4  A    between atoms: S_9  and  N_12
REMARK    5  A    between atoms: C_16  and  C_18
REMARK                            x       y       z     vdW  Elec       q    Type
REMARK                         _______ _______ _______ _____ _____    ______ ____
ROOT
ATOM      1  S   UNL     1       0.678  -4.407   0.027  0.00  0.00    +0.063 S 
ATOM      2  O   UNL     1      -0.373  -4.954   0.812  0.00  0.00    -0.153 OA
ATOM      3  O   UNL     1       0.904  -4.798  -1.321  0.00  0.00    -0.153 OA
ENDROOT
BRANCH   1   8
ATOM      4  C   UNL     1      -0.139   1.575  -0.031  0.00  0.00    +0.044 C 
ATOM      5  C   UNL     1       0.065   0.082  -0.013  0.00  0.00    -0.049 A 
ATOM      6  C   UNL     1       0.318  -0.595  -1.192  0.00  0.00    +0.005 A 
ATOM      7  C   UNL     1       0.505  -1.965  -1.179  0.00  0.00    +0.030 A 
ATOM      8  C   UNL     1       0.440  -2.662   0.012  0.00  0.00    +0.126 A 
ATOM      9  C   UNL     1       0.186  -1.984   1.198  0.00  0.00    +0.051 A 
ATOM     10  C   UNL     1       0.004  -0.607   1.182  0.00  0.00    +0.028 A 
BRANCH   9  11
ATOM     11  N   UNL     1       0.120  -2.686   2.404  0.00  0.00    -0.356 N 
ATOM     12  H   UNL     1       0.139  -3.656   2.403  0.00  0.00    +0.142 HD
ATOM     13  H   UNL     1       0.054  -2.203   3.243  0.00  0.00    +0.142 HD
ENDBRANCH   9  11
ENDBRANCH   1   8
BRANCH   1  14
ATOM     14  N   UNL     1       2.085  -4.703   0.848  0.00  0.00    -0.169 NA
ATOM     15  C   UNL     1       3.442  -4.644   0.276  0.00  0.00    +0.110 C 
ATOM     16  C   UNL     1       4.371  -4.374   1.486  0.00  0.00    +0.019 C 
ATOM     17  C   UNL     1       3.688  -5.215   2.596  0.00  0.00    +0.027 C 
ATOM     18  C   UNL     1       2.188  -5.062   2.270  0.00  0.00    +0.116 C 
BRANCH  18  19
ATOM     19  C   UNL     1       1.475  -6.365   2.523  0.00  0.00    +0.009 A 
ATOM     20  C   UNL     1       0.692  -6.721   3.571  0.00  0.00    +0.013 A 
ATOM     21  C   UNL     1       0.135  -7.986   3.592  0.00  0.00    +0.008 A 
ATOM     22  C   UNL     1       0.387  -8.832   2.564  0.00  0.00    +0.045 A 
ATOM     23  S   UNL     1       1.437  -7.839   1.516  0.00  0.00    -0.100 S 
ENDBRANCH  18  19
ENDBRANCH   1  14
TORSDOF 4
