REMARK  Name = ZINC50030461
REMARK  5 active torsions:
REMARK  status: ('A' for Active; 'I' for Inactive)
REMARK    1  A    between atoms: C_1  and  N_2
REMARK    2  A    between atoms: N_2  and  C_3
REMARK    3  A    between atoms: N_2  and  C_14
REMARK    4  A    between atoms: C_5  and  C_11
REMARK    5  A    between atoms: C_6  and  N_10
REMARK                            x       y       z     vdW  Elec       q    Type
REMARK                         _______ _______ _______ _____ _____    ______ ____
ROOT
ATOM      1  C   UNL     1       0.148  -0.732   1.203  0.00  0.00    +0.066 A 
ATOM      2  C   UNL     1      -1.098  -1.028   1.722  0.00  0.00    +0.041 A 
ATOM      3  C   UNL     1      -1.203  -1.713   2.936  0.00  0.00    +0.059 A 
ATOM      4  C   UNL     1      -0.039  -2.095   3.622  0.00  0.00    +0.040 A 
ATOM      5  C   UNL     1       1.206  -1.790   3.089  0.00  0.00    +0.063 A 
ATOM      6  C   UNL     1       1.301  -1.118   1.885  0.00  0.00    +0.146 A 
ATOM      7  F   UNL     1       2.516  -0.830   1.370  0.00  0.00    -0.203 F 
ENDROOT
BRANCH   3   8
ATOM      8  C   UNL     1      -2.528  -2.032   3.495  0.00  0.00    +0.243 C 
ATOM      9  O   UNL     1      -2.618  -2.720   4.494  0.00  0.00    -0.270 OA
ATOM     10  N   UNL     1      -3.641  -1.561   2.899  0.00  0.00    -0.325 N 
ATOM     11  H   UNL     1      -3.570  -1.012   2.102  0.00  0.00    +0.145 HD
ATOM     12  H   UNL     1      -4.514  -1.771   3.266  0.00  0.00    +0.145 HD
ENDBRANCH   3   8
BRANCH   4  13
ATOM     13  N   UNL     1      -0.133  -2.776   4.831  0.00  0.00    -0.357 N 
ATOM     14  H   UNL     1      -1.000  -3.058   5.162  0.00  0.00    +0.142 HD
ATOM     15  H   UNL     1       0.668  -2.969   5.343  0.00  0.00    +0.142 HD
ENDBRANCH   4  13
BRANCH   1  17
ATOM     16  C   UNL     1       0.311   1.418  -0.028  0.00  0.00    +0.129 C 
ATOM     17  N   UNL     1       0.254  -0.046  -0.014  0.00  0.00    -0.328 N 
BRANCH  17  18
ATOM     18  C   UNL     1       0.307  -0.793  -1.274  0.00  0.00    +0.078 C 
ATOM     19  C   UNL     1       1.615  -0.473  -2.004  0.00  0.00    +0.050 C 
ATOM     20  C   UNL     1       1.626  -1.195  -3.354  0.00  0.00    +0.161 C 
ATOM     21  O   UNL     1       0.486  -0.795  -4.117  0.00  0.00    -0.380 OA
ATOM     22  C   UNL     1      -0.766  -1.112  -3.505  0.00  0.00    +0.161 C 
ATOM     23  C   UNL     1      -0.874  -0.386  -2.161  0.00  0.00    +0.050 C 
ENDBRANCH  17  18
ENDBRANCH   1  17
TORSDOF 4
