REMARK  Name = ZINC01921644
REMARK  3 active torsions:
REMARK  status: ('A' for Active; 'I' for Inactive)
REMARK    1  A    between atoms: C_1  and  N_2
REMARK    2  A    between atoms: C_6  and  N_17
REMARK    3  A    between atoms: N_7  and  C_10
REMARK                            x       y       z     vdW  Elec       q    Type
REMARK                         _______ _______ _______ _____ _____    ______ ____
ROOT
ATOM      1  C   UNL     1      -1.190  -4.836   0.205  0.00  0.00    +0.157 C 
ATOM      2  N   UNL     1       0.080  -4.115   0.084  0.00  0.00    -0.264 N 
ATOM      3  C   UNL     1       1.233  -4.805  -0.017  0.00  0.00    +0.258 A 
ATOM      4  O   UNL     1       1.220  -6.024  -0.008  0.00  0.00    -0.267 OA
ATOM      5  C   UNL     1       2.448  -4.112  -0.133  0.00  0.00    +0.112 A 
ATOM      6  C   UNL     1       2.435  -2.745  -0.145  0.00  0.00    +0.110 A 
ATOM      7  N   UNL     1       1.236  -2.081  -0.034  0.00  0.00    -0.250 N 
ATOM      8  C   UNL     1       0.084  -2.769   0.075  0.00  0.00    +0.338 A 
ATOM      9  O   UNL     1      -0.967  -2.167   0.168  0.00  0.00    -0.246 OA
ENDROOT
BRANCH   7  10
ATOM     10  C   UNL     1       1.212  -0.680  -0.041  0.00  0.00    +0.054 A 
ATOM     11  C   UNL     1       1.095   0.008  -1.242  0.00  0.00    +0.026 A 
ATOM     12  C   UNL     1       1.073   1.389  -1.246  0.00  0.00    +0.003 A 
ATOM     13  C   UNL     1       1.165   2.087  -0.056  0.00  0.00    +0.020 A 
ATOM     14  C   UNL     1       1.281   1.405   1.143  0.00  0.00    +0.043 A 
ATOM     15  C   UNL     1       1.304   0.023   1.153  0.00  0.00    +0.046 A 
ATOM     16 CL   UNL     1       1.390   2.285   2.635  0.00  0.00    -0.083 Cl
ENDBRANCH   7  10
BRANCH   6  17
ATOM     17  N   UNL     1       3.607  -2.042  -0.262  0.00  0.00    -0.344 N 
ATOM     18  H   UNL     1       3.603  -1.076  -0.184  0.00  0.00    +0.144 HD
ATOM     19  H   UNL     1       4.440  -2.512  -0.422  0.00  0.00    +0.144 HD
ENDBRANCH   6  17
TORSDOF 2
