REMARK  Name = ZINC08029880
REMARK  7 active torsions:
REMARK  status: ('A' for Active; 'I' for Inactive)
REMARK    1  A    between atoms: C_1  and  N_2
REMARK    2  A    between atoms: N_2  and  C_3
REMARK    3  A    between atoms: C_6  and  C_12
REMARK    4  A    between atoms: C_8  and  N_9
REMARK    5  A    between atoms: N_14  and  N_15
REMARK    6  A    between atoms: C_16  and  C_18
REMARK    7  A    between atoms: C_18  and  C_19
REMARK                            x       y       z     vdW  Elec       q    Type
REMARK                         _______ _______ _______ _____ _____    ______ ____
ROOT
ATOM      1  C   UNL     1      -7.996   1.387   3.022  0.00  0.00    +0.260 C 
ATOM      2  O   UNL     1      -8.471   0.684   2.151  0.00  0.00    -0.269 OA
ATOM      3  N   UNL     1      -6.711   1.785   2.941  0.00  0.00    -0.230 N 
ATOM      4  H   UNL     1      -6.333   2.346   3.636  0.00  0.00    +0.173 HD
ENDROOT
BRANCH   1   8
ATOM      5  C   UNL     1     -10.388   2.591   6.318  0.00  0.00    +0.058 A 
ATOM      6  C   UNL     1      -9.061   3.003   6.236  0.00  0.00    +0.026 A 
ATOM      7  C   UNL     1      -8.282   2.610   5.172  0.00  0.00    +0.015 A 
ATOM      8  C   UNL     1      -8.827   1.806   4.167  0.00  0.00    +0.040 A 
ATOM      9  C   UNL     1     -10.160   1.394   4.252  0.00  0.00    +0.047 A 
ATOM     10  C   UNL     1     -10.933   1.785   5.322  0.00  0.00    +0.148 A 
BRANCH   5  12
ATOM     11  C   UNL     1     -10.641   3.933   8.380  0.00  0.00    +0.125 C 
ATOM     12  N   UNL     1     -11.171   2.984   7.397  0.00  0.00    -0.345 N 
ATOM     13  H   UNL     1     -12.069   2.631   7.500  0.00  0.00    +0.146 HD
ENDBRANCH   5  12
BRANCH  10  14
ATOM     14  N   UNL     1     -12.345   1.350   5.412  0.00  0.00    +0.058 N 
ATOM     15  O   UNL     1     -12.855   0.741   4.489  0.00  0.00    -0.126 OA
ATOM     16  O   UNL     1     -12.997   1.601   6.410  0.00  0.00    -0.126 OA
ENDBRANCH  10  14
ENDBRANCH   1   8
BRANCH   3  17
ATOM     17  N   UNL     1      -5.922   1.388   1.854  0.00  0.00    -0.234 N 
ATOM     18  C   UNL     1      -4.637   1.786   1.774  0.00  0.00    +0.230 C 
ATOM     19  O   UNL     1      -4.163   2.488   2.642  0.00  0.00    -0.274 OA
ATOM     20  H   UNL     1      -6.300   0.827   1.160  0.00  0.00    +0.173 HD
BRANCH  18  21
ATOM     21  C   UNL     1      -3.788   1.359   0.604  0.00  0.00    +0.104 C 
BRANCH  21  22
ATOM     22  C   UNL     1      -2.381   1.942   0.755  0.00  0.00    -0.020 C 
ATOM     23  C   UNL     1      -1.519   1.508  -0.433  0.00  0.00    +0.011 C 
ATOM     24  C   UNL     1      -0.113   2.091  -0.282  0.00  0.00    -0.010 C 
ATOM     25  C   UNL     1       0.514   1.581   1.017  0.00  0.00    +0.007 C 
ATOM     26  C   UNL     1      -0.348   2.015   2.204  0.00  0.00    -0.010 C 
ATOM     27  C   UNL     1      -1.754   1.431   2.054  0.00  0.00    +0.011 C 
ATOM     28  C   UNL     1      -0.430   3.542   2.244  0.00  0.00    +0.007 C 
ATOM     29  C   UNL     1      -1.058   4.052   0.945  0.00  0.00    -0.010 C 
ATOM     30  C   UNL     1      -0.196   3.618  -0.243  0.00  0.00    +0.007 C 
ATOM     31  C   UNL     1      -2.464   3.469   0.794  0.00  0.00    +0.011 C 
ENDBRANCH  21  22
ENDBRANCH  18  21
ENDBRANCH   3  17
TORSDOF 6
