REMARK  Name = ZINC62804927
REMARK  6 active torsions:
REMARK  status: ('A' for Active; 'I' for Inactive)
REMARK    1  A    between atoms: C_1  and  C_2
REMARK    2  A    between atoms: C_2  and  N_3
REMARK    3  A    between atoms: N_3  and  C_4
REMARK    4  A    between atoms: C_12  and  O_14
REMARK    5  A    between atoms: O_14  and  C_15
REMARK    6  A    between atoms: C_15  and  C_16
REMARK                            x       y       z     vdW  Elec       q    Type
REMARK                         _______ _______ _______ _____ _____    ______ ____
ROOT
ATOM      1  C   UNL     1      -1.356  -1.981   0.004  0.00  0.00    +0.001 C 
ATOM      2  C   UNL     1      -0.854  -2.520  -1.356  0.00  0.00    +0.218 C 
ATOM      3  O   UNL     1      -2.073  -2.710  -2.094  0.00  0.00    -0.493 OA
ATOM      4  C   UNL     1      -3.092  -2.953  -1.224  0.00  0.00    +0.126 A 
ATOM      5  C   UNL     1      -2.764  -2.543   0.064  0.00  0.00    -0.016 A 
ATOM      6  C   UNL     1      -3.658  -2.686   1.101  0.00  0.00    +0.009 A 
ATOM      7  C   UNL     1      -4.900  -3.251   0.873  0.00  0.00    +0.046 A 
ATOM      8  C   UNL     1      -5.239  -3.672  -0.405  0.00  0.00    +0.125 A 
ATOM      9  C   UNL     1      -4.340  -3.525  -1.451  0.00  0.00    +0.091 A 
ENDROOT
BRANCH   1  10
ATOM     10  N   UNL     1      -1.376  -0.512   0.012  0.00  0.00    +0.386 N 
ATOM     11  H   UNL     1      -1.848  -0.187   0.843  0.00  0.00    -0.085 HD
ATOM     12  H   UNL     1      -1.864  -0.178  -0.805  0.00  0.00    -0.085 HD
BRANCH  10  14
ATOM     13  C   UNL     1      -0.019   1.526   0.010  0.00  0.00    -0.017 C 
ATOM     14  C   UNL     1       0.002  -0.004   0.002  0.00  0.00    -0.085 C 
ENDBRANCH  10  14
ENDBRANCH   1  10
BRANCH   8  15
ATOM     15  O   UNL     1      -6.457  -4.230  -0.633  0.00  0.00    -0.483 OA
BRANCH  15  16
ATOM     16  C   UNL     1      -7.335  -4.352   0.488  0.00  0.00    +0.325 C 
BRANCH  16  17
ATOM     17  C   UNL     1      -8.627  -4.989   0.046  0.00  0.00    +0.258 C 
ATOM     18  O   UNL     1      -8.781  -5.307  -1.113  0.00  0.00    -0.272 OA
ATOM     19  N   UNL     1      -9.612  -5.205   0.941  0.00  0.00    -0.238 N 
ATOM     20  C   UNL     1     -10.768  -5.774   0.546  0.00  0.00    +0.303 C 
ATOM     21  O   UNL     1     -10.922  -6.093  -0.616  0.00  0.00    -0.253 OA
ATOM     22  N   UNL     1     -11.753  -5.990   1.441  0.00  0.00    -0.313 N 
ATOM     23  H   UNL     1      -9.489  -4.950   1.869  0.00  0.00    +0.159 HD
ATOM     24  H   UNL     1     -11.629  -5.736   2.369  0.00  0.00    +0.146 HD
ATOM     25  H   UNL     1     -12.585  -6.400   1.157  0.00  0.00    +0.146 HD
ENDBRANCH  16  17
ENDBRANCH  15  16
ENDBRANCH   8  15
TORSDOF 5
