REMARK  Name = ZINC39678598
REMARK  7 active torsions:
REMARK  status: ('A' for Active; 'I' for Inactive)
REMARK    1  A    between atoms: C_1  and  N_2
REMARK    2  A    between atoms: C_6  and  C_7
REMARK    3  A    between atoms: C_11  and  C_20
REMARK    4  A    between atoms: N_22  and  C_23
REMARK    5  A    between atoms: C_23  and  C_24
REMARK    6  A    between atoms: C_28  and  O_30
REMARK    7  A    between atoms: O_30  and  C_31
REMARK                            x       y       z     vdW  Elec       q    Type
REMARK                         _______ _______ _______ _____ _____    ______ ____
ROOT
ATOM      1  C   UNL     1      -0.172  -0.420   2.571  0.00  0.00    +0.265 C 
ATOM      2  O   UNL     1      -0.136  -1.250   3.460  0.00  0.00    -0.268 OA
ATOM      3  N   UNL     1      -0.389   0.877   2.869  0.00  0.00    -0.295 N 
ATOM      4  C   UNL     1      -0.606   2.001   1.927  0.00  0.00    +0.121 C 
ATOM      5  C   UNL     1      -1.701   2.863   2.595  0.00  0.00    +0.100 C 
ATOM      6  C   UNL     1      -1.601   2.532   4.093  0.00  0.00    -0.004 C 
ATOM      7  C   UNL     1      -0.471   1.500   4.212  0.00  0.00    +0.115 C 
ATOM      8  C   UNL     1      -1.258   3.787   4.890  0.00  0.00    -0.010 C 
ATOM      9  C   UNL     1      -1.222   3.445   6.382  0.00  0.00    -0.082 C 
ATOM     10  N   UNL     1      -2.529   2.920   6.798  0.00  0.00    +0.379 N 
ATOM     11  C   UNL     1      -2.810   1.663   6.094  0.00  0.00    -0.082 C 
ATOM     12  C   UNL     1      -2.913   1.929   4.589  0.00  0.00    -0.010 C 
ATOM     13  H   UNL     1      -2.522   2.752   7.793  0.00  0.00    -0.086 HD
ATOM     14  H   UNL     1      -3.246   3.594   6.578  0.00  0.00    -0.086 HD
ENDROOT
BRANCH   1  20
ATOM     15  C   UNL     1       0.013  -3.353   1.487  0.00  0.00    +0.150 C 
ATOM     16  N   UNL     1       0.103  -2.123   0.696  0.00  0.00    -0.330 N 
ATOM     17  C   UNL     1       0.276  -2.039  -0.635  0.00  0.00    +0.199 A 
ATOM     18  N   UNL     1       0.307  -0.779  -0.986  0.00  0.00    -0.243 NA
ATOM     19  C   UNL     1       0.158  -0.009   0.091  0.00  0.00    +0.143 A 
ATOM     20  C   UNL     1       0.021  -0.830   1.175  0.00  0.00    +0.124 A 
ENDBRANCH   1  20
BRANCH   5  21
ATOM     21  C   UNL     1      -1.431   4.327   2.360  0.00  0.00    +0.218 C 
ATOM     22  O   UNL     1      -0.290   4.731   2.294  0.00  0.00    -0.275 OA
ATOM     23  N   UNL     1      -2.460   5.188   2.222  0.00  0.00    -0.311 N 
ATOM     24  H   UNL     1      -3.373   4.864   2.274  0.00  0.00    +0.149 HD
BRANCH  23  25
ATOM     25  C   UNL     1      -2.198   6.611   1.993  0.00  0.00    +0.139 C 
BRANCH  25  26
ATOM     26  C   UNL     1      -3.506   7.349   1.874  0.00  0.00    -0.027 A 
ATOM     27  C   UNL     1      -4.109   7.493   0.638  0.00  0.00    +0.005 A 
ATOM     28  C   UNL     1      -5.309   8.170   0.526  0.00  0.00    +0.004 A 
ATOM     29  C   UNL     1      -5.909   8.705   1.650  0.00  0.00    +0.046 A 
ATOM     30  C   UNL     1      -5.306   8.562   2.891  0.00  0.00    +0.127 A 
ATOM     31  C   UNL     1      -4.105   7.877   3.002  0.00  0.00    +0.051 A 
BRANCH  30  32
ATOM     32  O   UNL     1      -5.894   9.088   3.998  0.00  0.00    -0.434 OA
BRANCH  32  33
ATOM     33  C   UNL     1      -7.133   9.775   3.810  0.00  0.00    +0.541 C 
ATOM     34  F   UNL     1      -6.941  10.853   2.938  0.00  0.00    -0.166 F 
ATOM     35  F   UNL     1      -8.076   8.897   3.265  0.00  0.00    -0.166 F 
ENDBRANCH  32  33
ENDBRANCH  30  32
ENDBRANCH  25  26
ENDBRANCH  23  25
ENDBRANCH   5  21
TORSDOF 6
