REMARK  Name = ZINC08746932
REMARK  8 active torsions:
REMARK  status: ('A' for Active; 'I' for Inactive)
REMARK    1  A    between atoms: C_1  and  C_2
REMARK    2  A    between atoms: N_7  and  C_8
REMARK    3  A    between atoms: C_8  and  C_9
REMARK    4  A    between atoms: C_9  and  O_11
REMARK    5  A    between atoms: O_11  and  C_12
REMARK    6  A    between atoms: C_12  and  C_13
REMARK    7  A    between atoms: C_17  and  C_23
REMARK    8  A    between atoms: C_18  and  C_22
REMARK                            x       y       z     vdW  Elec       q    Type
REMARK                         _______ _______ _______ _____ _____    ______ ____
ROOT
ATOM      1  C   UNL     1       2.857   7.127   3.561  0.00  0.00    +0.170 A 
ATOM      2  N   UNL     1       4.145   7.412   3.638  0.00  0.00    -0.214 NA
ATOM      3  C   UNL     1       4.585   8.655   3.755  0.00  0.00    +0.128 A 
ATOM      4  C   UNL     1       3.645   9.721   3.812  0.00  0.00    +0.050 A 
ATOM      5  C   UNL     1       3.869  11.150   3.944  0.00  0.00    -0.028 A 
ATOM      6  C   UNL     1       2.813  11.977   3.977  0.00  0.00    -0.008 A 
ATOM      7  S   UNL     1       1.417  10.878   3.831  0.00  0.00    -0.074 S 
ATOM      8  C   UNL     1       2.289   9.337   3.730  0.00  0.00    +0.114 A 
ATOM      9  N   UNL     1       1.939   8.072   3.608  0.00  0.00    -0.221 NA
ATOM     10  C   UNL     1       2.809  13.479   4.105  0.00  0.00    +0.052 C 
ATOM     11  C   UNL     1       5.269  11.697   4.041  0.00  0.00    +0.045 C 
ATOM     12  N   UNL     1       5.942   8.913   3.828  0.00  0.00    -0.343 N 
ATOM     13  H   UNL     1       6.258   9.736   4.230  0.00  0.00    +0.144 HD
ATOM     14  H   UNL     1       6.577   8.270   3.476  0.00  0.00    +0.144 HD
ENDROOT
BRANCH   1  15
ATOM     15  C   UNL     1       2.429   5.688   3.422  0.00  0.00    +0.308 C 
BRANCH  15  16
ATOM     16  O   UNL     1       2.341   5.343   2.015  0.00  0.00    -0.455 OA
BRANCH  16  17
ATOM     17  C   UNL     1       1.968   4.088   1.717  0.00  0.00    +0.328 C 
ATOM     18  O   UNL     1       1.724   3.304   2.603  0.00  0.00    -0.249 OA
BRANCH  17  19
ATOM     19  C   UNL     1       1.855   3.657   0.278  0.00  0.00    +0.246 C 
BRANCH  19  26
ATOM     20  C   UNL     1       3.837   1.576   0.247  0.00  0.00    +0.064 C 
ATOM     21  C   UNL     1       2.364   1.257   0.204  0.00  0.00    +0.027 A 
ATOM     22  C   UNL     1       1.942  -0.009   0.150  0.00  0.00    +0.071 A 
ATOM     23  S   UNL     1       0.170   0.200   0.119  0.00  0.00    -0.035 S 
ATOM     24  C   UNL     1       0.123   1.933   0.180  0.00  0.00    +0.291 A 
ATOM     25  O   UNL     1      -0.845   2.672   0.181  0.00  0.00    -0.259 OA
ATOM     26  N   UNL     1       1.436   2.255   0.219  0.00  0.00    -0.296 N 
ENDBRANCH  19  26
ENDBRANCH  17  19
ENDBRANCH  16  17
ENDBRANCH  15  16
ENDBRANCH   1  15
TORSDOF 5
