REMARK  Name = ZINC36339823
REMARK  9 active torsions:
REMARK  status: ('A' for Active; 'I' for Inactive)
REMARK    1  A    between atoms: C_1  and  C_2
REMARK    2  A    between atoms: C_2  and  C_3
REMARK    3  A    between atoms: C_3  and  C_4
REMARK    4  A    between atoms: C_4  and  C_5
REMARK    5  A    between atoms: C_5  and  C_28
REMARK    6  A    between atoms: N_8  and  C_12
REMARK    7  A    between atoms: C_12  and  C_13
REMARK    8  A    between atoms: N_15  and  C_16
REMARK    9  A    between atoms: C_17  and  C_25
REMARK                            x       y       z     vdW  Elec       q    Type
REMARK                         _______ _______ _______ _____ _____    ______ ____
ROOT
ATOM      1  C   UNL     1       1.503  -2.548   2.473  0.00  0.00    +0.138 C 
ATOM      2  C   UNL     1       2.888  -1.937   2.554  0.00  0.00    +0.251 C 
ATOM      3  O   UNL     1       3.789  -2.057   1.751  0.00  0.00    -0.272 OA
ATOM      4  N   UNL     1       2.909  -1.234   3.703  0.00  0.00    -0.215 N 
ATOM      5  C   UNL     1       1.742  -1.313   4.352  0.00  0.00    +0.310 C 
ATOM      6  O   UNL     1       1.520  -0.763   5.413  0.00  0.00    -0.252 OA
ATOM      7  N   UNL     1       0.843  -2.072   3.701  0.00  0.00    -0.281 N 
ATOM      8  H   UNL     1      -0.064  -2.268   3.984  0.00  0.00    +0.152 HD
ENDROOT
BRANCH   1   9
ATOM      9  C   UNL     1       1.583  -4.052   2.462  0.00  0.00    -0.015 A 
ATOM     10  C   UNL     1       1.629  -4.733   1.260  0.00  0.00    +0.009 A 
ATOM     11  C   UNL     1       1.703  -6.113   1.249  0.00  0.00    +0.039 A 
ATOM     12  C   UNL     1       1.730  -6.814   2.443  0.00  0.00    +0.123 A 
ATOM     13  C   UNL     1       1.684  -6.131   3.646  0.00  0.00    +0.039 A 
ATOM     14  C   UNL     1       1.616  -4.751   3.655  0.00  0.00    +0.009 A 
ATOM     15  F   UNL     1       1.802  -8.163   2.433  0.00  0.00    -0.205 F 
ENDBRANCH   1   9
BRANCH   1  16
ATOM     16  C   UNL     1       0.763  -2.041   1.233  0.00  0.00    +0.040 C 
BRANCH  16  17
ATOM     17  C   UNL     1       0.742  -0.511   1.242  0.00  0.00    +0.003 C 
BRANCH  17  19
ATOM     18  C   UNL     1      -0.019   1.526   0.010  0.00  0.00    +0.004 C 
ATOM     19  C   UNL     1       0.002  -0.004   0.002  0.00  0.00    -0.003 C 
ENDBRANCH  17  19
ENDBRANCH  16  17
ENDBRANCH   1  16
BRANCH   4  20
ATOM     20  C   UNL     1       4.068  -0.475   4.182  0.00  0.00    +0.214 C 
BRANCH  20  21
ATOM     21  C   UNL     1       4.000   0.934   3.651  0.00  0.00    +0.236 C 
ATOM     22  O   UNL     1       3.076   1.271   2.943  0.00  0.00    -0.274 OA
ATOM     23  N   UNL     1       4.967   1.819   3.964  0.00  0.00    -0.278 N 
ATOM     24  H   UNL     1       5.707   1.549   4.531  0.00  0.00    +0.155 HD
BRANCH  23  25
ATOM     25  C   UNL     1       4.905   3.115   3.476  0.00  0.00    +0.084 A 
ATOM     26  C   UNL     1       5.804   4.149   3.687  0.00  0.00    +0.068 A 
ATOM     27  C   UNL     1       5.508   5.425   3.058  0.00  0.00    -0.023 A 
ATOM     28  C   UNL     1       4.368   5.433   2.334  0.00  0.00    -0.004 A 
ATOM     29  S   UNL     1       3.728   3.791   2.488  0.00  0.00    -0.077 S 
ATOM     30  C   UNL     1       3.793   6.587   1.573  0.00  0.00    +0.043 C 
ATOM     31  C   UNL     1       4.494   7.871   2.043  0.00  0.00    +0.005 C 
ATOM     32  C   UNL     1       6.007   7.635   2.051  0.00  0.00    +0.005 C 
ATOM     33  C   UNL     1       6.378   6.667   3.176  0.00  0.00    +0.037 C 
BRANCH  26  34
ATOM     34  C   UNL     1       7.003   3.963   4.510  0.00  0.00    +0.244 C 
ATOM     35  O   UNL     1       8.041   3.590   3.997  0.00  0.00    -0.270 OA
ATOM     36  N   UNL     1       6.955   4.205   5.835  0.00  0.00    -0.325 N 
ATOM     37  H   UNL     1       6.127   4.502   6.244  0.00  0.00    +0.145 HD
ATOM     38  H   UNL     1       7.748   4.082   6.380  0.00  0.00    +0.145 HD
ENDBRANCH  26  34
ENDBRANCH  23  25
ENDBRANCH  20  21
ENDBRANCH   4  20
TORSDOF 8
