REMARK  Name = ZINC52936836
REMARK  10 active torsions:
REMARK  status: ('A' for Active; 'I' for Inactive)
REMARK    1  A    between atoms: C_1  and  N_2
REMARK    2  A    between atoms: N_2  and  C_3
REMARK    3  A    between atoms: N_2  and  C_4
REMARK    4  A    between atoms: C_4  and  C_9
REMARK    5  A    between atoms: C_9  and  N_10
REMARK    6  A    between atoms: C_11  and  C_13
REMARK    7  A    between atoms: C_13  and  C_14
REMARK    8  A    between atoms: C_14  and  C_15
REMARK    9  A    between atoms: C_15  and  N_16
REMARK   10  A    between atoms: N_19  and  C_20
REMARK                            x       y       z     vdW  Elec       q    Type
REMARK                         _______ _______ _______ _____ _____    ______ ____
ROOT
ATOM      1  C   UNL     1      -3.454   3.462   1.688  0.00  0.00    +0.097 C 
ENDROOT
BRANCH   1   3
ATOM      2  N   UNL     1      -2.411   1.335   0.974  0.00  0.00    -0.317 N 
ATOM      3  C   UNL     1      -3.220   1.980   1.837  0.00  0.00    +0.213 C 
ATOM      4  O   UNL     1      -3.761   1.369   2.734  0.00  0.00    -0.276 OA
ATOM      5  H   UNL     1      -1.978   1.825   0.257  0.00  0.00    +0.149 HD
BRANCH   2   6
ATOM      6  C   UNL     1      -2.184  -0.105   1.120  0.00  0.00    +0.092 C 
BRANCH   6   7
ATOM      7  C   UNL     1      -1.327  -0.606  -0.044  0.00  0.00    -0.050 C 
ATOM      8  C   UNL     1      -2.083  -0.423  -1.376  0.00  0.00    -0.010 C 
ATOM      9  C   UNL     1      -1.699  -1.674  -2.205  0.00  0.00    -0.001 C 
ATOM     10  C   UNL     1      -1.666  -2.795  -1.137  0.00  0.00    -0.001 C 
ATOM     11  C   UNL     1      -1.061  -2.114   0.107  0.00  0.00    -0.010 C 
BRANCH   7  13
ATOM     12  C   UNL     1       0.690  -0.115   1.160  0.00  0.00    -0.096 C 
ATOM     13  N   UNL     1      -0.054   0.127  -0.084  0.00  0.00    +0.381 N 
ATOM     14  C   UNL     1       0.742  -0.334  -1.228  0.00  0.00    -0.096 C 
ATOM     15  H   UNL     1      -0.238   1.115  -0.178  0.00  0.00    -0.082 HD
ENDBRANCH   7  13
ENDBRANCH   6   7
ENDBRANCH   2   6
ENDBRANCH   1   3
BRANCH   1  16
ATOM     16  C   UNL     1      -4.404   3.942   2.787  0.00  0.00    +0.028 C 
BRANCH  16  17
ATOM     17  C   UNL     1      -4.641   5.445   2.635  0.00  0.00    +0.106 C 
BRANCH  17  18
ATOM     18  N   UNL     1      -5.552   5.905   3.687  0.00  0.00    -0.299 N 
ATOM     19  C   UNL     1      -5.906   7.204   3.752  0.00  0.00    +0.300 C 
ATOM     20  O   UNL     1      -5.470   7.994   2.937  0.00  0.00    -0.253 OA
ATOM     21  N   UNL     1      -6.743   7.626   4.720  0.00  0.00    -0.297 N 
ATOM     22  H   UNL     1      -5.900   5.274   4.337  0.00  0.00    +0.150 HD
ATOM     23  H   UNL     1      -7.091   6.996   5.369  0.00  0.00    +0.151 HD
BRANCH  21  24
ATOM     24  C   UNL     1      -7.128   9.038   4.790  0.00  0.00    +0.074 C 
ATOM     25  C   UNL     1      -6.068   9.817   5.571  0.00  0.00    +0.022 C 
ATOM     26  C   UNL     1      -6.470  11.292   5.644  0.00  0.00    +0.002 C 
ATOM     27  C   UNL     1      -7.820  11.418   6.353  0.00  0.00    +0.000 C 
ATOM     28  C   UNL     1      -8.880  10.638   5.572  0.00  0.00    +0.002 C 
ATOM     29  C   UNL     1      -8.478   9.164   5.499  0.00  0.00    +0.022 C 
ENDBRANCH  21  24
ENDBRANCH  17  18
ENDBRANCH  16  17
ENDBRANCH   1  16
TORSDOF 8
