REMARK  Name = ZINC64436078
REMARK  4 active torsions:
REMARK  status: ('A' for Active; 'I' for Inactive)
REMARK    1  A    between atoms: C_4  and  C_7
REMARK    2  A    between atoms: N_9  and  C_21
REMARK    3  A    between atoms: C_10  and  C_13
REMARK    4  A    between atoms: N_15  and  C_16
REMARK                            x       y       z     vdW  Elec       q    Type
REMARK                         _______ _______ _______ _____ _____    ______ ____
ROOT
ATOM      1  C   UNL     1       3.693  -0.682  -0.038  0.00  0.00    +0.069 C 
ATOM      2  N   UNL     1       4.854  -0.123  -0.042  0.00  0.00    -0.183 NA
ATOM      3  N   UNL     1       5.918  -1.022  -0.059  0.00  0.00    -0.212 N 
ATOM      4  C   UNL     1       5.383  -2.393  -0.068  0.00  0.00    +0.190 C 
ATOM      5  C   UNL     1       3.856  -2.185  -0.048  0.00  0.00    +0.091 C 
ENDROOT
BRANCH   1   9
ATOM      6  C   UNL     1      -0.017   1.379   0.010  0.00  0.00    +0.000 A 
ATOM      7  C   UNL     1       1.168   2.094   0.002  0.00  0.00    +0.001 A 
ATOM      8  C   UNL     1       2.377   1.431  -0.013  0.00  0.00    +0.010 A 
ATOM      9  C   UNL     1       2.404   0.034  -0.021  0.00  0.00    -0.002 A 
ATOM     10  C   UNL     1       1.204  -0.681  -0.013  0.00  0.00    +0.010 A 
ATOM     11  C   UNL     1       0.002  -0.004   0.002  0.00  0.00    +0.001 A 
ENDBRANCH   1   9
BRANCH   3  12
ATOM     12  C   UNL     1       7.271  -0.679  -0.066  0.00  0.00    +0.052 A 
ATOM     13  C   UNL     1       8.242  -1.674  -0.090  0.00  0.00    +0.025 A 
ATOM     14  C   UNL     1       9.579  -1.330  -0.097  0.00  0.00    +0.002 A 
ATOM     15  C   UNL     1       9.953   0.001  -0.080  0.00  0.00    +0.000 A 
ATOM     16  C   UNL     1       8.990   0.993  -0.057  0.00  0.00    +0.002 A 
ATOM     17  C   UNL     1       7.650   0.658  -0.056  0.00  0.00    +0.025 A 
ENDBRANCH   3  12
BRANCH   4  18
ATOM     18  C   UNL     1       5.830  -3.146   1.159  0.00  0.00    +0.239 C 
ATOM     19  O   UNL     1       6.236  -2.539   2.127  0.00  0.00    -0.274 OA
ATOM     20  N   UNL     1       5.779  -4.492   1.179  0.00  0.00    -0.271 N 
ATOM     21  H   UNL     1       5.454  -4.977   0.404  0.00  0.00    +0.153 HD
BRANCH  20  22
ATOM     22  C   UNL     1       6.213  -5.224   2.372  0.00  0.00    +0.358 C 
ATOM     23  N   UNL     1       7.681  -5.343   2.399  0.00  0.00    -0.117 NA
ATOM     24  N   UNL     1       7.928  -6.556   2.368  0.00  0.00    -0.024 NA
ATOM     25  N   UNL     1       6.767  -7.323   2.321  0.00  0.00    -0.024 NA
ATOM     26  N   UNL     1       5.747  -6.620   2.320  0.00  0.00    -0.117 NA
ENDBRANCH  20  22
ENDBRANCH   4  18
TORSDOF 4
