REMARK  Name = ZINC27939568
REMARK  13 active torsions:
REMARK  status: ('A' for Active; 'I' for Inactive)
REMARK    1  A    between atoms: C_1  and  C_2
REMARK    2  A    between atoms: C_2  and  C_3
REMARK    3  A    between atoms: C_3  and  C_4
REMARK    4  A    between atoms: C_4  and  C_6
REMARK    5  A    between atoms: C_4  and  N_7
REMARK    6  A    between atoms: C_8  and  C_10
REMARK    7  A    between atoms: C_10  and  C_12
REMARK    8  A    between atoms: C_10  and  S_13
REMARK    9  A    between atoms: S_13  and  C_14
REMARK   10  A    between atoms: N_18  and  C_19
REMARK   11  A    between atoms: C_19  and  C_20
REMARK   12  A    between atoms: C_19  and  C_21
REMARK   13  A    between atoms: C_19  and  C_22
REMARK                            x       y       z     vdW  Elec       q    Type
REMARK                         _______ _______ _______ _____ _____    ______ ____
ROOT
ATOM      1  C   UNL     1       2.462   0.920  -0.017  0.00  0.00    +0.137 C 
ATOM      2  C   UNL     1       2.798   0.445   1.398  0.00  0.00    +0.029 C 
ENDROOT
BRANCH   1   4
ATOM      3  N   UNL     1      -0.011   0.966   0.007  0.00  0.00    -0.312 N 
ATOM      4  C   UNL     1       1.147   1.655   0.000  0.00  0.00    +0.226 C 
ATOM      5  O   UNL     1       1.130   2.868   0.007  0.00  0.00    -0.275 OA
ATOM      6  H   UNL     1       0.004  -0.134   0.006  0.00  0.00    +0.149 HD
BRANCH   3   7
ATOM      7  C   UNL     1      -1.290   1.681   0.017  0.00  0.00    +0.070 C 
ATOM      8  C   UNL     1      -1.680   2.047  -1.416  0.00  0.00    +0.028 C 
BRANCH   7   9
ATOM      9  C   UNL     1      -2.370   0.786   0.627  0.00  0.00    +0.022 C 
BRANCH   9  11
ATOM     10  C   UNL     1      -3.123  -0.374   2.708  0.00  0.00    +0.004 C 
ATOM     11  C   UNL     1      -2.043   0.521   2.098  0.00  0.00    -0.002 C 
ENDBRANCH   9  11
ENDBRANCH   7   9
ENDBRANCH   3   7
ENDBRANCH   1   4
BRANCH   1  12
ATOM     12  S   UNL     1       3.766   2.028  -0.607  0.00  0.00    -0.072 S 
BRANCH  12  13
ATOM     13  C   UNL     1       5.119   0.902  -0.669  0.00  0.00    +0.211 A 
ATOM     14  N   UNL     1       5.089  -0.375  -0.354  0.00  0.00    -0.101 NA
ATOM     15  N   UNL     1       6.248  -0.905  -0.512  0.00  0.00    -0.022 NA
ATOM     16  N   UNL     1       7.090  -0.024  -0.933  0.00  0.00    -0.043 NA
ATOM     17  N   UNL     1       6.385   1.186  -1.057  0.00  0.00    -0.215 N 
BRANCH  17  18
ATOM     18  C   UNL     1       6.909   2.478  -1.506  0.00  0.00    +0.060 C 
ATOM     19  C   UNL     1       6.735   3.514  -0.394  0.00  0.00    +0.036 C 
ATOM     20  C   UNL     1       8.394   2.337  -1.844  0.00  0.00    +0.036 C 
ATOM     21  C   UNL     1       6.144   2.933  -2.751  0.00  0.00    +0.036 C 
ENDBRANCH  17  18
ENDBRANCH  12  13
ENDBRANCH   1  12
TORSDOF 7
