REMARK  Name = ZINC14472650
REMARK  4 active torsions:
REMARK  status: ('A' for Active; 'I' for Inactive)
REMARK    1  A    between atoms: C_4  and  C_10
REMARK    2  A    between atoms: C_6  and  N_7
REMARK    3  A    between atoms: C_21  and  S_26
REMARK    4  A    between atoms: S_26  and  N_29
REMARK                            x       y       z     vdW  Elec       q    Type
REMARK                         _______ _______ _______ _____ _____    ______ ____
ROOT
ATOM      1  C   UNL     1      -0.073   5.348   0.031  0.00  0.00    +0.106 C 
ATOM      2  C   UNL     1       0.030   5.881  -1.387  0.00  0.00    +0.029 C 
ATOM      3  C   UNL     1       1.201   5.376  -2.240  0.00  0.00    +0.033 C 
ATOM      4  C   UNL     1       0.612   5.457  -3.650  0.00  0.00    -0.030 C 
ATOM      5  C   UNL     1      -0.711   5.363  -3.595  0.00  0.00    -0.023 C 
ATOM      6  C   UNL     1      -1.115   5.181  -2.178  0.00  0.00    +0.049 C 
ATOM      7  C   UNL     1      -2.404   5.688  -1.659  0.00  0.00    -0.018 A 
ATOM      8  C   UNL     1      -3.504   5.877  -2.466  0.00  0.00    +0.034 A 
ATOM      9  C   UNL     1      -4.692   6.340  -1.931  0.00  0.00    +0.105 A 
ATOM     10  C   UNL     1      -4.779   6.614  -0.578  0.00  0.00    +0.030 A 
ATOM     11  C   UNL     1      -3.681   6.435   0.238  0.00  0.00    +0.025 A 
ATOM     12  C   UNL     1      -2.480   5.977  -0.292  0.00  0.00    +0.031 A 
ATOM     13  N   UNL     1      -1.369   5.838   0.548  0.00  0.00    -0.336 N 
ATOM     14  H   UNL     1      -1.451   6.066   1.488  0.00  0.00    +0.147 HD
ENDROOT
BRANCH   1  18
ATOM     15  C   UNL     1      -0.013   1.076   0.008  0.00  0.00    +0.034 A 
ATOM     16  C   UNL     1       1.175   1.783   0.000  0.00  0.00    +0.022 A 
ATOM     17  C   UNL     1       1.156   3.166   0.008  0.00  0.00    +0.046 A 
ATOM     18  C   UNL     1      -0.052   3.841   0.023  0.00  0.00    -0.007 A 
ATOM     19  C   UNL     1      -1.238   3.133   0.031  0.00  0.00    +0.039 A 
ATOM     20  C   UNL     1      -1.219   1.750   0.017  0.00  0.00    +0.127 A 
ATOM     21 CL   UNL     1       2.647   4.055  -0.002  0.00  0.00    -0.083 Cl
BRANCH  20  22
ATOM     22  N   UNL     1      -2.490   0.993   0.019  0.00  0.00    +0.056 N 
ATOM     23  O   UNL     1      -2.473  -0.225   0.012  0.00  0.00    -0.126 OA
ATOM     24  O   UNL     1      -3.553   1.587   0.027  0.00  0.00    -0.126 OA
ENDBRANCH  20  22
ENDBRANCH   1  18
BRANCH   9  25
ATOM     25  S   UNL     1      -6.094   6.580  -2.971  0.00  0.00    +0.056 S 
ATOM     26  O   UNL     1      -6.921   7.537  -2.323  0.00  0.00    -0.153 OA
ATOM     27  O   UNL     1      -5.595   6.771  -4.287  0.00  0.00    -0.153 OA
BRANCH  25  28
ATOM     28  N   UNL     1      -6.941   5.157  -2.987  0.00  0.00    -0.204 NA
ATOM     29  H   UNL     1      -7.903   5.166  -3.108  0.00  0.00    +0.144 HD
ATOM     30  H   UNL     1      -6.474   4.314  -2.876  0.00  0.00    +0.144 HD
ENDBRANCH  25  28
ENDBRANCH   9  25
TORSDOF 4
