REMARK  Name = ZINC31722553
REMARK  10 active torsions:
REMARK  status: ('A' for Active; 'I' for Inactive)
REMARK    1  A    between atoms: C_1  and  C_2
REMARK    2  A    between atoms: C_5  and  N_11
REMARK    3  A    between atoms: C_6  and  C_10
REMARK    4  A    between atoms: C_7  and  O_8
REMARK    5  A    between atoms: O_8  and  C_9
REMARK    6  A    between atoms: N_11  and  S_12
REMARK    7  A    between atoms: S_12  and  C_15
REMARK    8  A    between atoms: C_17  and  C_21
REMARK    9  A    between atoms: N_18  and  C_20
REMARK   10  A    between atoms: N_23  and  C_24
REMARK                            x       y       z     vdW  Elec       q    Type
REMARK                         _______ _______ _______ _____ _____    ______ ____
ROOT
ATOM      1  S   UNL     1      -1.981  -3.439   0.162  0.00  0.00    +0.074 S 
ATOM      2  O   UNL     1      -3.334  -3.086  -0.089  0.00  0.00    -0.150 OA
ATOM      3  O   UNL     1      -1.355  -4.552  -0.462  0.00  0.00    -0.150 OA
ENDROOT
BRANCH   1   4
ATOM      4  C   UNL     1      -1.009  -2.025  -0.237  0.00  0.00    +0.127 A 
ATOM      5  C   UNL     1      -1.452  -0.699  -0.249  0.00  0.00    +0.061 A 
ATOM      6  C   UNL     1      -0.378   0.083  -0.618  0.00  0.00    +0.106 A 
ATOM      7  N   UNL     1       0.697  -0.754  -0.816  0.00  0.00    -0.344 N 
ATOM      8  C   UNL     1       0.301  -2.030  -0.582  0.00  0.00    +0.114 A 
ATOM      9  C   UNL     1       2.044  -0.337  -1.213  0.00  0.00    +0.149 C 
BRANCH   6  10
ATOM     10  C   UNL     1      -0.378   1.542  -0.766  0.00  0.00    +0.260 C 
ATOM     11  O   UNL     1       0.661   2.130  -1.003  0.00  0.00    -0.269 OA
ATOM     12  N   UNL     1      -1.528   2.233  -0.634  0.00  0.00    -0.313 N 
ATOM     13  C   UNL     1      -1.548   3.676  -0.885  0.00  0.00    +0.128 C 
ATOM     14  H   UNL     1      -2.451   1.713  -0.338  0.00  0.00    +0.149 HD
ENDBRANCH   6  10
ENDBRANCH   1   4
BRANCH   1  15
ATOM     15  N   UNL     1      -1.850  -3.678   1.796  0.00  0.00    -0.216 N 
ATOM     16  H   UNL     1      -1.428  -4.618   2.182  0.00  0.00    +0.174 HD
BRANCH  15  21
ATOM     17  C   UNL     1      -3.583   0.355   5.391  0.00  0.00    +0.047 C 
ATOM     18  C   UNL     1      -3.122  -0.716   4.437  0.00  0.00    -0.008 A 
ATOM     19  C   UNL     1      -3.809  -0.933   3.258  0.00  0.00    +0.009 A 
ATOM     20  C   UNL     1      -3.387  -1.911   2.379  0.00  0.00    +0.025 A 
ATOM     21  C   UNL     1      -2.274  -2.686   2.683  0.00  0.00    +0.054 A 
ATOM     22  C   UNL     1      -1.583  -2.470   3.866  0.00  0.00    +0.014 A 
ATOM     23  C   UNL     1      -2.007  -1.484   4.744  0.00  0.00    +0.128 A 
ATOM     24  C   UNL     1      -0.372  -3.304   4.197  0.00  0.00    +0.049 C 
BRANCH  23  25
ATOM     25  O   UNL     1      -1.331  -1.269   5.903  0.00  0.00    -0.495 OA
ATOM     26  C   UNL     1      -0.264  -0.320   5.865  0.00  0.00    +0.277 C 
ENDBRANCH  23  25
ENDBRANCH  15  21
ENDBRANCH   1  15
TORSDOF 5
