REMARK  Name = ZINC39588094
REMARK  3 active torsions:
REMARK  status: ('A' for Active; 'I' for Inactive)
REMARK    1  A    between atoms: C_3  and  C_8
REMARK    2  A    between atoms: C_11  and  C_14
REMARK    3  A    between atoms: C_17  and  C_20
REMARK                            x       y       z     vdW  Elec       q    Type
REMARK                         _______ _______ _______ _____ _____    ______ ____
ROOT
ATOM      1  C   UNL     1       3.658   2.164  -0.022  0.00  0.00    +0.168 C 
ATOM      2  N   UNL     1       3.741   3.454  -0.011  0.00  0.00    -0.067 NA
ATOM      3  O   UNL     1       5.093   3.873  -0.023  0.00  0.00    -0.367 OA
ATOM      4  C   UNL     1       5.891   2.680  -0.044  0.00  0.00    +0.322 C 
ATOM      5  N   UNL     1       4.912   1.581  -0.037  0.00  0.00    -0.287 N 
ATOM      6  H   UNL     1       5.108   0.631  -0.043  0.00  0.00    +0.151 HD
ENDROOT
BRANCH   1   9
ATOM      7  C   UNL     1      -0.017   1.379   0.010  0.00  0.00    +0.002 A 
ATOM      8  C   UNL     1       1.167   2.088   0.002  0.00  0.00    +0.011 A 
ATOM      9  C   UNL     1       2.385   1.408  -0.013  0.00  0.00    +0.019 A 
ATOM     10  C   UNL     1       2.398   0.013  -0.021  0.00  0.00    +0.031 A 
ATOM     11  C   UNL     1       1.208  -0.685  -0.013  0.00  0.00    +0.042 A 
ATOM     12  C   UNL     1       0.002  -0.004   0.002  0.00  0.00    +0.020 A 
ATOM     13 CL   UNL     1       1.222  -2.421  -0.023  0.00  0.00    -0.084 Cl
ENDBRANCH   1   9
BRANCH   4  14
ATOM     14  C   UNL     1       6.779   2.609   1.201  0.00  0.00    +0.215 C 
ATOM     15  C   UNL     1       7.695   3.817   1.274  0.00  0.00    +0.040 C 
ATOM     16  C   UNL     1       7.335   4.426   2.425  0.00  0.00    +0.126 C 
ATOM     17  N   UNL     1       6.332   3.735   3.031  0.00  0.00    -0.150 NA
ATOM     18  N   UNL     1       5.968   2.721   2.424  0.00  0.00    -0.174 NA
BRANCH  16  19
ATOM     19  C   UNL     1       7.944   5.665   2.950  0.00  0.00    +0.154 A 
ATOM     20  C   UNL     1       7.602   6.294   4.107  0.00  0.00    +0.051 A 
ATOM     21  C   UNL     1       8.433   7.427   4.213  0.00  0.00    +0.042 A 
ATOM     22  C   UNL     1       9.232   7.434   3.128  0.00  0.00    +0.196 A 
ATOM     23  O   UNL     1       8.937   6.366   2.369  0.00  0.00    -0.461 OA
ENDBRANCH  16  19
ENDBRANCH   4  14
TORSDOF 3
