REMARK  Name = ZINC16034246
REMARK  4 active torsions:
REMARK  status: ('A' for Active; 'I' for Inactive)
REMARK    1  A    between atoms: C_12  and  C_27
REMARK    2  A    between atoms: C_12  and  C_29
REMARK    3  A    between atoms: C_13  and  C_20
REMARK    4  A    between atoms: C_15  and  C_17
REMARK                            x       y       z     vdW  Elec       q    Type
REMARK                         _______ _______ _______ _____ _____    ______ ____
ROOT
ATOM      1  C   UNL     1      -2.266   5.327  -0.689  0.00  0.00    +0.001 A 
ATOM      2  C   UNL     1      -1.113   6.057  -0.458  0.00  0.00    +0.000 A 
ATOM      3  C   UNL     1       0.036   5.423  -0.018  0.00  0.00    +0.006 A 
ATOM      4  C   UNL     1       0.035   4.063   0.191  0.00  0.00    -0.017 A 
ATOM      5  C   UNL     1      -1.127   3.316  -0.036  0.00  0.00    -0.019 A 
ATOM      6  C   UNL     1      -2.281   3.964  -0.482  0.00  0.00    +0.008 A 
ATOM      7  C   UNL     1      -1.139   1.858   0.196  0.00  0.00    +0.023 C 
ATOM      8  C   UNL     1       0.032   1.195   0.289  0.00  0.00    +0.072 C 
ATOM      9  N   UNL     1       1.179   1.959   0.166  0.00  0.00    -0.314 N 
ATOM     10  C   UNL     1       1.274   3.348   0.663  0.00  0.00    +0.139 C 
ATOM     11  C   UNL     1       2.539   3.963   0.044  0.00  0.00    +0.174 C 
ATOM     12  C   UNL     1       2.919   2.973  -1.089  0.00  0.00    +0.085 C 
ATOM     13  C   UNL     1       2.440   1.618  -0.499  0.00  0.00    +0.169 C 
ENDROOT
BRANCH  12  14
ATOM     14  C   UNL     1       4.408   2.964  -1.320  0.00  0.00    -0.038 A 
ATOM     15  C   UNL     1       5.269   2.691  -0.273  0.00  0.00    +0.004 A 
ATOM     16  C   UNL     1       6.635   2.677  -0.486  0.00  0.00    +0.001 A 
ATOM     17  C   UNL     1       7.141   2.946  -1.744  0.00  0.00    +0.015 A 
ATOM     18  C   UNL     1       6.280   3.224  -2.791  0.00  0.00    +0.018 A 
ATOM     19  C   UNL     1       4.913   3.233  -2.578  0.00  0.00    +0.019 A 
ATOM     20 BR   UNL     1       6.973   3.593  -4.511  0.00  0.00    -0.050 Br
ENDBRANCH  12  14
BRANCH  13  21
ATOM     21  C   UNL     1       3.438   1.087   0.497  0.00  0.00    +0.232 C 
ATOM     22  O   UNL     1       3.285   1.299   1.681  0.00  0.00    -0.274 OA
ATOM     23  N   UNL     1       4.502   0.377   0.072  0.00  0.00    -0.328 N 
ATOM     24  H   UNL     1       5.230  -0.011   0.799  0.00  0.00    +0.145 HD
ATOM     25  H   UNL     1       4.641   0.184  -1.002  0.00  0.00    +0.145 HD
ENDBRANCH  13  21
BRANCH  11  26
ATOM     26  C   UNL     1       3.617   4.043   1.043  0.00  0.00    +0.087 C 
ATOM     27  N   UNL     1       4.449   4.105   1.814  0.00  0.00    -0.195 NA
ENDBRANCH  11  26
BRANCH  11  28
ATOM     28  C   UNL     1       2.247   5.295  -0.511  0.00  0.00    +0.087 C 
ATOM     29  N   UNL     1       2.022   6.323  -0.939  0.00  0.00    -0.195 NA
ENDBRANCH  11  28
TORSDOF 4
