REMARK  Name = ZINC63717995
REMARK  10 active torsions:
REMARK  status: ('A' for Active; 'I' for Inactive)
REMARK    1  A    between atoms: C_1  and  C_2
REMARK    2  A    between atoms: C_2  and  C_3
REMARK    3  A    between atoms: C_3  and  C_4
REMARK    4  A    between atoms: C_4  and  C_5
REMARK    5  A    between atoms: C_4  and  N_24
REMARK    6  A    between atoms: N_7  and  C_8
REMARK    7  A    between atoms: C_8  and  C_9
REMARK    8  A    between atoms: C_12  and  O_16
REMARK    9  A    between atoms: C_13  and  C_15
REMARK   10  A    between atoms: O_16  and  C_17
REMARK                            x       y       z     vdW  Elec       q    Type
REMARK                         _______ _______ _______ _____ _____    ______ ____
ROOT
ATOM      1  C   UNL     1       4.202  -3.325   4.571  0.00  0.00    +0.139 C 
ENDROOT
BRANCH   1   2
ATOM      2  C   UNL     1       5.542  -3.161   3.900  0.00  0.00    -0.030 A 
ATOM      3  C   UNL     1       6.190  -4.263   3.373  0.00  0.00    +0.009 A 
ATOM      4  C   UNL     1       7.418  -4.116   2.758  0.00  0.00    +0.047 A 
ATOM      5  C   UNL     1       8.001  -2.860   2.668  0.00  0.00    +0.131 A 
ATOM      6  C   UNL     1       7.348  -1.755   3.197  0.00  0.00    -0.008 A 
ATOM      7  C   UNL     1       6.118  -1.908   3.806  0.00  0.00    +0.012 A 
ATOM      8  C   UNL     1       7.978  -0.390   3.101  0.00  0.00    +0.047 C 
BRANCH   5   9
ATOM      9  O   UNL     1       9.208  -2.712   2.063  0.00  0.00    -0.456 OA
BRANCH   9  10
ATOM     10  C   UNL     1       9.807  -3.821   1.553  0.00  0.00    +0.129 A 
ATOM     11  C   UNL     1       9.564  -4.199   0.241  0.00  0.00    +0.049 A 
ATOM     12  C   UNL     1      10.173  -5.326  -0.276  0.00  0.00    +0.042 A 
ATOM     13  C   UNL     1      11.026  -6.077   0.515  0.00  0.00    +0.124 A 
ATOM     14  C   UNL     1      11.269  -5.701   1.825  0.00  0.00    +0.042 A 
ATOM     15  C   UNL     1      10.666  -4.571   2.343  0.00  0.00    +0.049 A 
ATOM     16  F   UNL     1      11.621  -7.179   0.008  0.00  0.00    -0.205 F 
ENDBRANCH   9  10
ENDBRANCH   5   9
ENDBRANCH   1   2
BRANCH   1  19
ATOM     17  C   UNL     1       1.846  -3.287   3.950  0.00  0.00    +0.234 C 
ATOM     18  O   UNL     1       1.567  -3.506   5.109  0.00  0.00    -0.274 OA
ATOM     19  N   UNL     1       3.137  -3.178   3.576  0.00  0.00    -0.310 N 
ATOM     20  H   UNL     1       3.360  -3.003   2.648  0.00  0.00    +0.149 HD
BRANCH  17  21
ATOM     21  C   UNL     1       0.750  -3.136   2.927  0.00  0.00    +0.160 C 
BRANCH  21  22
ATOM     22  N   UNL     1      -0.480  -3.748   3.435  0.00  0.00    -0.288 N 
ATOM     23  C   UNL     1      -1.036  -3.295   4.577  0.00  0.00    +0.298 C 
ATOM     24  O   UNL     1      -0.516  -2.380   5.185  0.00  0.00    -0.253 OA
ATOM     25  N   UNL     1      -2.167  -3.858   5.045  0.00  0.00    -0.313 N 
ATOM     26  H   UNL     1      -0.895  -4.478   2.950  0.00  0.00    +0.151 HD
ATOM     27  H   UNL     1      -2.582  -4.589   4.560  0.00  0.00    +0.146 HD
ATOM     28  H   UNL     1      -2.567  -3.532   5.866  0.00  0.00    +0.146 HD
ENDBRANCH  21  22
BRANCH  21  29
ATOM     29  C   UNL     1       0.507  -1.650   2.656  0.00  0.00    +0.031 C 
BRANCH  29  31
ATOM     30  C   UNL     1      -0.760  -0.013   1.257  0.00  0.00    +0.004 C 
ATOM     31  C   UNL     1      -0.517  -1.498   1.528  0.00  0.00    -0.001 C 
ENDBRANCH  29  31
ENDBRANCH  21  29
ENDBRANCH  17  21
ENDBRANCH   1  19
TORSDOF 8
