REMARK  Name = ZINC09194000
REMARK  9 active torsions:
REMARK  status: ('A' for Active; 'I' for Inactive)
REMARK    1  A    between atoms: C_1  and  C_2
REMARK    2  A    between atoms: C_2  and  O_3
REMARK    3  A    between atoms: O_3  and  C_4
REMARK    4  A    between atoms: C_6  and  C_19
REMARK    5  A    between atoms: C_9  and  O_10
REMARK    6  A    between atoms: O_10  and  C_11
REMARK    7  A    between atoms: C_11  and  C_12
REMARK    8  A    between atoms: C_19  and  N_20
REMARK    9  A    between atoms: N_20  and  N_21
REMARK                            x       y       z     vdW  Elec       q    Type
REMARK                         _______ _______ _______ _____ _____    ______ ____
ROOT
ATOM      1  C   UNL     1       6.477  -0.875  -1.691  0.00  0.00    +0.163 A 
ATOM      2  C   UNL     1       7.673  -1.550  -1.883  0.00  0.00    +0.054 A 
ATOM      3  C   UNL     1       7.681  -2.928  -1.981  0.00  0.00    -0.024 A 
ATOM      4  C   UNL     1       6.498  -3.638  -1.883  0.00  0.00    +0.024 A 
ATOM      5  C   UNL     1       5.303  -2.972  -1.685  0.00  0.00    +0.063 A 
ATOM      6  C   UNL     1       5.288  -1.589  -1.586  0.00  0.00    +0.176 A 
ATOM      7 BR   UNL     1       3.688  -3.947  -1.549  0.00  0.00    -0.046 Br
ENDROOT
BRANCH   1   8
ATOM      8  O   UNL     1       6.468   0.482  -1.600  0.00  0.00    -0.489 OA
BRANCH   8  10
ATOM      9  C   UNL     1       7.516   2.659  -1.590  0.00  0.00    +0.048 C 
ATOM     10  C   UNL     1       7.726   1.149  -1.717  0.00  0.00    +0.226 C 
ENDBRANCH   8  10
ENDBRANCH   1   8
BRANCH   6  11
ATOM     11  O   UNL     1       4.113  -0.932  -1.392  0.00  0.00    -0.483 OA
BRANCH  11  12
ATOM     12  C   UNL     1       3.711  -0.707  -0.039  0.00  0.00    +0.264 C 
BRANCH  12  13
ATOM     13  C   UNL     1       2.396   0.029  -0.022  0.00  0.00    -0.010 A 
ATOM     14  C   UNL     1       1.208  -0.679  -0.014  0.00  0.00    +0.007 A 
ATOM     15  C   UNL     1       0.002  -0.004   0.002  0.00  0.00    +0.000 A 
ATOM     16  C   UNL     1      -0.017   1.378   0.010  0.00  0.00    +0.000 A 
ATOM     17  C   UNL     1       1.171   2.086   0.002  0.00  0.00    +0.000 A 
ATOM     18  C   UNL     1       2.377   1.411  -0.014  0.00  0.00    +0.007 A 
ENDBRANCH  12  13
ENDBRANCH  11  12
ENDBRANCH   6  11
BRANCH   3  19
ATOM     19  C   UNL     1       8.981  -3.659  -2.196  0.00  0.00    +0.157 C 
BRANCH  19  20
ATOM     20  N   UNL     1       9.231  -3.801  -3.636  0.00  0.00    -0.260 N 
ATOM     21  H   UNL     1       8.460  -4.264  -4.093  0.00  0.00    +0.168 HD
BRANCH  20  22
ATOM     22  N   UNL     1      10.405  -4.461  -3.867  0.00  0.00    -0.129 N 
ATOM     23  C   UNL     1      10.953  -4.769  -5.065  0.00  0.00    +0.251 A 
ATOM     24  N   UNL     1      12.079  -5.402  -4.824  0.00  0.00    -0.091 NA
ATOM     25  N   UNL     1      12.273  -5.511  -3.559  0.00  0.00    -0.020 NA
ATOM     26  N   UNL     1      11.306  -4.959  -2.909  0.00  0.00    -0.024 NA
ATOM     27  N   UNL     1      10.425  -4.474  -6.310  0.00  0.00    -0.325 N 
ATOM     28  H   UNL     1       9.582  -4.000  -6.379  0.00  0.00    +0.145 HD
ATOM     29  H   UNL     1      10.900  -4.740  -7.113  0.00  0.00    +0.145 HD
ENDBRANCH  20  22
ENDBRANCH  19  20
ENDBRANCH   3  19
TORSDOF 8
