REMARK  Name = ZINC40839128
REMARK  8 active torsions:
REMARK  status: ('A' for Active; 'I' for Inactive)
REMARK    1  A    between atoms: C_1  and  C_2
REMARK    2  A    between atoms: C_5  and  N_9
REMARK    3  A    between atoms: C_6  and  C_8
REMARK    4  A    between atoms: C_10  and  C_12
REMARK    5  A    between atoms: C_12  and  S_13
REMARK    6  A    between atoms: S_13  and  C_14
REMARK    7  A    between atoms: C_14  and  C_16
REMARK    8  A    between atoms: C_14  and  C_17
REMARK                            x       y       z     vdW  Elec       q    Type
REMARK                         _______ _______ _______ _____ _____    ______ ____
ROOT
ATOM      1  S   UNL     1      -0.255  -6.941  -2.895  0.00  0.00    -0.141 S 
ENDROOT
BRANCH   1   2
ATOM      2  C   UNL     1      -0.359  -8.743  -2.723  0.00  0.00    +0.110 C 
ATOM      3  C   UNL     1       0.949  -9.275  -2.132  0.00  0.00    +0.027 C 
BRANCH   2   4
ATOM      4  C   UNL     1      -0.588  -9.365  -4.076  0.00  0.00    +0.123 A 
ATOM      5  N   UNL     1      -0.175  -8.684  -5.177  0.00  0.00    -0.309 N 
ATOM      6  H   UNL     1       0.256  -7.821  -5.074  0.00  0.00    +0.170 HD
ATOM      7  C   UNL     1      -0.357  -9.200  -6.415  0.00  0.00    +0.259 A 
ATOM      8  O   UNL     1       0.009  -8.601  -7.409  0.00  0.00    -0.267 OA
ATOM      9  C   UNL     1      -1.015 -10.511  -6.512  0.00  0.00    +0.065 A 
ATOM     10  C   UNL     1      -1.250 -11.129  -7.739  0.00  0.00    +0.015 A 
ATOM     11  C   UNL     1      -1.871 -12.358  -7.771  0.00  0.00    +0.001 A 
ATOM     12  C   UNL     1      -2.262 -12.984  -6.595  0.00  0.00    +0.002 A 
ATOM     13  C   UNL     1      -2.039 -12.391  -5.373  0.00  0.00    +0.028 A 
ATOM     14  C   UNL     1      -1.411 -11.145  -5.313  0.00  0.00    +0.078 A 
ATOM     15  N   UNL     1      -1.167 -10.527  -4.131  0.00  0.00    -0.233 NA
ENDBRANCH   2   4
ENDBRANCH   1   2
BRANCH   1  16
ATOM     16  C   UNL     1      -0.134  -6.343  -1.187  0.00  0.00    +0.165 C 
BRANCH  16  18
ATOM     17  N   UNL     1       0.059  -4.170  -0.021  0.00  0.00    -0.285 N 
ATOM     18  C   UNL     1      -0.040  -4.839  -1.187  0.00  0.00    +0.227 C 
ATOM     19  O   UNL     1      -0.054  -4.230  -2.236  0.00  0.00    -0.275 OA
ATOM     20  H   UNL     1       0.135  -4.658   0.814  0.00  0.00    +0.155 HD
BRANCH  17  25
ATOM     21  C   UNL     1       0.025   1.503   0.005  0.00  0.00    +0.044 C 
ATOM     22  C   UNL     1       0.034  -0.004  -0.002  0.00  0.00    -0.050 A 
ATOM     23  C   UNL     1       0.632  -0.685  -1.046  0.00  0.00    +0.005 A 
ATOM     24  C   UNL     1       0.641  -2.066  -1.055  0.00  0.00    +0.024 A 
ATOM     25  C   UNL     1       0.051  -2.771  -0.014  0.00  0.00    +0.036 A 
ATOM     26  C   UNL     1      -0.548  -2.083   1.033  0.00  0.00    -0.029 A 
ATOM     27  C   UNL     1      -0.550  -0.702   1.039  0.00  0.00    +0.008 A 
ATOM     28  C   UNL     1      -1.190  -2.843   2.165  0.00  0.00    +0.045 C 
ENDBRANCH  17  25
ENDBRANCH  16  18
ENDBRANCH   1  16
TORSDOF 5
