REMARK  Name = ZINC32912631
REMARK  11 active torsions:
REMARK  status: ('A' for Active; 'I' for Inactive)
REMARK    1  A    between atoms: C_1  and  N_2
REMARK    2  A    between atoms: N_2  and  C_3
REMARK    3  A    between atoms: N_2  and  C_4
REMARK    4  A    between atoms: C_4  and  C_5
REMARK    5  A    between atoms: C_5  and  C_7
REMARK    6  A    between atoms: C_5  and  C_21
REMARK    7  A    between atoms: C_7  and  N_8
REMARK    8  A    between atoms: N_11  and  C_12
REMARK    9  A    between atoms: C_16  and  N_18
REMARK   10  A    between atoms: C_21  and  C_23
REMARK   11  A    between atoms: C_21  and  O_29
REMARK                            x       y       z     vdW  Elec       q    Type
REMARK                         _______ _______ _______ _____ _____    ______ ____
ROOT
ATOM      1  C   UNL     1      -8.506   1.870   0.369  0.00  0.00    +0.110 C 
ENDROOT
BRANCH   1   2
ATOM      2  N   UNL     1      -7.232   1.157   0.248  0.00  0.00    -0.299 N 
ATOM      3  C   UNL     1      -6.080   1.849   0.144  0.00  0.00    +0.304 C 
ATOM      4  O   UNL     1      -6.098   3.065   0.151  0.00  0.00    -0.253 OA
ATOM      5  N   UNL     1      -4.907   1.193   0.033  0.00  0.00    -0.269 N 
ATOM      6  H   UNL     1      -7.215   0.057   0.241  0.00  0.00    +0.150 HD
ATOM      7  H   UNL     1      -4.897   0.098  -0.062  0.00  0.00    +0.156 HD
BRANCH   5   8
ATOM      8  C   UNL     1      -3.704   1.907   0.037  0.00  0.00    +0.037 A 
ATOM      9  C   UNL     1      -2.626   1.458  -0.715  0.00  0.00    +0.023 A 
ATOM     10  C   UNL     1      -1.439   2.164  -0.709  0.00  0.00    +0.004 A 
ATOM     11  C   UNL     1      -1.325   3.321   0.041  0.00  0.00    +0.033 A 
ATOM     12  C   UNL     1      -2.394   3.768   0.795  0.00  0.00    +0.128 A 
ATOM     13  C   UNL     1      -3.584   3.065   0.793  0.00  0.00    +0.056 A 
BRANCH  12  14
ATOM     14  N   UNL     1      -2.267   5.003   1.600  0.00  0.00    +0.056 N 
ATOM     15  O   UNL     1      -3.210   5.400   2.260  0.00  0.00    -0.126 OA
ATOM     16  O   UNL     1      -1.216   5.620   1.606  0.00  0.00    -0.126 OA
ENDBRANCH  12  14
ENDBRANCH   5   8
ENDBRANCH   1   2
BRANCH   1  17
ATOM     17  C   UNL     1      -9.649   0.858   0.470  0.00  0.00    +0.023 C 
BRANCH  17  18
ATOM     18  C   UNL     1      -9.749   0.069  -0.837  0.00  0.00    -0.072 C 
BRANCH  18  20
ATOM     19  C   UNL     1      -8.432  -1.777   0.013  0.00  0.00    -0.097 C 
ATOM     20  N   UNL     1      -8.533  -0.735  -1.018  0.00  0.00    +0.376 N 
ATOM     21  C   UNL     1      -8.484  -1.320  -2.365  0.00  0.00    -0.097 C 
ATOM     22  H   UNL     1      -7.666  -0.067  -0.908  0.00  0.00    -0.083 HD
ENDBRANCH  18  20
ENDBRANCH  17  18
BRANCH  17  23
ATOM     23  C   UNL     1     -10.964   1.598   0.721  0.00  0.00    +0.147 C 
BRANCH  23  24
ATOM     24  C   UNL     1     -12.090   0.601   0.821  0.00  0.00    -0.019 A 
ATOM     25  C   UNL     1     -12.357  -0.021   2.026  0.00  0.00    +0.006 A 
ATOM     26  C   UNL     1     -13.393  -0.933   2.119  0.00  0.00    +0.000 A 
ATOM     27  C   UNL     1     -14.155  -1.228   1.005  0.00  0.00    +0.000 A 
ATOM     28  C   UNL     1     -13.884  -0.610  -0.202  0.00  0.00    +0.000 A 
ATOM     29  C   UNL     1     -12.852   0.304  -0.293  0.00  0.00    +0.006 A 
ENDBRANCH  23  24
BRANCH  23  30
ATOM     30  O   UNL     1     -10.871   2.335   1.942  0.00  0.00    -0.387 OA
ATOM     31  H   UNL     1     -11.726   2.933   2.290  0.00  0.00    +0.210 HD
ENDBRANCH  23  30
ENDBRANCH  17  23
ENDBRANCH   1  17
TORSDOF 9
