REMARK  Name = ZINC39770381
REMARK  4 active torsions:
REMARK  status: ('A' for Active; 'I' for Inactive)
REMARK    1  A    between atoms: C_3  and  C_6
REMARK    2  A    between atoms: N_7  and  N_8
REMARK    3  A    between atoms: C_9  and  C_11
REMARK    4  A    between atoms: C_14  and  C_17
REMARK                            x       y       z     vdW  Elec       q    Type
REMARK                         _______ _______ _______ _____ _____    ______ ____
ROOT
ATOM      1  C   UNL     1       8.490   1.047  -0.073  0.00  0.00    +0.240 C 
ATOM      2  C   UNL     1       8.948   1.394   1.332  0.00  0.00    +0.036 C 
ATOM      3  C   UNL     1       9.972   0.566   1.550  0.00  0.00    +0.068 C 
ATOM      4  N   UNL     1      10.188  -0.224   0.475  0.00  0.00    -0.158 NA
ATOM      5  N   UNL     1       9.416  -0.027  -0.472  0.00  0.00    -0.170 NA
ENDROOT
BRANCH   3   6
ATOM      6  C   UNL     1      10.777   0.518   2.823  0.00  0.00    +0.015 C 
ATOM      7  C   UNL     1      12.243   0.824   2.510  0.00  0.00    +0.016 C 
ATOM      8  C   UNL     1      13.061   0.776   3.802  0.00  0.00    -0.010 C 
ATOM      9  C   UNL     1      12.953  -0.618   4.423  0.00  0.00    +0.007 C 
ATOM     10  C   UNL     1      11.487  -0.925   4.735  0.00  0.00    -0.010 C 
ATOM     11  C   UNL     1      10.669  -0.876   3.443  0.00  0.00    +0.016 C 
ATOM     12  C   UNL     1      10.947   0.115   5.720  0.00  0.00    +0.007 C 
ATOM     13  C   UNL     1      11.056   1.509   5.099  0.00  0.00    -0.010 C 
ATOM     14  C   UNL     1      12.522   1.816   4.787  0.00  0.00    +0.007 C 
ATOM     15  C   UNL     1      10.238   1.558   3.807  0.00  0.00    +0.016 C 
ENDBRANCH   3   6
BRANCH   1  17
ATOM     16  N   UNL     1       6.045   1.424  -0.048  0.00  0.00    -0.205 N 
ATOM     17  C   UNL     1       7.068   0.547  -0.062  0.00  0.00    +0.262 C 
ATOM     18  O   UNL     1       6.844  -0.646  -0.067  0.00  0.00    -0.271 OA
ATOM     19  H   UNL     1       6.224   2.378  -0.045  0.00  0.00    +0.177 HD
BRANCH  16  21
ATOM     20  C   UNL     1       3.737   1.806  -0.024  0.00  0.00    +0.145 C 
ATOM     21  N   UNL     1       4.724   0.960  -0.038  0.00  0.00    -0.187 NA
BRANCH  20  24
ATOM     22  C   UNL     1      -0.016   1.354   0.009  0.00  0.00    +0.008 A 
ATOM     23  C   UNL     1       1.174   2.044   0.002  0.00  0.00    +0.017 A 
ATOM     24  C   UNL     1       2.353   1.320  -0.013  0.00  0.00    +0.032 A 
ATOM     25  S   UNL     1       1.751  -0.361  -0.017  0.00  0.00    -0.096 S 
ATOM     26  C   UNL     1       0.002  -0.004   0.002  0.00  0.00    +0.046 A 
ENDBRANCH  20  24
ENDBRANCH  16  21
ENDBRANCH   1  17
TORSDOF 4
