REMARK  Name = ZINC25143090
REMARK  13 active torsions:
REMARK  status: ('A' for Active; 'I' for Inactive)
REMARK    1  A    between atoms: C_1  and  C_2
REMARK    2  A    between atoms: N_5  and  C_11
REMARK    3  A    between atoms: C_7  and  C_10
REMARK    4  A    between atoms: C_11  and  C_12
REMARK    5  A    between atoms: C_14  and  C_23
REMARK    6  A    between atoms: C_15  and  O_22
REMARK    7  A    between atoms: C_16  and  C_18
REMARK    8  A    between atoms: C_18  and  C_19
REMARK    9  A    between atoms: C_18  and  C_20
REMARK   10  A    between atoms: C_18  and  C_21
REMARK   11  A    between atoms: C_23  and  C_24
REMARK   12  A    between atoms: C_23  and  C_25
REMARK   13  A    between atoms: C_23  and  C_26
REMARK                            x       y       z     vdW  Elec       q    Type
REMARK                         _______ _______ _______ _____ _____    ______ ____
ROOT
ATOM      1  C   UNL     1       3.735   2.692  -0.019  0.00  0.00    -0.033 A 
ATOM      2  C   UNL     1       3.096   2.409  -1.213  0.00  0.00    +0.012 A 
ATOM      3  C   UNL     1       1.842   1.830  -1.207  0.00  0.00    +0.000 A 
ATOM      4  C   UNL     1       1.223   1.532  -0.001  0.00  0.00    +0.124 A 
ATOM      5  C   UNL     1       1.863   1.822   1.195  0.00  0.00    +0.000 A 
ATOM      6  C   UNL     1       3.119   2.396   1.183  0.00  0.00    +0.012 A 
ENDROOT
BRANCH   5   7
ATOM      7  C   UNL     1       1.190   1.506   2.506  0.00  0.00    -0.009 C 
ATOM      8  C   UNL     1       2.103   1.922   3.661  0.00  0.00    +0.015 C 
ATOM      9  C   UNL     1      -0.131   2.272   2.599  0.00  0.00    +0.015 C 
ATOM     10  C   UNL     1       0.916   0.003   2.589  0.00  0.00    +0.015 C 
ENDBRANCH   5   7
BRANCH   3  11
ATOM     11  C   UNL     1       1.147   1.522  -2.508  0.00  0.00    -0.009 C 
ATOM     12  C   UNL     1       2.041   1.945  -3.676  0.00  0.00    +0.015 C 
ATOM     13  C   UNL     1       0.872   0.019  -2.595  0.00  0.00    +0.015 C 
ATOM     14  C   UNL     1      -0.175   2.287  -2.574  0.00  0.00    +0.015 C 
ENDBRANCH   3  11
BRANCH   4  15
ATOM     15  O   UNL     1      -0.011   0.963   0.007  0.00  0.00    -0.506 OA
ATOM     16  H   UNL     1      -0.501   0.727   0.963  0.00  0.00    +0.292 HD
ENDBRANCH   4  15
BRANCH   1  17
ATOM     17  C   UNL     1       5.103   3.323  -0.029  0.00  0.00    +0.119 C 
BRANCH  17  21
ATOM     18  C   UNL     1       7.429   7.637   0.430  0.00  0.00    +0.039 C 
ATOM     19  C   UNL     1       6.070   6.952   0.271  0.00  0.00    +0.130 C 
ATOM     20  C   UNL     1       6.266   5.434   0.210  0.00  0.00    +0.116 C 
ATOM     21  N   UNL     1       4.967   4.786  -0.020  0.00  0.00    -0.293 NA
ATOM     22  C   UNL     1       4.358   5.267  -1.269  0.00  0.00    +0.116 C 
ATOM     23  C   UNL     1       4.181   6.785  -1.192  0.00  0.00    +0.130 C 
ATOM     24  O   UNL     1       5.449   7.396  -0.938  0.00  0.00    -0.371 OA
ATOM     25  C   UNL     1       3.211   7.130  -0.060  0.00  0.00    +0.039 C 
ENDBRANCH  17  21
ENDBRANCH   1  17
TORSDOF 5
