REMARK  Name = ZINC46987047
REMARK  7 active torsions:
REMARK  status: ('A' for Active; 'I' for Inactive)
REMARK    1  A    between atoms: C_1  and  C_2
REMARK    2  A    between atoms: C_2  and  C_3
REMARK    3  A    between atoms: C_2  and  C_4
REMARK    4  A    between atoms: C_2  and  N_18
REMARK    5  A    between atoms: C_4  and  N_5
REMARK    6  A    between atoms: N_8  and  N_9
REMARK    7  A    between atoms: C_10  and  C_12
REMARK                            x       y       z     vdW  Elec       q    Type
REMARK                         _______ _______ _______ _____ _____    ______ ____
ROOT
ATOM      1  N   UNL     1      -1.928  -1.502   0.115  0.00  0.00    -0.300 N 
ATOM      2  C   UNL     1      -3.235  -1.826   0.182  0.00  0.00    +0.316 C 
ATOM      3  O   UNL     1      -4.077  -0.950   0.213  0.00  0.00    -0.251 OA
ATOM      4  N   UNL     1      -3.607  -3.121   0.216  0.00  0.00    -0.218 N 
ATOM      5  H   UNL     1      -1.256  -2.201   0.090  0.00  0.00    +0.150 HD
ATOM      6  H   UNL     1      -4.547  -3.354   0.265  0.00  0.00    +0.174 HD
ENDROOT
BRANCH   4   7
ATOM      7  N   UNL     1      -2.636  -4.130   0.180  0.00  0.00    -0.229 N 
ATOM      8  C   UNL     1      -3.008  -5.425   0.214  0.00  0.00    +0.260 C 
ATOM      9  O   UNL     1      -4.186  -5.717   0.275  0.00  0.00    -0.269 OA
ATOM     10  H   UNL     1      -1.695  -3.897   0.131  0.00  0.00    +0.173 HD
BRANCH   8  11
ATOM     11  C   UNL     1      -1.983  -6.490   0.176  0.00  0.00    +0.038 A 
ATOM     12  C   UNL     1      -0.629  -6.158   0.112  0.00  0.00    +0.013 A 
ATOM     13  C   UNL     1       0.322  -7.156   0.077  0.00  0.00    +0.001 A 
ATOM     14  C   UNL     1      -0.064  -8.485   0.106  0.00  0.00    +0.000 A 
ATOM     15  C   UNL     1      -1.404  -8.821   0.170  0.00  0.00    +0.001 A 
ATOM     16  C   UNL     1      -2.365  -7.832   0.211  0.00  0.00    +0.013 A 
ENDBRANCH   8  11
ENDBRANCH   4   7
BRANCH   1  17
ATOM     17  C   UNL     1      -1.523  -0.094   0.078  0.00  0.00    +0.093 C 
BRANCH  17  19
ATOM     18  C   UNL     1       0.425   1.466  -0.036  0.00  0.00    -0.008 C 
ATOM     19  C   UNL     1       0.002  -0.004   0.002  0.00  0.00    -0.055 C 
ATOM     20  C   UNL     1       0.615  -0.679   1.231  0.00  0.00    -0.008 C 
BRANCH  19  21
ATOM     21  N   UNL     1       0.473  -0.681  -1.214  0.00  0.00    +0.387 N 
ATOM     22  C   UNL     1       1.927  -0.503  -1.345  0.00  0.00    -0.073 C 
ATOM     23  C   UNL     1       2.439  -1.456  -2.426  0.00  0.00    +0.017 C 
ATOM     24  C   UNL     1       1.615  -1.297  -3.678  0.00  0.00    -0.048 A 
ATOM     25  C   UNL     1       2.113  -1.800  -4.870  0.00  0.00    +0.004 A 
ATOM     26  C   UNL     1       1.385  -1.676  -6.036  0.00  0.00    +0.000 A 
ATOM     27  C   UNL     1       0.153  -1.047  -6.014  0.00  0.00    +0.000 A 
ATOM     28  C   UNL     1      -0.342  -0.545  -4.828  0.00  0.00    +0.002 A 
ATOM     29  C   UNL     1       0.389  -0.667  -3.656  0.00  0.00    -0.061 A 
ATOM     30  C   UNL     1      -0.186  -0.097  -2.386  0.00  0.00    -0.042 C 
ATOM     31  H   UNL     1       0.255  -1.664  -1.159  0.00  0.00    -0.080 HD
ENDBRANCH  19  21
ENDBRANCH  17  19
ENDBRANCH   1  17
TORSDOF 5
