REMARK  Name = ZINC18103985
REMARK  5 active torsions:
REMARK  status: ('A' for Active; 'I' for Inactive)
REMARK    1  A    between atoms: C_1  and  N_2
REMARK    2  A    between atoms: N_10  and  C_11
REMARK    3  A    between atoms: C_11  and  C_13
REMARK    4  A    between atoms: C_16  and  N_22
REMARK    5  A    between atoms: C_17  and  N_19
REMARK                            x       y       z     vdW  Elec       q    Type
REMARK                         _______ _______ _______ _____ _____    ______ ____
ROOT
ATOM      1  C   UNL     1       1.954  -6.216   2.573  0.00  0.00    +0.270 C 
ATOM      2  O   UNL     1       2.802  -5.364   2.783  0.00  0.00    -0.268 OA
ENDROOT
BRANCH   1  12
ATOM      3  C   UNL     1      -0.103   1.342  -0.291  0.00  0.00    +0.105 C 
ATOM      4  N   UNL     1      -0.171  -0.121  -0.172  0.00  0.00    -0.300 NA
ATOM      5  C   UNL     1      -1.526  -0.557   0.195  0.00  0.00    +0.090 C 
ATOM      6  C   UNL     1      -1.676  -2.063  -0.039  0.00  0.00    +0.069 C 
ATOM      7  C   UNL     1      -0.520  -2.770   0.657  0.00  0.00    +0.030 A 
ATOM      8  C   UNL     1       0.573  -2.077   1.014  0.00  0.00    +0.026 A 
ATOM      9  S   UNL     1       1.612  -3.294   1.769  0.00  0.00    -0.056 S 
ATOM     10  C   UNL     1       0.598  -4.625   1.589  0.00  0.00    +0.164 A 
ATOM     11  N   UNL     1      -0.492  -4.103   0.964  0.00  0.00    -0.339 N 
ATOM     12  N   UNL     1       0.811  -5.885   1.966  0.00  0.00    -0.152 NA
ATOM     13  C   UNL     1       0.819  -0.619   0.804  0.00  0.00    +0.128 C 
ATOM     14  H   UNL     1      -1.244  -4.672   0.738  0.00  0.00    +0.167 HD
ENDBRANCH   1  12
BRANCH   1  15
ATOM     15  C   UNL     1       2.191  -7.614   2.992  0.00  0.00    +0.041 A 
ATOM     16  C   UNL     1       1.223  -8.591   2.748  0.00  0.00    +0.015 A 
ATOM     17  C   UNL     1       1.446  -9.892   3.139  0.00  0.00    +0.026 A 
ATOM     18  C   UNL     1       2.634 -10.234   3.777  0.00  0.00    +0.055 A 
ATOM     19  C   UNL     1       3.600  -9.263   4.022  0.00  0.00    +0.147 A 
ATOM     20  C   UNL     1       3.385  -7.961   3.627  0.00  0.00    +0.047 A 
BRANCH  19  21
ATOM     21  N   UNL     1       4.863  -9.630   4.701  0.00  0.00    +0.058 N 
ATOM     22  O   UNL     1       5.371  -8.866   5.488  0.00  0.00    -0.126 OA
ATOM     23  O   UNL     1       5.386 -10.695   4.470  0.00  0.00    -0.126 OA
ENDBRANCH  19  21
BRANCH  18  24
ATOM     24  N   UNL     1       2.857 -11.550   4.172  0.00  0.00    -0.356 N 
ATOM     25  H   UNL     1       2.239 -12.248   3.904  0.00  0.00    +0.142 HD
ATOM     26  H   UNL     1       3.630 -11.769   4.716  0.00  0.00    +0.142 HD
ENDBRANCH  18  24
ENDBRANCH   1  15
TORSDOF 4
