REMARK  Name = ZINC09056582
REMARK  10 active torsions:
REMARK  status: ('A' for Active; 'I' for Inactive)
REMARK    1  A    between atoms: C_1  and  C_2
REMARK    2  A    between atoms: C_2  and  C_3
REMARK    3  A    between atoms: C_3  and  C_4
REMARK    4  A    between atoms: C_4  and  N_5
REMARK    5  A    between atoms: C_6  and  N_37
REMARK    6  A    between atoms: C_7  and  N_14
REMARK    7  A    between atoms: N_14  and  C_15
REMARK    8  A    between atoms: C_15  and  C_16
REMARK    9  A    between atoms: C_22  and  C_24
REMARK   10  A    between atoms: C_24  and  N_25
REMARK                            x       y       z     vdW  Elec       q    Type
REMARK                         _______ _______ _______ _____ _____    ______ ____
ROOT
ATOM      1  N   UNL     1       4.428  -0.857  -1.518  0.00  0.00    -0.259 N 
ATOM      2  C   UNL     1       5.032   0.240  -2.020  0.00  0.00    +0.238 C 
ATOM      3  O   UNL     1       5.154   0.370  -3.220  0.00  0.00    -0.273 OA
ENDROOT
BRANCH   1   6
ATOM      4  N   UNL     1       2.361  -3.231  -3.413  0.00  0.00    -0.280 N 
ATOM      5  C   UNL     1       2.707  -2.203  -2.567  0.00  0.00    +0.127 A 
ATOM      6  C   UNL     1       4.041  -1.905  -2.379  0.00  0.00    +0.140 A 
ATOM      7  C   UNL     1       5.010  -2.663  -3.064  0.00  0.00    +0.277 A 
ATOM      8  O   UNL     1       6.196  -2.418  -2.920  0.00  0.00    -0.266 OA
ATOM      9  N   UNL     1       4.618  -3.663  -3.877  0.00  0.00    -0.273 N 
ATOM     10  H   UNL     1       5.305  -4.207  -4.359  0.00  0.00    +0.173 HD
ATOM     11  C   UNL     1       3.313  -3.939  -4.049  0.00  0.00    +0.331 A 
ATOM     12  O   UNL     1       2.987  -4.844  -4.792  0.00  0.00    -0.246 OA
BRANCH   5  13
ATOM     13  N   UNL     1       1.735  -1.481  -1.917  0.00  0.00    -0.343 N 
ATOM     14  H   UNL     1       1.979  -0.701  -1.394  0.00  0.00    +0.144 HD
ATOM     15  H   UNL     1       0.806  -1.750  -1.982  0.00  0.00    +0.144 HD
ENDBRANCH   5  13
BRANCH   4  16
ATOM     16  C   UNL     1       0.949  -3.558  -3.622  0.00  0.00    +0.128 C 
BRANCH  16  17
ATOM     17  C   UNL     1       0.407  -2.746  -4.800  0.00  0.00    +0.021 C 
BRANCH  17  19
ATOM     18  C   UNL     1      -1.611  -2.276  -6.197  0.00  0.00    +0.004 C 
ATOM     19  C   UNL     1      -1.069  -3.088  -5.019  0.00  0.00    -0.002 C 
ENDBRANCH  17  19
ENDBRANCH  16  17
ENDBRANCH   4  16
ENDBRANCH   1   6
BRANCH   1  20
ATOM     20  C   UNL     1       4.173  -0.959  -0.079  0.00  0.00    +0.149 C 
BRANCH  20  21
ATOM     21  C   UNL     1       5.291  -1.730   0.576  0.00  0.00    -0.030 A 
ATOM     22  C   UNL     1       6.366  -1.056   1.124  0.00  0.00    +0.005 A 
ATOM     23  C   UNL     1       7.391  -1.764   1.724  0.00  0.00    +0.000 A 
ATOM     24  C   UNL     1       7.341  -3.144   1.775  0.00  0.00    +0.000 A 
ATOM     25  C   UNL     1       6.265  -3.817   1.227  0.00  0.00    +0.000 A 
ATOM     26  C   UNL     1       5.240  -3.110   0.627  0.00  0.00    +0.005 A 
ENDBRANCH  20  21
ENDBRANCH   1  20
BRANCH   2  27
ATOM     27  C   UNL     1       5.555   1.305  -1.090  0.00  0.00    +0.214 C 
BRANCH  27  28
ATOM     28  N   UNL     1       6.105   2.412  -1.876  0.00  0.00    -0.215 N 
ATOM     29  C   UNL     1       5.389   3.480  -2.286  0.00  0.00    +0.247 C 
ATOM     30  O   UNL     1       4.214   3.698  -2.082  0.00  0.00    -0.273 OA
ATOM     31  C   UNL     1       6.361   4.348  -3.052  0.00  0.00    +0.113 C 
ATOM     32  C   UNL     1       6.499   5.710  -2.382  0.00  0.00    +0.035 C 
ATOM     33  C   UNL     1       7.508   6.563  -3.156  0.00  0.00    +0.003 C 
ATOM     34  C   UNL     1       7.030   6.731  -4.600  0.00  0.00    +0.000 C 
ATOM     35  C   UNL     1       6.920   5.358  -5.265  0.00  0.00    +0.003 C 
ATOM     36  C   UNL     1       5.909   4.501  -4.500  0.00  0.00    +0.035 C 
ATOM     37  N   UNL     1       7.629   3.609  -2.983  0.00  0.00    -0.285 N 
ATOM     38  C   UNL     1       7.381   2.493  -2.271  0.00  0.00    +0.310 C 
ATOM     39  O   UNL     1       8.222   1.653  -2.017  0.00  0.00    -0.252 OA
ATOM     40  H   UNL     1       8.477   3.874  -3.371  0.00  0.00    +0.151 HD
ENDBRANCH  27  28
ENDBRANCH   2  27
TORSDOF 9
