REMARK  Name = ZINC03475648
REMARK  5 active torsions:
REMARK  status: ('A' for Active; 'I' for Inactive)
REMARK    1  A    between atoms: C_1  and  C_2
REMARK    2  A    between atoms: C_2  and  C_3
REMARK    3  A    between atoms: C_6  and  C_9
REMARK    4  A    between atoms: N_10  and  N_11
REMARK    5  A    between atoms: C_12  and  C_14
REMARK                            x       y       z     vdW  Elec       q    Type
REMARK                         _______ _______ _______ _____ _____    ______ ____
ROOT
ATOM      1  N   UNL     1      -2.228   8.135  -0.228  0.00  0.00    -0.204 N 
ATOM      2  C   UNL     1      -1.209   7.309   0.082  0.00  0.00    +0.276 C 
ATOM      3  O   UNL     1      -0.244   7.734   0.681  0.00  0.00    -0.270 OA
ATOM      4  H   UNL     1      -3.000   7.795  -0.707  0.00  0.00    +0.177 HD
ENDROOT
BRANCH   2   5
ATOM      5  C   UNL     1      -1.270   5.856  -0.315  0.00  0.00    +0.297 C 
ATOM      6  C   UNL     1      -2.417   5.163   0.432  0.00  0.00    +0.283 C 
ATOM      7  O   UNL     1      -2.437   3.785   0.043  0.00  0.00    -0.484 OA
ATOM      8  C   UNL     1      -1.241   3.136   0.031  0.00  0.00    +0.162 A 
ATOM      9  C   UNL     1      -1.219   1.749   0.017  0.00  0.00    +0.049 A 
ATOM     10  C   UNL     1      -0.013   1.076   0.008  0.00  0.00    +0.004 A 
ATOM     11  C   UNL     1       1.176   1.782   0.000  0.00  0.00    +0.004 A 
ATOM     12  C   UNL     1       1.161   3.164   0.009  0.00  0.00    +0.049 A 
ATOM     13  C   UNL     1      -0.046   3.846   0.026  0.00  0.00    +0.163 A 
ATOM     14  O   UNL     1      -0.045   5.207   0.043  0.00  0.00    -0.472 OA
ENDBRANCH   2   5
BRANCH   1  16
ATOM     15  C   UNL     1      -3.152  10.281  -0.158  0.00  0.00    +0.138 C 
ATOM     16  N   UNL     1      -2.172   9.486   0.141  0.00  0.00    -0.188 NA
BRANCH  15  20
ATOM     17  C   UNL     1      -2.983  14.372   0.961  0.00  0.00    -0.048 A 
ATOM     18  C   UNL     1      -4.085  13.890   0.278  0.00  0.00    +0.004 A 
ATOM     19  C   UNL     1      -4.147  12.562  -0.089  0.00  0.00    +0.010 A 
ATOM     20  C   UNL     1      -3.093  11.703   0.231  0.00  0.00    -0.005 A 
ATOM     21  C   UNL     1      -1.986  12.195   0.926  0.00  0.00    +0.010 A 
ATOM     22  C   UNL     1      -1.935  13.527   1.281  0.00  0.00    +0.004 A 
BRANCH  17  24
ATOM     23  C   UNL     1      -3.541  15.999   2.747  0.00  0.00    +0.009 C 
ATOM     24  C   UNL     1      -2.923  15.824   1.359  0.00  0.00    +0.032 C 
ENDBRANCH  17  24
ENDBRANCH  15  20
ENDBRANCH   1  16
TORSDOF 4
