REMARK  Name = ZINC45207291
REMARK  6 active torsions:
REMARK  status: ('A' for Active; 'I' for Inactive)
REMARK    1  A    between atoms: C_4  and  C_7
REMARK    2  A    between atoms: C_7  and  C_8
REMARK    3  A    between atoms: C_7  and  C_19
REMARK    4  A    between atoms: C_7  and  N_21
REMARK    5  A    between atoms: C_8  and  N_9
REMARK    6  A    between atoms: C_13  and  C_14
REMARK                            x       y       z     vdW  Elec       q    Type
REMARK                         _______ _______ _______ _____ _____    ______ ____
ROOT
ATOM      1  C   UNL     1       3.514  -0.953   0.183  0.00  0.00    +0.148 C 
ENDROOT
BRANCH   1   5
ATOM      2  C   UNL     1      -0.258   1.049   0.105  0.00  0.00    +0.000 A 
ATOM      3  C   UNL     1       0.887   1.746   0.441  0.00  0.00    +0.000 A 
ATOM      4  C   UNL     1       2.108   1.098   0.466  0.00  0.00    +0.006 A 
ATOM      5  C   UNL     1       2.183  -0.247   0.156  0.00  0.00    -0.012 A 
ATOM      6  C   UNL     1       1.037  -0.944  -0.179  0.00  0.00    +0.006 A 
ATOM      7  C   UNL     1      -0.183  -0.295  -0.206  0.00  0.00    +0.000 A 
ENDBRANCH   1   5
BRANCH   1   8
ATOM      8  N   UNL     1       4.581  -0.001  -0.152  0.00  0.00    -0.308 NA
ATOM      9  H   UNL     1       5.482  -0.455  -0.160  0.00  0.00    +0.120 HD
ATOM     10  H   UNL     1       4.397   0.453  -1.034  0.00  0.00    +0.120 HD
ENDBRANCH   1   8
BRANCH   1  11
ATOM     11  C   UNL     1       3.751  -1.502   1.528  0.00  0.00    +0.091 C 
ATOM     12  N   UNL     1       3.934  -1.926   2.566  0.00  0.00    -0.194 NA
ENDBRANCH   1  11
BRANCH   1  13
ATOM     13  C   UNL     1       3.508  -2.092  -0.839  0.00  0.00    +0.165 C 
BRANCH  13  14
ATOM     14  N   UNL     1       4.842  -2.692  -0.910  0.00  0.00    -0.327 N 
ATOM     15  C   UNL     1       5.302  -3.751  -0.169  0.00  0.00    +0.107 A 
ATOM     16  C   UNL     1       6.575  -3.976  -0.548  0.00  0.00    +0.131 A 
ATOM     17  N   UNL     1       6.899  -3.087  -1.495  0.00  0.00    -0.235 NA
ATOM     18  C   UNL     1       5.864  -2.307  -1.731  0.00  0.00    +0.147 A 
BRANCH  18  19
ATOM     19  C   UNL     1       5.818  -1.208  -2.708  0.00  0.00    +0.055 A 
ATOM     20  C   UNL     1       6.855  -0.560  -3.331  0.00  0.00    +0.019 A 
ATOM     21  C   UNL     1       6.565   0.451  -4.218  0.00  0.00    +0.008 A 
ATOM     22  C   UNL     1       5.266   0.776  -4.451  0.00  0.00    +0.046 A 
ATOM     23  S   UNL     1       4.397  -0.375  -3.398  0.00  0.00    -0.094 S 
ENDBRANCH  18  19
ENDBRANCH  13  14
ENDBRANCH   1  13
TORSDOF 6
