REMARK  Name = ZINC01823913
REMARK  6 active torsions:
REMARK  status: ('A' for Active; 'I' for Inactive)
REMARK    1  A    between atoms: C_3  and  N_33
REMARK    2  A    between atoms: C_6  and  C_7
REMARK    3  A    between atoms: C_8  and  C_18
REMARK    4  A    between atoms: N_20  and  N_21
REMARK    5  A    between atoms: C_22  and  C_23
REMARK    6  A    between atoms: C_27  and  N_29
REMARK                            x       y       z     vdW  Elec       q    Type
REMARK                         _______ _______ _______ _____ _____    ______ ____
ROOT
ATOM      1  C   UNL     1      -0.498   5.403   0.052  0.00  0.00    +0.109 A 
ATOM      2  C   UNL     1       0.791   5.923   0.056  0.00  0.00    +0.177 A 
ATOM      3  N   UNL     1       1.656   4.895   0.045  0.00  0.00    -0.124 NA
ATOM      4  N   UNL     1       1.015   3.779   0.040  0.00  0.00    -0.058 NA
ATOM      5  N   UNL     1      -0.361   4.044   0.039  0.00  0.00    -0.187 N 
ATOM      6  C   UNL     1      -1.393   3.101   0.031  0.00  0.00    +0.241 A 
ATOM      7  C   UNL     1      -1.224   1.645   0.017  0.00  0.00    +0.206 A 
ATOM      8  N   UNL     1      -2.407   1.094   0.020  0.00  0.00    -0.032 NA
ATOM      9  O   UNL     1      -3.369   2.134   0.030  0.00  0.00    -0.239 OA
ATOM     10  N   UNL     1      -2.669   3.366   0.033  0.00  0.00    -0.027 NA
ATOM     11  N   UNL     1      -0.011   0.966   0.007  0.00  0.00    -0.337 N 
ATOM     12  H   UNL     1       0.002  -0.004   0.002  0.00  0.00    +0.144 HD
ATOM     13  H   UNL     1       0.822   1.462   0.002  0.00  0.00    +0.144 HD
ENDROOT
BRANCH   1  19
ATOM     14  C   UNL     1      -2.804   5.811  -0.798  0.00  0.00    +0.012 A 
ATOM     15  C   UNL     1      -3.983   6.526  -0.780  0.00  0.00    +0.033 A 
ATOM     16  C   UNL     1      -4.132   7.600   0.080  0.00  0.00    +0.126 A 
ATOM     17  C   UNL     1      -3.103   7.962   0.931  0.00  0.00    +0.033 A 
ATOM     18  C   UNL     1      -1.919   7.253   0.927  0.00  0.00    +0.012 A 
ATOM     19  C   UNL     1      -1.762   6.167   0.062  0.00  0.00    +0.003 A 
BRANCH  16  20
ATOM     20  N   UNL     1      -5.399   8.367   0.089  0.00  0.00    +0.056 N 
ATOM     21  O   UNL     1      -5.532   9.313   0.844  0.00  0.00    -0.126 OA
ATOM     22  O   UNL     1      -6.307   8.051  -0.659  0.00  0.00    -0.126 OA
ENDBRANCH  16  20
ENDBRANCH   1  19
BRANCH   2  23
ATOM     23  C   UNL     1       1.148   7.351   0.070  0.00  0.00    +0.286 C 
ATOM     24  O   UNL     1       0.273   8.196   0.078  0.00  0.00    -0.267 OA
ATOM     25  N   UNL     1       2.443   7.722   0.072  0.00  0.00    -0.202 N 
ATOM     26  H   UNL     1       3.141   7.048   0.065  0.00  0.00    +0.178 HD
BRANCH  25  27
ATOM     27  N   UNL     1       2.783   9.081   0.085  0.00  0.00    -0.187 NA
ATOM     28  C   UNL     1       4.030   9.439   0.087  0.00  0.00    +0.138 C 
BRANCH  28  29
ATOM     29  C   UNL     1       4.387  10.869   0.100  0.00  0.00    -0.003 A 
ATOM     30  C   UNL     1       3.385  11.843   0.105  0.00  0.00    +0.011 A 
ATOM     31  C   UNL     1       3.725  13.178   0.123  0.00  0.00    +0.023 A 
ATOM     32  C   UNL     1       5.058  13.557   0.125  0.00  0.00    +0.071 A 
ATOM     33  C   UNL     1       6.056  12.597   0.115  0.00  0.00    +0.145 A 
ATOM     34  C   UNL     1       5.729  11.257   0.103  0.00  0.00    +0.043 A 
ATOM     35 CL   UNL     1       5.478  15.241   0.141  0.00  0.00    -0.081 Cl
BRANCH  33  36
ATOM     36  N   UNL     1       7.478  13.010   0.118  0.00  0.00    +0.058 N 
ATOM     37  O   UNL     1       8.357  12.167   0.110  0.00  0.00    -0.126 OA
ATOM     38  O   UNL     1       7.768  14.193   0.129  0.00  0.00    -0.126 OA
ENDBRANCH  33  36
ENDBRANCH  28  29
ENDBRANCH  25  27
ENDBRANCH   2  23
TORSDOF 6
