REMARK  Name = ZINC06283210
REMARK  10 active torsions:
REMARK  status: ('A' for Active; 'I' for Inactive)
REMARK    1  A    between atoms: C_1  and  C_2
REMARK    2  A    between atoms: C_2  and  C_4
REMARK    3  A    between atoms: C_2  and  N_10
REMARK    4  A    between atoms: N_10  and  C_11
REMARK    5  A    between atoms: C_11  and  N_13
REMARK    6  A    between atoms: N_13  and  C_14
REMARK    7  A    between atoms: N_13  and  C_21
REMARK    8  A    between atoms: C_14  and  C_15
REMARK    9  A    between atoms: C_15  and  N_68
REMARK   10  A    between atoms: C_21  and  C_22
REMARK                            x       y       z     vdW  Elec       q    Type
REMARK                         _______ _______ _______ _____ _____    ______ ____
ROOT
ATOM      1  N   UNL     1       0.955  -2.111   0.617  0.00  0.00    -0.310 N 
ENDROOT
BRANCH   1   2
ATOM      2  C   UNL     1       0.839  -0.768   0.597  0.00  0.00    +0.134 C 
ATOM      3  S   UNL     1       1.966   0.201   1.447  0.00  0.00    -0.019 S 
BRANCH   2   4
ATOM      4  N   UNL     1      -0.164  -0.188  -0.092  0.00  0.00    -0.320 N 
ATOM      5  H   UNL     1      -0.802  -0.737  -0.573  0.00  0.00    +0.148 HD
BRANCH   4   7
ATOM      6  C   UNL     1      -1.066   1.734   1.121  0.00  0.00    +0.033 C 
ATOM      7  C   UNL     1      -0.290   1.271  -0.113  0.00  0.00    +0.099 C 
BRANCH   7   8
ATOM      8  C   UNL     1      -1.027   1.694  -1.358  0.00  0.00    -0.028 A 
ATOM      9  C   UNL     1      -2.104   0.954  -1.808  0.00  0.00    +0.005 A 
ATOM     10  C   UNL     1      -2.783   1.344  -2.947  0.00  0.00    +0.000 A 
ATOM     11  C   UNL     1      -2.378   2.468  -3.642  0.00  0.00    +0.000 A 
ATOM     12  C   UNL     1      -1.298   3.205  -3.195  0.00  0.00    +0.000 A 
ATOM     13  C   UNL     1      -0.622   2.817  -2.053  0.00  0.00    +0.005 A 
ENDBRANCH   7   8
ENDBRANCH   4   7
ENDBRANCH   2   4
ENDBRANCH   1   2
BRANCH   1  14
ATOM     14  C   UNL     1      -0.070  -2.944  -0.016  0.00  0.00    +0.088 C 
BRANCH  14  15
ATOM     15  C   UNL     1       0.303  -3.189  -1.479  0.00  0.00    -0.059 C 
BRANCH  15  21
ATOM     16  C   UNL     1      -0.740  -5.375  -1.532  0.00  0.00    -0.050 C 
ATOM     17  C   UNL     1      -1.862  -6.191  -2.179  0.00  0.00    +0.141 C 
ATOM     18  O   UNL     1      -1.672  -6.213  -3.596  0.00  0.00    -0.383 OA
ATOM     19  C   UNL     1      -1.654  -4.915  -4.196  0.00  0.00    +0.141 C 
ATOM     20  C   UNL     1      -0.529  -4.086  -3.570  0.00  0.00    -0.050 C 
ATOM     21  N   UNL     1      -0.750  -4.014  -2.110  0.00  0.00    +0.384 N 
ATOM     22  H   UNL     1      -1.664  -3.582  -1.931  0.00  0.00    -0.082 HD
ENDBRANCH  15  21
ENDBRANCH  14  15
ENDBRANCH   1  14
BRANCH   1  23
ATOM     23  C   UNL     1       2.107  -2.737   1.271  0.00  0.00    +0.147 C 
BRANCH  23  24
ATOM     24  C   UNL     1       1.740  -3.108   2.685  0.00  0.00    +0.035 A 
ATOM     25  C   UNL     1       2.022  -2.255   3.703  0.00  0.00    +0.020 A 
ATOM     26  C   UNL     1       1.649  -2.642   5.063  0.00  0.00    +0.003 A 
ATOM     27  C   UNL     1       1.912  -1.800   6.151  0.00  0.00    +0.059 A 
ATOM     28  C   UNL     1       1.553  -2.194   7.423  0.00  0.00    +0.163 A 
ATOM     29  C   UNL     1       0.929  -3.428   7.628  0.00  0.00    +0.164 A 
ATOM     30  C   UNL     1       0.667  -4.266   6.559  0.00  0.00    +0.075 A 
ATOM     31  C   UNL     1       1.023  -3.885   5.271  0.00  0.00    +0.053 A 
ATOM     32  N   UNL     1       0.769  -4.710   4.194  0.00  0.00    -0.322 N 
ATOM     33  H   UNL     1       0.338  -5.566   4.338  0.00  0.00    +0.169 HD
ATOM     34  C   UNL     1       1.111  -4.342   2.947  0.00  0.00    +0.254 A 
ATOM     35  O   UNL     1       0.872  -5.096   2.018  0.00  0.00    -0.268 OA
ATOM     36  O   UNL     1       0.569  -3.822   8.880  0.00  0.00    -0.485 OA
ATOM     37  C   UNL     1       1.179  -3.130   9.974  0.00  0.00    +0.270 C 
ATOM     38  C   UNL     1       1.111  -1.623   9.689  0.00  0.00    +0.270 C 
ATOM     39  O   UNL     1       1.817  -1.365   8.471  0.00  0.00    -0.485 OA
ENDBRANCH  23  24
ENDBRANCH   1  23
TORSDOF 9
