REMARK  Name = ZINC13946306
REMARK  8 active torsions:
REMARK  status: ('A' for Active; 'I' for Inactive)
REMARK    1  A    between atoms: C_4  and  O_7
REMARK    2  A    between atoms: O_7  and  C_8
REMARK    3  A    between atoms: C_8  and  C_9
REMARK    4  A    between atoms: N_11  and  C_12
REMARK    5  A    between atoms: C_12  and  N_14
REMARK    6  A    between atoms: N_14  and  C_15
REMARK    7  A    between atoms: C_18  and  N_21
REMARK    8  A    between atoms: C_22  and  C_24
REMARK                            x       y       z     vdW  Elec       q    Type
REMARK                         _______ _______ _______ _____ _____    ______ ____
ROOT
ATOM      1  C   UNL     1      -1.254   1.550  -0.163  0.00  0.00    +0.033 A 
ATOM      2  C   UNL     1      -1.336   2.937  -0.179  0.00  0.00    +0.025 A 
ATOM      3  C   UNL     1      -2.570   3.556  -0.160  0.00  0.00    +0.025 A 
ATOM      4  C   UNL     1      -3.729   2.792  -0.113  0.00  0.00    +0.034 A 
ATOM      5  C   UNL     1      -3.647   1.406  -0.091  0.00  0.00    +0.025 A 
ATOM      6  C   UNL     1      -2.414   0.787  -0.115  0.00  0.00    +0.025 A 
ENDROOT
BRANCH   4   7
ATOM      7  N   UNL     1      -4.980   3.420  -0.088  0.00  0.00    -0.279 N 
ATOM      8  C   UNL     1      -5.985   2.893   0.638  0.00  0.00    +0.284 C 
ATOM      9  O   UNL     1      -5.821   1.843   1.231  0.00  0.00    -0.266 OA
ATOM     10  H   UNL     1      -5.124   4.235  -0.595  0.00  0.00    +0.155 HD
BRANCH   8  11
ATOM     11  C   UNL     1      -7.279   3.585   0.715  0.00  0.00    +0.191 A 
ATOM     12  C   UNL     1      -8.359   3.149   1.413  0.00  0.00    +0.063 A 
ATOM     13  C   UNL     1      -9.407   4.146   1.203  0.00  0.00    +0.021 A 
ATOM     14  C   UNL     1     -10.727   4.278   1.641  0.00  0.00    +0.011 A 
ATOM     15  C   UNL     1     -11.464   5.362   1.253  0.00  0.00    +0.001 A 
ATOM     16  C   UNL     1     -10.909   6.331   0.428  0.00  0.00    +0.004 A 
ATOM     17  C   UNL     1      -9.609   6.219  -0.015  0.00  0.00    +0.047 A 
ATOM     18  C   UNL     1      -8.840   5.125   0.366  0.00  0.00    +0.136 A 
ATOM     19  O   UNL     1      -7.572   4.753   0.106  0.00  0.00    -0.450 OA
ENDBRANCH   8  11
ENDBRANCH   4   7
BRANCH   1  20
ATOM     20  N   UNL     1      -0.003   0.922  -0.188  0.00  0.00    -0.297 N 
ATOM     21  H   UNL     1       0.718   1.256   0.369  0.00  0.00    +0.154 HD
BRANCH  20  22
ATOM     22  C   UNL     1       0.198  -0.148  -0.981  0.00  0.00    +0.141 C 
ATOM     23  S   UNL     1      -1.101  -0.795  -1.891  0.00  0.00    -0.018 S 
BRANCH  22  26
ATOM     24  C   UNL     1       1.621  -1.781  -1.852  0.00  0.00    +0.256 C 
ATOM     25  O   UNL     1       0.702  -2.239  -2.497  0.00  0.00    -0.272 OA
ATOM     26  N   UNL     1       1.420  -0.710  -1.059  0.00  0.00    -0.265 N 
ATOM     27  H   UNL     1       2.156  -0.344  -0.543  0.00  0.00    +0.157 HD
BRANCH  24  28
ATOM     28  C   UNL     1       2.988  -2.409  -1.939  0.00  0.00    +0.324 C 
BRANCH  28  29
ATOM     29  O   UNL     1       2.946  -3.519  -2.837  0.00  0.00    -0.483 OA
BRANCH  29  33
ATOM     30  C   UNL     1       6.466  -5.590  -3.421  0.00  0.00    +0.000 A 
ATOM     31  C   UNL     1       5.317  -5.982  -4.083  0.00  0.00    +0.004 A 
ATOM     32  C   UNL     1       4.137  -5.290  -3.889  0.00  0.00    +0.045 A 
ATOM     33  C   UNL     1       4.106  -4.202  -3.030  0.00  0.00    +0.121 A 
ATOM     34  C   UNL     1       5.261  -3.807  -2.372  0.00  0.00    +0.045 A 
ATOM     35  C   UNL     1       6.438  -4.505  -2.565  0.00  0.00    +0.004 A 
ENDBRANCH  29  33
ENDBRANCH  28  29
ENDBRANCH  24  28
ENDBRANCH  22  26
ENDBRANCH  20  22
ENDBRANCH   1  20
TORSDOF 8
