REMARK  Name = ZINC02780883
REMARK  5 active torsions:
REMARK  status: ('A' for Active; 'I' for Inactive)
REMARK    1  A    between atoms: C_1  and  C_2
REMARK    2  A    between atoms: C_9  and  N_14
REMARK    3  A    between atoms: C_10  and  C_11
REMARK    4  A    between atoms: C_15  and  C_17
REMARK    5  A    between atoms: N_21  and  C_22
REMARK                            x       y       z     vdW  Elec       q    Type
REMARK                         _______ _______ _______ _____ _____    ______ ____
ROOT
ATOM      1  C   UNL     1      -7.360  -3.033   0.716  0.00  0.00    +0.008 C 
ATOM      2  C   UNL     1      -6.452  -1.812   0.875  0.00  0.00    -0.009 C 
ATOM      3  C   UNL     1      -6.947  -0.680  -0.030  0.00  0.00    +0.008 C 
ATOM      4  C   UNL     1      -6.204   0.615   0.302  0.00  0.00    +0.037 C 
ATOM      5  C   UNL     1      -4.705   0.344   0.265  0.00  0.00    -0.023 A 
ATOM      6  C   UNL     1      -4.224  -0.916   0.341  0.00  0.00    -0.004 A 
ATOM      7  S   UNL     1      -2.465  -0.735   0.259  0.00  0.00    -0.077 S 
ATOM      8  C   UNL     1      -2.367   0.990   0.126  0.00  0.00    +0.085 A 
ATOM      9  C   UNL     1      -3.698   1.385   0.154  0.00  0.00    +0.068 A 
ATOM     10  C   UNL     1      -5.018  -2.180   0.467  0.00  0.00    +0.046 C 
ENDROOT
BRANCH   9  11
ATOM     11  C   UNL     1      -4.073   2.800   0.071  0.00  0.00    +0.244 C 
ATOM     12  O   UNL     1      -4.273   3.313  -1.015  0.00  0.00    -0.270 OA
ATOM     13  N   UNL     1      -4.196   3.532   1.196  0.00  0.00    -0.325 N 
ATOM     14  H   UNL     1      -4.037   3.123   2.060  0.00  0.00    +0.145 HD
ATOM     15  H   UNL     1      -4.444   4.468   1.140  0.00  0.00    +0.145 HD
ENDBRANCH   9  11
BRANCH   8  16
ATOM     16  N   UNL     1      -1.236   1.783   0.024  0.00  0.00    -0.274 N 
ATOM     17  C   UNL     1      -0.014   1.215   0.018  0.00  0.00    +0.268 C 
ATOM     18  O   UNL     1       0.094   0.004   0.007  0.00  0.00    -0.268 OA
ATOM     19  H   UNL     1      -1.324   2.747  -0.044  0.00  0.00    +0.156 HD
BRANCH  17  20
ATOM     20  C   UNL     1       1.189   2.061   0.020  0.00  0.00    +0.136 A 
ATOM     21  C   UNL     1       1.881   2.521   1.129  0.00  0.00    +0.063 A 
ATOM     22  C   UNL     1       2.940   3.275   0.617  0.00  0.00    +0.149 A 
ATOM     23  N   UNL     1       2.858   3.248  -0.689  0.00  0.00    -0.178 NA
ATOM     24  N   UNL     1       1.853   2.545  -1.072  0.00  0.00    -0.261 N 
ATOM     25  C   UNL     1       1.475   2.302  -2.466  0.00  0.00    +0.173 C 
ATOM     26  I   UNL     1       1.435   2.161   3.144  0.00  0.00    -0.040 I 
ENDBRANCH  17  20
ENDBRANCH   8  16
TORSDOF 3
