REMARK  Name = ZINC54753783
REMARK  2 active torsions:
REMARK  status: ('A' for Active; 'I' for Inactive)
REMARK    1  A    between atoms: C_4  and  C_7
REMARK    2  A    between atoms: C_15  and  C_17
REMARK                            x       y       z     vdW  Elec       q    Type
REMARK                         _______ _______ _______ _____ _____    ______ ____
ROOT
ATOM      1  C   UNL     1       3.696  -0.685  -0.037  0.00  0.00    +0.022 A 
ATOM      2  C   UNL     1       3.919  -2.026  -0.052  0.00  0.00    +0.044 A 
ATOM      3  C   UNL     1       5.234  -2.516  -0.068  0.00  0.00    +0.086 A 
ATOM      4  C   UNL     1       6.250  -1.531  -0.066  0.00  0.00    +0.104 A 
ATOM      5  S   UNL     1       5.346  -0.006  -0.051  0.00  0.00    -0.081 S 
ATOM      6  C   UNL     1       7.588  -1.881  -0.080  0.00  0.00    +0.288 A 
ATOM      7  O   UNL     1       8.554  -0.930  -0.078  0.00  0.00    -0.265 OA
ATOM      8  N   UNL     1       7.905  -3.173  -0.096  0.00  0.00    -0.185 NA
ATOM      9  C   UNL     1       6.945  -4.092  -0.098  0.00  0.00    +0.202 A 
ATOM     10  N   UNL     1       5.663  -3.800  -0.084  0.00  0.00    -0.224 NA
ENDROOT
BRANCH   1  14
ATOM     11  C   UNL     1      -0.017   1.379   0.010  0.00  0.00    +0.000 A 
ATOM     12  C   UNL     1       1.168   2.093   0.002  0.00  0.00    +0.001 A 
ATOM     13  C   UNL     1       2.377   1.429  -0.013  0.00  0.00    +0.009 A 
ATOM     14  C   UNL     1       2.403   0.034  -0.021  0.00  0.00    -0.011 A 
ATOM     15  C   UNL     1       1.204  -0.681  -0.013  0.00  0.00    +0.009 A 
ATOM     16  C   UNL     1       0.002  -0.004   0.002  0.00  0.00    +0.001 A 
ENDBRANCH   1  14
BRANCH   9  17
ATOM     17  C   UNL     1       7.341  -5.523  -0.116  0.00  0.00    +0.198 A 
ATOM     18  N   UNL     1       6.399  -6.455  -0.123  0.00  0.00    -0.233 NA
ATOM     19  C   UNL     1       6.717  -7.738  -0.139  0.00  0.00    +0.115 A 
ATOM     20  C   UNL     1       8.056  -8.103  -0.148  0.00  0.00    +0.039 A 
ATOM     21  C   UNL     1       9.016  -7.101  -0.140  0.00  0.00    +0.115 A 
ATOM     22  N   UNL     1       8.629  -5.838  -0.130  0.00  0.00    -0.233 NA
ENDBRANCH   9  17
TORSDOF 2
