REMARK  Name = ZINC02788110
REMARK  6 active torsions:
REMARK  status: ('A' for Active; 'I' for Inactive)
REMARK    1  A    between atoms: C_1  and  C_2
REMARK    2  A    between atoms: C_9  and  N_13
REMARK    3  A    between atoms: C_10  and  C_11
REMARK    4  A    between atoms: C_14  and  C_16
REMARK    5  A    between atoms: C_16  and  N_17
REMARK    6  A    between atoms: C_19  and  C_22
REMARK                            x       y       z     vdW  Elec       q    Type
REMARK                         _______ _______ _______ _____ _____    ______ ____
ROOT
ATOM      1  N   UNL     1      -2.303  -5.918   0.765  0.00  0.00    -0.277 N 
ATOM      2  C   UNL     1      -3.568  -6.207   0.399  0.00  0.00    +0.241 C 
ATOM      3  O   UNL     1      -4.297  -5.327  -0.010  0.00  0.00    -0.273 OA
ATOM      4  H   UNL     1      -1.721  -6.621   1.092  0.00  0.00    +0.155 HD
ENDROOT
BRANCH   1  12
ATOM      5  C   UNL     1      -0.019   1.526   0.010  0.00  0.00    +0.008 C 
ATOM      6  C   UNL     1       0.002  -0.004   0.002  0.00  0.00    -0.009 C 
ATOM      7  C   UNL     1       0.742  -0.514   1.242  0.00  0.00    +0.008 C 
ATOM      8  C   UNL     1       0.985  -2.020   1.120  0.00  0.00    +0.037 C 
ATOM      9  C   UNL     1      -0.340  -2.706   0.809  0.00  0.00    -0.018 A 
ATOM     10  C   UNL     1      -1.390  -2.006   0.327  0.00  0.00    -0.004 A 
ATOM     11  S   UNL     1      -2.678  -3.204   0.126  0.00  0.00    -0.077 S 
ATOM     12  C   UNL     1      -1.835  -4.615   0.674  0.00  0.00    +0.090 A 
ATOM     13  C   UNL     1      -0.578  -4.126   0.999  0.00  0.00    +0.084 A 
ATOM     14  C   UNL     1      -1.437  -0.538   0.030  0.00  0.00    +0.046 C 
BRANCH  13  15
ATOM     15  C   UNL     1       0.446  -4.990   1.504  0.00  0.00    +0.102 C 
ATOM     16  N   UNL     1       1.259  -5.675   1.905  0.00  0.00    -0.191 NA
ENDBRANCH  13  15
ENDBRANCH   1  12
BRANCH   2  17
ATOM     17  C   UNL     1      -4.077  -7.622   0.498  0.00  0.00    +0.264 C 
BRANCH  17  18
ATOM     18  N   UNL     1      -5.469  -7.673   0.044  0.00  0.00    -0.154 N 
ATOM     19  N   UNL     1      -6.504  -7.518   0.796  0.00  0.00    -0.130 NA
ATOM     20  C   UNL     1      -7.575  -7.628   0.036  0.00  0.00    +0.205 A 
ATOM     21  N   UNL     1      -7.139  -7.865  -1.209  0.00  0.00    -0.108 NA
ATOM     22  N   UNL     1      -5.850  -7.885  -1.167  0.00  0.00    -0.045 NA
BRANCH  20  23
ATOM     23  C   UNL     1      -8.989  -7.517   0.475  0.00  0.00    +0.023 A 
ATOM     24  C   UNL     1      -9.289  -7.272   1.813  0.00  0.00    +0.012 A 
ATOM     25  C   UNL     1     -10.605  -7.163   2.214  0.00  0.00    +0.001 A 
ATOM     26  C   UNL     1     -11.626  -7.309   1.292  0.00  0.00    +0.000 A 
ATOM     27  C   UNL     1     -11.334  -7.558  -0.037  0.00  0.00    +0.001 A 
ATOM     28  C   UNL     1     -10.021  -7.663  -0.450  0.00  0.00    +0.012 A 
ENDBRANCH  20  23
ENDBRANCH  17  18
ENDBRANCH   2  17
TORSDOF 5
