REMARK  Name = ZINC63948968
REMARK  4 active torsions:
REMARK  status: ('A' for Active; 'I' for Inactive)
REMARK    1  A    between atoms: C_1  and  C_2
REMARK    2  A    between atoms: C_5  and  C_24
REMARK    3  A    between atoms: C_7  and  N_8
REMARK    4  A    between atoms: C_9  and  C_11
REMARK                            x       y       z     vdW  Elec       q    Type
REMARK                         _______ _______ _______ _____ _____    ______ ____
ROOT
ATOM      1  N   UNL     1       0.025  -0.007   2.417  0.00  0.00    -0.283 N 
ATOM      2  C   UNL     1      -0.057  -0.683   3.581  0.00  0.00    +0.252 C 
ATOM      3  O   UNL     1      -0.040  -1.895   3.580  0.00  0.00    -0.272 OA
ATOM      4  H   UNL     1       0.078   0.961   2.421  0.00  0.00    +0.155 HD
ENDROOT
BRANCH   2   5
ATOM      5  C   UNL     1      -0.168   0.069   4.882  0.00  0.00    +0.169 C 
ATOM      6  C   UNL     1      -1.359   1.039   4.920  0.00  0.00    +0.056 C 
ATOM      7  C   UNL     1      -2.461   0.102   5.477  0.00  0.00    +0.100 C 
ATOM      8  C   UNL     1      -1.702  -0.931   6.279  0.00  0.00    +0.221 C 
ATOM      9  O   UNL     1      -2.212  -1.751   7.013  0.00  0.00    -0.275 OA
ATOM     10  N   UNL     1      -0.367  -0.809   6.061  0.00  0.00    -0.246 N 
ATOM     11  C   UNL     1       0.838  -1.199   6.681  0.00  0.00    +0.052 A 
ATOM     12  C   UNL     1       1.016  -2.326   7.498  0.00  0.00    +0.025 A 
ATOM     13  C   UNL     1       2.240  -2.605   8.062  0.00  0.00    +0.002 A 
ATOM     14  C   UNL     1       3.333  -1.786   7.844  0.00  0.00    +0.001 A 
ATOM     15  C   UNL     1       3.186  -0.669   7.037  0.00  0.00    +0.016 A 
ATOM     16  C   UNL     1       1.965  -0.395   6.469  0.00  0.00    +0.032 A 
ATOM     17  S   UNL     1       1.394   0.896   5.380  0.00  0.00    -0.088 S 
ENDBRANCH   2   5
BRANCH   1  24
ATOM     18  C   UNL     1      -1.264   1.184   0.182  0.00  0.00    +0.045 C 
ATOM     19  C   UNL     1      -0.585  -0.158   0.085  0.00  0.00    -0.029 A 
ATOM     20  C   UNL     1      -0.575  -0.839  -1.118  0.00  0.00    +0.006 A 
ATOM     21  C   UNL     1       0.045  -2.068  -1.215  0.00  0.00    +0.013 A 
ATOM     22  C   UNL     1       0.664  -2.627  -0.096  0.00  0.00    +0.038 A 
ATOM     23  C   UNL     1       0.654  -1.940   1.117  0.00  0.00    +0.036 A 
ATOM     24  C   UNL     1       0.033  -0.704   1.203  0.00  0.00    +0.037 A 
BRANCH  22  25
ATOM     25  C   UNL     1       1.329  -3.944  -0.197  0.00  0.00    +0.242 C 
ATOM     26  O   UNL     1       1.868  -4.430   0.778  0.00  0.00    -0.270 OA
ATOM     27  N   UNL     1       1.337  -4.607  -1.371  0.00  0.00    -0.325 N 
ATOM     28  H   UNL     1       0.907  -4.220  -2.149  0.00  0.00    +0.145 HD
ATOM     29  H   UNL     1       1.773  -5.471  -1.437  0.00  0.00    +0.145 HD
ENDBRANCH  22  25
ENDBRANCH   1  24
TORSDOF 3
