REMARK  Name = ZINC20565827
REMARK  9 active torsions:
REMARK  status: ('A' for Active; 'I' for Inactive)
REMARK    1  A    between atoms: C_1  and  C_2
REMARK    2  A    between atoms: C_13  and  C_16
REMARK    3  A    between atoms: C_16  and  C_17
REMARK    4  A    between atoms: C_17  and  C_18
REMARK    5  A    between atoms: N_23  and  C_26
REMARK    6  A    between atoms: C_26  and  C_27
REMARK    7  A    between atoms: C_27  and  C_28
REMARK    8  A    between atoms: C_28  and  O_29
REMARK    9  A    between atoms: O_29  and  C_30
REMARK                            x       y       z     vdW  Elec       q    Type
REMARK                         _______ _______ _______ _____ _____    ______ ____
ROOT
ATOM      1  C   UNL     1      -0.018   1.503   0.010  0.00  0.00    +0.044 C 
ATOM      2  C   UNL     1       0.002  -0.004   0.002  0.00  0.00    -0.050 A 
ATOM      3  C   UNL     1       0.006  -0.691  -1.199  0.00  0.00    +0.005 A 
ATOM      4  C   UNL     1       0.025  -2.070  -1.212  0.00  0.00    +0.024 A 
ATOM      5  C   UNL     1       0.041  -2.782  -0.015  0.00  0.00    +0.039 A 
ATOM      6  C   UNL     1       0.037  -2.081   1.187  0.00  0.00    +0.004 A 
ATOM      7  C   UNL     1       0.023  -0.704   1.195  0.00  0.00    +0.011 A 
ATOM      8  C   UNL     1       0.060  -3.122   2.268  0.00  0.00    +0.136 C 
ATOM      9  C   UNL     1      -1.100  -2.994   3.234  0.00  0.00    +0.122 C 
ATOM     10  C   UNL     1      -0.488  -3.880   4.387  0.00  0.00    +0.107 C 
ATOM     11  C   UNL     1       0.883  -3.373   4.525  0.00  0.00    +0.068 C 
ATOM     12  N   UNL     1       1.272  -2.974   3.121  0.00  0.00    -0.295 NA
ATOM     13  C   UNL     1      -1.650  -4.164   5.194  0.00  0.00    +0.227 C 
ATOM     14  O   UNL     1      -1.700  -4.295   6.398  0.00  0.00    -0.275 OA
ATOM     15  N   UNL     1      -2.688  -4.253   4.300  0.00  0.00    -0.241 N 
ATOM     16  C   UNL     1      -2.365  -3.773   3.048  0.00  0.00    +0.228 C 
ATOM     17  O   UNL     1      -2.970  -3.945   2.011  0.00  0.00    -0.275 OA
ATOM     18  C   UNL     1       0.073  -4.440   1.546  0.00  0.00    +0.243 C 
ATOM     19  O   UNL     1       0.091  -5.543   2.050  0.00  0.00    -0.273 OA
ATOM     20  N   UNL     1       0.061  -4.158   0.228  0.00  0.00    -0.283 N 
ATOM     21  H   UNL     1       2.030  -3.541   2.773  0.00  0.00    +0.123 HD
ATOM     22  H   UNL     1       0.066  -4.831  -0.470  0.00  0.00    +0.155 HD
ENDROOT
BRANCH  11  23
ATOM     23  C   UNL     1       0.916  -2.176   5.477  0.00  0.00    +0.028 C 
BRANCH  23  24
ATOM     24  C   UNL     1       2.366  -1.744   5.703  0.00  0.00    +0.097 C 
BRANCH  24  25
ATOM     25  C   UNL     1       2.399  -0.564   6.640  0.00  0.00    +0.211 C 
ATOM     26  O   UNL     1       1.364  -0.113   7.083  0.00  0.00    -0.276 OA
ATOM     27  N   UNL     1       3.578  -0.010   6.985  0.00  0.00    -0.329 N 
ATOM     28  H   UNL     1       4.406  -0.371   6.631  0.00  0.00    +0.145 HD
ATOM     29  H   UNL     1       3.599   0.749   7.588  0.00  0.00    +0.145 HD
ENDBRANCH  24  25
ENDBRANCH  23  24
ENDBRANCH  11  23
BRANCH  15  30
ATOM     30  C   UNL     1      -4.008  -4.792   4.639  0.00  0.00    +0.118 C 
BRANCH  30  31
ATOM     31  C   UNL     1      -4.908  -3.659   5.136  0.00  0.00    +0.047 C 
BRANCH  31  32
ATOM     32  C   UNL     1      -6.286  -4.221   5.491  0.00  0.00    +0.161 C 
BRANCH  32  33
ATOM     33  O   UNL     1      -7.127  -3.163   5.956  0.00  0.00    -0.383 OA
ATOM     34  C   UNL     1      -8.444  -3.583   6.316  0.00  0.00    +0.193 C 
ENDBRANCH  32  33
ENDBRANCH  31  32
ENDBRANCH  30  31
ENDBRANCH  15  30
TORSDOF 7
