REMARK  Name = ZINC01778168
REMARK  7 active torsions:
REMARK  status: ('A' for Active; 'I' for Inactive)
REMARK    1  A    between atoms: C_4  and  C_7
REMARK    2  A    between atoms: N_9  and  C_10
REMARK    3  A    between atoms: C_10  and  C_12
REMARK    4  A    between atoms: C_10  and  C_24
REMARK    5  A    between atoms: N_26  and  N_27
REMARK    6  A    between atoms: C_28  and  C_29
REMARK    7  A    between atoms: C_31  and  N_36
REMARK                            x       y       z     vdW  Elec       q    Type
REMARK                         _______ _______ _______ _____ _____    ______ ____
ROOT
ATOM      1  C   UNL     1       4.997  -2.744  -0.061  0.00  0.00    +0.212 C 
ENDROOT
BRANCH   1   2
ATOM      2  C   UNL     1       5.483  -2.873  -1.482  0.00  0.00    +0.099 A 
ATOM      3  C   UNL     1       6.911  -3.032  -1.756  0.00  0.00    +0.013 A 
ATOM      4  C   UNL     1       7.858  -3.071  -0.730  0.00  0.00    +0.010 A 
ATOM      5  C   UNL     1       9.181  -3.222  -1.037  0.00  0.00    +0.001 A 
ATOM      6  C   UNL     1       9.600  -3.338  -2.356  0.00  0.00    +0.001 A 
ATOM      7  C   UNL     1       8.688  -3.302  -3.389  0.00  0.00    +0.014 A 
ATOM      8  C   UNL     1       7.332  -3.150  -3.100  0.00  0.00    +0.050 A 
ATOM      9  C   UNL     1       6.312  -3.105  -4.154  0.00  0.00    +0.272 A 
ATOM     10  O   UNL     1       6.627  -3.203  -5.327  0.00  0.00    -0.266 OA
ATOM     11  N   UNL     1       5.019  -2.955  -3.800  0.00  0.00    -0.242 N 
ATOM     12  H   UNL     1       4.340  -2.925  -4.492  0.00  0.00    +0.192 HD
ATOM     13  N   UNL     1       4.632  -2.847  -2.464  0.00  0.00    -0.173 NA
ENDBRANCH   1   2
BRANCH   1  16
ATOM     14  C   UNL     1       3.696  -0.685  -0.037  0.00  0.00    +0.245 C 
ATOM     15  O   UNL     1       4.738  -0.060  -0.044  0.00  0.00    -0.270 OA
ATOM     16  N   UNL     1       3.717  -2.032  -0.045  0.00  0.00    -0.295 N 
ATOM     17  H   UNL     1       2.885  -2.531  -0.039  0.00  0.00    +0.150 HD
BRANCH  14  21
ATOM     18  C   UNL     1      -0.017   1.379   0.010  0.00  0.00    +0.000 A 
ATOM     19  C   UNL     1       1.168   2.094   0.002  0.00  0.00    +0.001 A 
ATOM     20  C   UNL     1       2.377   1.429  -0.013  0.00  0.00    +0.013 A 
ATOM     21  C   UNL     1       2.403   0.034  -0.021  0.00  0.00    +0.037 A 
ATOM     22  C   UNL     1       1.204  -0.681  -0.013  0.00  0.00    +0.013 A 
ATOM     23  C   UNL     1       0.002  -0.004   0.002  0.00  0.00    +0.001 A 
ENDBRANCH  14  21
ENDBRANCH   1  16
BRANCH   1  24
ATOM     24  C   UNL     1       4.817  -4.117   0.534  0.00  0.00    +0.259 C 
ATOM     25  O   UNL     1       3.725  -4.466   0.932  0.00  0.00    -0.272 OA
ATOM     26  N   UNL     1       5.867  -4.956   0.623  0.00  0.00    -0.205 N 
ATOM     27  H   UNL     1       6.740  -4.677   0.304  0.00  0.00    +0.177 HD
BRANCH  26  28
ATOM     28  N   UNL     1       5.699  -6.232   1.176  0.00  0.00    -0.188 NA
ATOM     29  C   UNL     1       6.711  -7.041   1.262  0.00  0.00    +0.142 C 
BRANCH  29  30
ATOM     30  C   UNL     1       6.534  -8.383   1.844  0.00  0.00    +0.043 A 
ATOM     31  C   UNL     1       7.621  -9.255   1.944  0.00  0.00    +0.046 A 
ATOM     32  C   UNL     1       7.449 -10.509   2.490  0.00  0.00    +0.127 A 
ATOM     33  C   UNL     1       6.203 -10.910   2.939  0.00  0.00    +0.036 A 
ATOM     34  C   UNL     1       5.119 -10.057   2.846  0.00  0.00    +0.054 A 
ATOM     35  C   UNL     1       5.275  -8.791   2.306  0.00  0.00    +0.188 A 
ATOM     36  O   UNL     1       4.212  -7.951   2.219  0.00  0.00    -0.287 OA
BRANCH  32  37
ATOM     37  N   UNL     1       8.602 -11.432   2.595  0.00  0.00    +0.056 N 
ATOM     38  O   UNL     1       9.692 -11.085   2.203  0.00  0.00    -0.126 OA
ATOM     39  O   UNL     1       8.454 -12.532   3.073  0.00  0.00    -0.126 OA
ENDBRANCH  32  37
ENDBRANCH  29  30
ENDBRANCH  26  28
ENDBRANCH   1  24
TORSDOF 7
