REMARK  Name = ZINC16957772
REMARK  7 active torsions:
REMARK  status: ('A' for Active; 'I' for Inactive)
REMARK    1  A    between atoms: C_10  and  C_14
REMARK    2  A    between atoms: C_14  and  C_21
REMARK    3  A    between atoms: N_15  and  N_16
REMARK    4  A    between atoms: N_16  and  C_17
REMARK    5  A    between atoms: C_17  and  N_19
REMARK    6  A    between atoms: N_19  and  N_20
REMARK    7  A    between atoms: N_23  and  C_24
REMARK                            x       y       z     vdW  Elec       q    Type
REMARK                         _______ _______ _______ _____ _____    ______ ____
ROOT
ATOM      1  C   UNL     1      -2.197   3.427   3.603  0.00  0.00    +0.145 C 
ATOM      2  N   UNL     1      -0.920   3.332   3.368  0.00  0.00    -0.179 NA
ENDROOT
BRANCH   1  12
ATOM      3  C   UNL     1       0.014   0.422  -0.348  0.00  0.00    +0.002 A 
ATOM      4  C   UNL     1       0.495   1.686  -0.636  0.00  0.00    +0.001 A 
ATOM      5  C   UNL     1      -0.213   2.801  -0.226  0.00  0.00    +0.019 A 
ATOM      6  C   UNL     1      -1.395   2.651   0.468  0.00  0.00    +0.061 A 
ATOM      7  C   UNL     1      -1.886   1.387   0.767  0.00  0.00    +0.049 A 
ATOM      8  C   UNL     1      -1.166   0.269   0.349  0.00  0.00    +0.024 A 
ATOM      9  N   UNL     1      -3.078   1.207   1.458  0.00  0.00    -0.283 N 
ATOM     10  C   UNL     1      -3.724   2.116   2.180  0.00  0.00    +0.239 C 
ATOM     11  O   UNL     1      -4.808   1.826   2.640  0.00  0.00    -0.274 OA
ATOM     12  C   UNL     1      -3.171   3.491   2.455  0.00  0.00    +0.224 C 
ATOM     13  S   UNL     1      -2.312   4.075   0.969  0.00  0.00    +0.074 S 
ATOM     14  O   UNL     1      -3.263   4.255  -0.071  0.00  0.00    -0.251 OA
ATOM     15  H   UNL     1      -3.480   0.326   1.408  0.00  0.00    +0.155 HD
ENDBRANCH   1  12
BRANCH   1  16
ATOM     16  C   UNL     1      -2.686   3.472   4.983  0.00  0.00    +0.266 C 
ATOM     17  O   UNL     1      -1.897   3.547   5.907  0.00  0.00    -0.268 OA
ATOM     18  N   UNL     1      -4.011   3.429   5.230  0.00  0.00    -0.279 N 
ATOM     19  H   UNL     1      -4.641   3.409   4.494  0.00  0.00    +0.155 HD
BRANCH  18  20
ATOM     20  C   UNL     1      -4.476   3.414   6.549  0.00  0.00    +0.054 A 
ATOM     21  C   UNL     1      -3.631   3.781   7.589  0.00  0.00    +0.044 A 
ATOM     22  C   UNL     1      -4.096   3.770   8.891  0.00  0.00    +0.043 A 
ATOM     23  C   UNL     1      -5.397   3.384   9.160  0.00  0.00    +0.021 A 
ATOM     24  C   UNL     1      -6.239   3.013   8.127  0.00  0.00    +0.023 A 
ATOM     25  C   UNL     1      -5.782   3.027   6.823  0.00  0.00    +0.062 A 
ATOM     26 CL   UNL     1      -6.839   2.561   5.527  0.00  0.00    -0.082 Cl
ATOM     27 CL   UNL     1      -3.043   4.235  10.191  0.00  0.00    -0.083 Cl
ENDBRANCH  18  20
ENDBRANCH   1  16
BRANCH   2  28
ATOM     28  N   UNL     1      -0.034   3.051   4.416  0.00  0.00    -0.217 N 
ATOM     29  H   UNL     1      -0.378   2.836   5.297  0.00  0.00    +0.176 HD
BRANCH  28  30
ATOM     30  C   UNL     1       1.296   3.079   4.199  0.00  0.00    +0.164 C 
ATOM     31  S   UNL     1       2.375   2.603   5.440  0.00  0.00    -0.016 S 
BRANCH  30  32
ATOM     32  N   UNL     1       1.777   3.482   3.006  0.00  0.00    -0.264 N 
ATOM     33  H   UNL     1       2.727   3.426   2.823  0.00  0.00    +0.168 HD
BRANCH  32  34
ATOM     34  N   UNL     1       0.924   3.968   2.056  0.00  0.00    -0.255 NA
ATOM     35  H   UNL     1       1.435   4.327   1.263  0.00  0.00    +0.140 HD
ATOM     36  H   UNL     1       0.261   3.264   1.771  0.00  0.00    +0.140 HD
ENDBRANCH  32  34
ENDBRANCH  30  32
ENDBRANCH  28  30
ENDBRANCH   2  28
TORSDOF 7
