REMARK  Name = ZINC60210842
REMARK  13 active torsions:
REMARK  status: ('A' for Active; 'I' for Inactive)
REMARK    1  A    between atoms: C_1  and  C_2
REMARK    2  A    between atoms: C_2  and  C_3
REMARK    3  A    between atoms: C_3  and  C_5
REMARK    4  A    between atoms: C_3  and  N_6
REMARK    5  A    between atoms: N_6  and  S_7
REMARK    6  A    between atoms: S_7  and  C_10
REMARK    7  A    between atoms: C_13  and  C_16
REMARK    8  A    between atoms: N_18  and  N_19
REMARK    9  A    between atoms: N_19  and  C_20
REMARK   10  A    between atoms: C_21  and  C_28
REMARK   11  A    between atoms: C_23  and  C_25
REMARK   12  A    between atoms: C_25  and  C_26
REMARK   13  A    between atoms: C_25  and  C_27
REMARK                            x       y       z     vdW  Elec       q    Type
REMARK                         _______ _______ _______ _____ _____    ______ ____
ROOT
ATOM      1  C   UNL     1       3.306  -4.675   5.916  0.00  0.00    +0.260 C 
ATOM      2  O   UNL     1       2.427  -4.928   6.717  0.00  0.00    -0.269 OA
ATOM      3  N   UNL     1       4.356  -5.508   5.782  0.00  0.00    -0.230 N 
ATOM      4  H   UNL     1       5.058  -5.305   5.143  0.00  0.00    +0.173 HD
ENDROOT
BRANCH   1   8
ATOM      5  C   UNL     1       3.064  -1.161   3.541  0.00  0.00    +0.105 A 
ATOM      6  C   UNL     1       2.062  -1.447   4.452  0.00  0.00    +0.029 A 
ATOM      7  C   UNL     1       2.135  -2.587   5.226  0.00  0.00    +0.015 A 
ATOM      8  C   UNL     1       3.221  -3.452   5.089  0.00  0.00    +0.038 A 
ATOM      9  C   UNL     1       4.229  -3.157   4.169  0.00  0.00    +0.015 A 
ATOM     10  C   UNL     1       4.142  -2.017   3.397  0.00  0.00    +0.029 A 
BRANCH   5  11
ATOM     11  S   UNL     1       2.964   0.296   2.556  0.00  0.00    +0.059 S 
ATOM     12  O   UNL     1       4.292   0.616   2.166  0.00  0.00    -0.153 OA
ATOM     13  O   UNL     1       2.137   1.210   3.265  0.00  0.00    -0.153 OA
BRANCH  11  14
ATOM     14  N   UNL     1       2.148  -0.104   1.172  0.00  0.00    -0.187 NA
ATOM     15  H   UNL     1       2.600  -0.069   0.315  0.00  0.00    +0.148 HD
BRANCH  14  16
ATOM     16  C   UNL     1       0.742  -0.511   1.242  0.00  0.00    +0.073 C 
ATOM     17  C   UNL     1       0.655  -2.037   1.299  0.00  0.00    +0.025 C 
BRANCH  16  19
ATOM     18  C   UNL     1      -0.019   1.526   0.010  0.00  0.00    +0.005 C 
ATOM     19  C   UNL     1       0.002  -0.004   0.002  0.00  0.00    +0.017 C 
ENDBRANCH  16  19
ENDBRANCH  14  16
ENDBRANCH  11  14
ENDBRANCH   5  11
ENDBRANCH   1   8
BRANCH   3  20
ATOM     20  N   UNL     1       4.436  -6.667   6.565  0.00  0.00    -0.232 N 
ATOM     21  H   UNL     1       3.735  -6.869   7.204  0.00  0.00    +0.173 HD
BRANCH  20  22
ATOM     22  C   UNL     1       5.512  -7.519   6.428  0.00  0.00    +0.241 A 
ATOM     23  C   UNL     1       5.728  -8.697   7.121  0.00  0.00    +0.202 A 
ATOM     24  N   UNL     1       6.907  -9.209   6.668  0.00  0.00    -0.200 NA
ATOM     25  C   UNL     1       7.386  -8.412   5.763  0.00  0.00    +0.202 A 
ATOM     26  O   UNL     1       6.554  -7.372   5.589  0.00  0.00    -0.423 OA
BRANCH  25  27
ATOM     27  C   UNL     1       8.677  -8.623   5.016  0.00  0.00    +0.069 C 
ATOM     28  C   UNL     1       9.839  -8.675   6.010  0.00  0.00    +0.017 C 
ATOM     29  C   UNL     1       8.609  -9.941   4.242  0.00  0.00    +0.017 C 
ENDBRANCH  25  27
BRANCH  23  30
ATOM     30  C   UNL     1       4.878  -9.268   8.123  0.00  0.00    +0.124 C 
ATOM     31  N   UNL     1       4.204  -9.720   8.917  0.00  0.00    -0.189 NA
ENDBRANCH  23  30
ENDBRANCH  20  22
ENDBRANCH   3  20
TORSDOF 9
