REMARK  Name = ZINC09085476
REMARK  7 active torsions:
REMARK  status: ('A' for Active; 'I' for Inactive)
REMARK    1  A    between atoms: C_2  and  C_3
REMARK    2  A    between atoms: C_3  and  N_4
REMARK    3  A    between atoms: C_14  and  S_15
REMARK    4  A    between atoms: S_15  and  C_16
REMARK    5  A    between atoms: C_16  and  C_17
REMARK    6  A    between atoms: N_19  and  C_20
REMARK    7  A    between atoms: C_21  and  C_29
REMARK                            x       y       z     vdW  Elec       q    Type
REMARK                         _______ _______ _______ _____ _____    ______ ____
ROOT
ATOM      1  C   UNL     1      -0.359   5.013  -4.530  0.00  0.00    +0.228 C 
ATOM      2  O   UNL     1       0.377   5.497  -3.696  0.00  0.00    -0.275 OA
ATOM      3  N   UNL     1      -0.399   5.531  -5.774  0.00  0.00    -0.279 N 
ATOM      4  H   UNL     1      -0.987   5.145  -6.442  0.00  0.00    +0.155 HD
ENDROOT
BRANCH   3   5
ATOM      5  C   UNL     1       0.401   6.617  -6.099  0.00  0.00    +0.084 A 
ATOM      6  C   UNL     1       0.502   7.279  -7.314  0.00  0.00    +0.068 A 
ATOM      7  C   UNL     1       1.422   8.401  -7.393  0.00  0.00    -0.023 A 
ATOM      8  C   UNL     1       2.096   8.673  -6.254  0.00  0.00    -0.004 A 
ATOM      9  S   UNL     1       1.520   7.470  -5.089  0.00  0.00    -0.077 S 
ATOM     10  C   UNL     1       3.107   9.757  -6.039  0.00  0.00    +0.043 C 
ATOM     11  C   UNL     1       3.546  10.287  -7.411  0.00  0.00    +0.005 C 
ATOM     12  C   UNL     1       2.299  10.555  -8.259  0.00  0.00    +0.005 C 
ATOM     13  C   UNL     1       1.642   9.231  -8.651  0.00  0.00    +0.037 C 
BRANCH   6  14
ATOM     14  C   UNL     1      -0.292   6.865  -8.475  0.00  0.00    +0.244 C 
ATOM     15  O   UNL     1      -1.392   7.350  -8.664  0.00  0.00    -0.270 OA
ATOM     16  N   UNL     1       0.197   5.947  -9.333  0.00  0.00    -0.325 N 
ATOM     17  H   UNL     1       1.073   5.561  -9.183  0.00  0.00    +0.145 HD
ATOM     18  H   UNL     1      -0.329   5.673 -10.101  0.00  0.00    +0.145 HD
ENDBRANCH   6  14
ENDBRANCH   3   5
BRANCH   1  19
ATOM     19  C   UNL     1      -1.228   3.834  -4.177  0.00  0.00    +0.173 C 
BRANCH  19  20
ATOM     20  S   UNL     1      -0.949   3.376  -2.448  0.00  0.00    -0.078 S 
BRANCH  20  31
ATOM     21  N   UNL     1      -2.146   1.365  -1.112  0.00  0.00    -0.283 N 
ATOM     22  C   UNL     1      -2.987   0.316  -0.958  0.00  0.00    +0.263 A 
ATOM     23  O   UNL     1      -3.080  -0.267   0.107  0.00  0.00    -0.267 OA
ATOM     24  C   UNL     1      -3.786  -0.092  -2.121  0.00  0.00    +0.065 A 
ATOM     25  C   UNL     1      -4.680  -1.160  -2.062  0.00  0.00    +0.017 A 
ATOM     26  C   UNL     1      -5.400  -1.502  -3.172  0.00  0.00    +0.021 A 
ATOM     27  C   UNL     1      -5.252  -0.796  -4.361  0.00  0.00    +0.043 A 
ATOM     28  C   UNL     1      -4.376   0.263  -4.447  0.00  0.00    +0.048 A 
ATOM     29  C   UNL     1      -3.628   0.632  -3.325  0.00  0.00    +0.080 A 
ATOM     30  N   UNL     1      -2.755   1.666  -3.364  0.00  0.00    -0.223 NA
ATOM     31  C   UNL     1      -2.057   2.013  -2.310  0.00  0.00    +0.173 A 
ATOM     32 CL   UNL     1      -6.182  -1.256  -5.753  0.00  0.00    -0.083 Cl
BRANCH  21  33
ATOM     33  C   UNL     1      -1.328   1.812   0.018  0.00  0.00    +0.154 C 
BRANCH  33  35
ATOM     34  C   UNL     1       1.113   1.746   0.001  0.00  0.00    +0.005 C 
ATOM     35  C   UNL     1      -0.013   1.076   0.008  0.00  0.00    -0.013 C 
ENDBRANCH  33  35
ENDBRANCH  21  33
ENDBRANCH  20  31
ENDBRANCH  19  20
ENDBRANCH   1  19
TORSDOF 7
