REMARK  Name = ZINC58893318
REMARK  10 active torsions:
REMARK  status: ('A' for Active; 'I' for Inactive)
REMARK    1  A    between atoms: C_1  and  C_2
REMARK    2  A    between atoms: C_5  and  C_23
REMARK    3  A    between atoms: C_7  and  N_8
REMARK    4  A    between atoms: N_11  and  C_12
REMARK    5  A    between atoms: C_12  and  C_13
REMARK    6  A    between atoms: C_13  and  C_15
REMARK    7  A    between atoms: C_13  and  N_20
REMARK    8  A    between atoms: N_20  and  C_21
REMARK    9  A    between atoms: N_20  and  C_22
REMARK   10  A    between atoms: N_25  and  C_26
REMARK                            x       y       z     vdW  Elec       q    Type
REMARK                         _______ _______ _______ _____ _____    ______ ____
ROOT
ATOM      1  N   UNL     1       0.240  -0.074   2.462  0.00  0.00    -0.269 N 
ATOM      2  C   UNL     1       0.056  -0.734   3.623  0.00  0.00    +0.304 C 
ATOM      3  O   UNL     1      -0.011  -1.948   3.629  0.00  0.00    -0.253 OA
ATOM      4  N   UNL     1      -0.055  -0.047   4.778  0.00  0.00    -0.300 N 
ATOM      5  H   UNL     1       0.365   0.888   2.465  0.00  0.00    +0.156 HD
ATOM      6  H   UNL     1      -0.002   0.921   4.773  0.00  0.00    +0.150 HD
ENDROOT
BRANCH   1  13
ATOM      7  C   UNL     1      -0.828   1.207   0.161  0.00  0.00    +0.045 C 
ATOM      8  C   UNL     1      -0.263  -0.189   0.102  0.00  0.00    -0.029 A 
ATOM      9  C   UNL     1      -0.250  -0.877  -1.097  0.00  0.00    +0.006 A 
ATOM     10  C   UNL     1       0.266  -2.155  -1.158  0.00  0.00    +0.013 A 
ATOM     11  C   UNL     1       0.778  -2.758  -0.008  0.00  0.00    +0.038 A 
ATOM     12  C   UNL     1       0.766  -2.063   1.202  0.00  0.00    +0.036 A 
ATOM     13  C   UNL     1       0.250  -0.777   1.252  0.00  0.00    +0.038 A 
BRANCH  11  14
ATOM     14  C   UNL     1       1.331  -4.128  -0.071  0.00  0.00    +0.244 C 
ATOM     15  O   UNL     1       1.776  -4.650   0.932  0.00  0.00    -0.270 OA
ATOM     16  N   UNL     1       1.342  -4.797  -1.241  0.00  0.00    -0.314 N 
ATOM     17  C   UNL     1       1.890  -6.154  -1.303  0.00  0.00    +0.128 C 
ATOM     18  H   UNL     1       0.987  -4.380  -2.041  0.00  0.00    +0.149 HD
ENDBRANCH  11  14
ENDBRANCH   1  13
BRANCH   4  19
ATOM     19  C   UNL     1      -0.255  -0.764   6.040  0.00  0.00    +0.098 C 
BRANCH  19  20
ATOM     20  C   UNL     1      -0.476   0.244   7.169  0.00  0.00    +0.016 C 
BRANCH  20  21
ATOM     21  C   UNL     1       0.778   1.054   7.372  0.00  0.00    +0.093 A 
ATOM     22  C   UNL     1       1.703   0.848   8.327  0.00  0.00    +0.043 A 
ATOM     23  C   UNL     1       2.702   1.832   8.150  0.00  0.00    +0.041 A 
ATOM     24  C   UNL     1       2.329   2.581   7.096  0.00  0.00    +0.195 A 
ATOM     25  O   UNL     1       1.166   2.102   6.626  0.00  0.00    -0.469 OA
ENDBRANCH  20  21
BRANCH  20  26
ATOM     26  N   UNL     1      -1.586   1.139   6.816  0.00  0.00    +0.384 N 
ATOM     27  C   UNL     1      -2.829   0.363   6.718  0.00  0.00    -0.096 C 
ATOM     28  C   UNL     1      -1.733   2.170   7.854  0.00  0.00    -0.096 C 
ATOM     29  H   UNL     1      -1.393   1.580   5.929  0.00  0.00    -0.082 HD
ENDBRANCH  20  26
ENDBRANCH  19  20
ENDBRANCH   4  19
TORSDOF 6
