REMARK  Name = ZINC51088626
REMARK  5 active torsions:
REMARK  status: ('A' for Active; 'I' for Inactive)
REMARK    1  A    between atoms: C_1  and  C_2
REMARK    2  A    between atoms: C_4  and  C_20
REMARK    3  A    between atoms: C_9  and  C_11
REMARK    4  A    between atoms: C_16  and  N_17
REMARK    5  A    between atoms: N_17  and  N_18
REMARK                            x       y       z     vdW  Elec       q    Type
REMARK                         _______ _______ _______ _____ _____    ______ ____
ROOT
ATOM      1  C   UNL     1       0.012   1.499   0.007  0.00  0.00    +0.066 C 
ATOM      2  C   UNL     1       0.054  -0.008  -0.000  0.00  0.00    +0.044 A 
ATOM      3  C   UNL     1       0.088  -0.703  -1.199  0.00  0.00    +0.046 A 
ATOM      4  C   UNL     1       0.126  -2.088  -1.160  0.00  0.00    +0.044 A 
ATOM      5  N   UNL     1       0.130  -2.701   0.012  0.00  0.00    -0.219 NA
ATOM      6  C   UNL     1       0.097  -2.006   1.139  0.00  0.00    +0.222 A 
ATOM      7  N   UNL     1       0.065  -0.682   1.137  0.00  0.00    -0.219 NA
ATOM      8  N   UNL     1       0.102  -2.682   2.352  0.00  0.00    -0.250 N 
ATOM      9  C   UNL     1       0.069  -1.991   3.508  0.00  0.00    +0.254 C 
ATOM     10  O   UNL     1       0.035  -0.776   3.490  0.00  0.00    -0.270 OA
ATOM     11  C   UNL     1       0.163  -2.886  -2.438  0.00  0.00    +0.066 C 
ATOM     12  H   UNL     1       0.129  -3.652   2.366  0.00  0.00    +0.158 HD
ENDROOT
BRANCH   9  13
ATOM     13  C   UNL     1       0.073  -2.709   4.795  0.00  0.00    +0.079 A 
ATOM     14  C   UNL     1      -0.012  -4.106   4.833  0.00  0.00    +0.033 A 
ATOM     15  C   UNL     1      -0.004  -4.732   6.067  0.00  0.00    +0.037 A 
ATOM     16  C   UNL     1       0.088  -3.968   7.218  0.00  0.00    +0.128 A 
ATOM     17  N   UNL     1       0.168  -2.653   7.161  0.00  0.00    -0.237 NA
ATOM     18  C   UNL     1       0.170  -2.004   6.007  0.00  0.00    +0.144 A 
ATOM     19 BR   UNL     1      -0.117  -6.616   6.181  0.00  0.00    -0.049 Br
BRANCH  18  20
ATOM     20  N   UNL     1       0.262  -0.624   5.995  0.00  0.00    -0.267 N 
ATOM     21  H   UNL     1       0.179  -0.140   5.158  0.00  0.00    +0.167 HD
BRANCH  20  22
ATOM     22  N   UNL     1       0.469   0.057   7.160  0.00  0.00    -0.255 NA
ATOM     23  H   UNL     1       1.302  -0.269   7.627  0.00  0.00    +0.140 HD
ATOM     24  H   UNL     1       0.513   1.052   6.995  0.00  0.00    +0.140 HD
ENDBRANCH  20  22
ENDBRANCH  18  20
ENDBRANCH   9  13
TORSDOF 3
