REMARK  Name = ZINC36702640
REMARK  7 active torsions:
REMARK  status: ('A' for Active; 'I' for Inactive)
REMARK    1  A    between atoms: C_1  and  C_2
REMARK    2  A    between atoms: N_10  and  C_14
REMARK    3  A    between atoms: C_14  and  C_15
REMARK    4  A    between atoms: N_17  and  C_18
REMARK    5  A    between atoms: C_18  and  C_19
REMARK    6  A    between atoms: C_19  and  C_21
REMARK    7  A    between atoms: C_19  and  N_28
REMARK                            x       y       z     vdW  Elec       q    Type
REMARK                         _______ _______ _______ _____ _____    ______ ____
ROOT
ATOM      1  C   UNL     1       3.241  -6.431  -1.296  0.00  0.00    +0.231 C 
ATOM      2  O   UNL     1       2.986  -5.613  -2.154  0.00  0.00    -0.274 OA
ATOM      3  N   UNL     1       3.779  -7.620  -1.637  0.00  0.00    -0.315 N 
ATOM      4  H   UNL     1       3.983  -8.274  -0.951  0.00  0.00    +0.149 HD
ENDROOT
BRANCH   1   5
ATOM      5  C   UNL     1       2.959  -6.119   0.150  0.00  0.00    +0.213 C 
BRANCH   5  15
ATOM      6  C   UNL     1      -0.698   0.973   0.680  0.00  0.00    +0.007 C 
ATOM      7  C   UNL     1      -0.609  -0.547   0.525  0.00  0.00    -0.014 C 
ATOM      8  C   UNL     1       0.212  -0.885  -0.721  0.00  0.00    +0.006 C 
ATOM      9  C   UNL     1       0.291  -2.405  -0.881  0.00  0.00    +0.035 C 
ATOM     10  C   UNL     1       0.939  -3.015   0.357  0.00  0.00    +0.113 C 
ATOM     11  C   UNL     1       0.142  -2.669   1.609  0.00  0.00    +0.035 C 
ATOM     12  C   UNL     1       0.064  -1.147   1.761  0.00  0.00    +0.006 C 
ATOM     13  C   UNL     1       1.059  -4.514   0.205  0.00  0.00    +0.247 C 
ATOM     14  O   UNL     1       0.157  -5.312   0.067  0.00  0.00    -0.273 OA
ATOM     15  N   UNL     1       2.381  -4.777   0.257  0.00  0.00    -0.215 N 
ATOM     16  C   UNL     1       3.100  -3.659   0.418  0.00  0.00    +0.310 C 
ATOM     17  O   UNL     1       4.313  -3.641   0.493  0.00  0.00    -0.252 OA
ATOM     18  N   UNL     1       2.329  -2.558   0.488  0.00  0.00    -0.285 N 
ATOM     19  H   UNL     1       2.631  -1.643   0.603  0.00  0.00    +0.151 HD
ENDBRANCH   5  15
ENDBRANCH   1   5
BRANCH   3  20
ATOM     20  C   UNL     1       4.053  -7.923  -3.044  0.00  0.00    +0.093 C 
BRANCH  20  21
ATOM     21  C   UNL     1       4.770  -9.271  -3.145  0.00  0.00    -0.019 C 
BRANCH  21  22
ATOM     22  C   UNL     1       3.845 -10.367  -2.680  0.00  0.00    -0.041 A 
ATOM     23  C   UNL     1       3.896 -10.805  -1.370  0.00  0.00    +0.003 A 
ATOM     24  C   UNL     1       3.049 -11.810  -0.944  0.00  0.00    +0.000 A 
ATOM     25  C   UNL     1       2.150 -12.378  -1.827  0.00  0.00    +0.001 A 
ATOM     26  C   UNL     1       2.098 -11.941  -3.137  0.00  0.00    +0.020 A 
ATOM     27  C   UNL     1       2.942 -10.931  -3.563  0.00  0.00    +0.043 A 
ATOM     28 CL   UNL     1       2.874 -10.377  -5.207  0.00  0.00    -0.083 Cl
ENDBRANCH  21  22
BRANCH  21  29
ATOM     29  N   UNL     1       5.970  -9.251  -2.299  0.00  0.00    +0.385 N 
ATOM     30  C   UNL     1       6.734 -10.515  -2.464  0.00  0.00    -0.078 C 
ATOM     31  C   UNL     1       8.162 -10.129  -2.004  0.00  0.00    -0.020 C 
ATOM     32  C   UNL     1       8.320  -8.687  -2.539  0.00  0.00    -0.020 C 
ATOM     33  C   UNL     1       6.882  -8.170  -2.732  0.00  0.00    -0.078 C 
ATOM     34  H   UNL     1       5.713  -9.123  -1.331  0.00  0.00    -0.081 HD
ENDBRANCH  21  29
ENDBRANCH  20  21
ENDBRANCH   3  20
TORSDOF 6
