REMARK  Name = ZINC39969621
REMARK  11 active torsions:
REMARK  status: ('A' for Active; 'I' for Inactive)
REMARK    1  A    between atoms: C_1  and  C_2
REMARK    2  A    between atoms: C_2  and  N_3
REMARK    3  A    between atoms: C_4  and  C_24
REMARK    4  A    between atoms: C_8  and  S_10
REMARK    5  A    between atoms: S_10  and  C_11
REMARK    6  A    between atoms: C_11  and  C_12
REMARK    7  A    between atoms: C_24  and  C_26
REMARK    8  A    between atoms: C_24  and  N_27
REMARK    9  A    between atoms: C_28  and  C_30
REMARK   10  A    between atoms: C_33  and  O_36
REMARK   11  A    between atoms: O_36  and  C_37
REMARK                            x       y       z     vdW  Elec       q    Type
REMARK                         _______ _______ _______ _____ _____    ______ ____
ROOT
ATOM      1  N   UNL     1      -1.376  -0.512   0.012  0.00  0.00    -0.260 NA
ATOM      2  C   UNL     1      -1.402  -1.977  -0.185  0.00  0.00    +0.160 C 
ATOM      3  N   UNL     1      -2.064  -2.551   1.008  0.00  0.00    -0.236 NA
ATOM      4  N   UNL     1      -2.884  -1.451   1.539  0.00  0.00    -0.229 NA
ATOM      5  C   UNL     1      -2.026  -0.257   1.319  0.00  0.00    +0.200 C 
ATOM      6  H   UNL     1      -1.383  -2.856   1.688  0.00  0.00    +0.142 HD
ATOM      7  H   UNL     1      -3.074  -1.583   2.522  0.00  0.00    +0.143 HD
ENDROOT
BRANCH   1   9
ATOM      8  C   UNL     1      -0.019   1.526   0.010  0.00  0.00    +0.020 C 
ATOM      9  C   UNL     1       0.002  -0.004   0.002  0.00  0.00    +0.085 C 
ENDBRANCH   1   9
BRANCH   2  10
ATOM     10  C   UNL     1      -2.198  -2.322  -1.445  0.00  0.00    +0.103 C 
ATOM     11  C   UNL     1      -1.542  -1.662  -2.660  0.00  0.00    +0.031 C 
BRANCH  10  12
ATOM     12  N   UNL     1      -2.215  -3.775  -1.629  0.00  0.00    -0.306 N 
ATOM     13  C   UNL     1      -3.216  -4.355  -2.322  0.00  0.00    +0.244 C 
ATOM     14  O   UNL     1      -4.103  -3.672  -2.794  0.00  0.00    -0.270 OA
ATOM     15  H   UNL     1      -1.507  -4.321  -1.252  0.00  0.00    +0.149 HD
BRANCH  13  16
ATOM     16  C   UNL     1      -3.233  -5.819  -2.507  0.00  0.00    +0.037 A 
ATOM     17  C   UNL     1      -2.217  -6.607  -1.959  0.00  0.00    +0.016 A 
ATOM     18  C   UNL     1      -2.237  -7.973  -2.134  0.00  0.00    +0.046 A 
ATOM     19  C   UNL     1      -3.267  -8.568  -2.853  0.00  0.00    +0.120 A 
ATOM     20  C   UNL     1      -4.279  -7.788  -3.400  0.00  0.00    +0.046 A 
ATOM     21  C   UNL     1      -4.269  -6.422  -3.225  0.00  0.00    +0.016 A 
BRANCH  19  22
ATOM     22  O   UNL     1      -3.282  -9.914  -3.024  0.00  0.00    -0.495 OA
ATOM     23  C   UNL     1      -4.369 -10.460  -3.774  0.00  0.00    +0.277 C 
ENDBRANCH  19  22
ENDBRANCH  13  16
ENDBRANCH  10  12
ENDBRANCH   2  10
BRANCH   5  24
ATOM     24  S   UNL     1      -3.039   1.246   1.240  0.00  0.00    -0.117 S 
BRANCH  24  25
ATOM     25  C   UNL     1      -4.256   0.888  -0.057  0.00  0.00    +0.146 C 
BRANCH  25  26
ATOM     26  C   UNL     1      -5.173   2.072  -0.226  0.00  0.00    +0.120 A 
ATOM     27  N   UNL     1      -6.162   1.993  -1.154  0.00  0.00    -0.310 N 
ATOM     28  H   UNL     1      -6.261   1.187  -1.685  0.00  0.00    +0.170 HD
ATOM     29  C   UNL     1      -7.012   3.029  -1.344  0.00  0.00    +0.259 A 
ATOM     30  O   UNL     1      -7.904   2.972  -2.171  0.00  0.00    -0.267 OA
ATOM     31  C   UNL     1      -6.818   4.226  -0.512  0.00  0.00    +0.065 A 
ATOM     32  C   UNL     1      -7.638   5.346  -0.629  0.00  0.00    +0.015 A 
ATOM     33  C   UNL     1      -7.410   6.441   0.175  0.00  0.00    +0.001 A 
ATOM     34  C   UNL     1      -6.373   6.436   1.099  0.00  0.00    +0.002 A 
ATOM     35  C   UNL     1      -5.551   5.339   1.230  0.00  0.00    +0.028 A 
ATOM     36  C   UNL     1      -5.762   4.217   0.426  0.00  0.00    +0.078 A 
ATOM     37  N   UNL     1      -4.980   3.112   0.526  0.00  0.00    -0.233 NA
ENDBRANCH  25  26
ENDBRANCH  24  25
ENDBRANCH   5  24
TORSDOF 8
