REMARK  Name = ZINC15369378
REMARK  10 active torsions:
REMARK  status: ('A' for Active; 'I' for Inactive)
REMARK    1  A    between atoms: C_1  and  C_2
REMARK    2  A    between atoms: C_4  and  N_11
REMARK    3  A    between atoms: C_5  and  O_9
REMARK    4  A    between atoms: O_9  and  C_10
REMARK    5  A    between atoms: C_12  and  C_14
REMARK    6  A    between atoms: C_14  and  C_16
REMARK    7  A    between atoms: C_14  and  N_17
REMARK    8  A    between atoms: C_18  and  C_26
REMARK    9  A    between atoms: C_19  and  N_23
REMARK   10  A    between atoms: C_20  and  C_22
REMARK                            x       y       z     vdW  Elec       q    Type
REMARK                         _______ _______ _______ _____ _____    ______ ____
ROOT
ATOM      1  N   UNL     1       0.002  -0.004   0.002  0.00  0.00    -0.281 N 
ATOM      2  C   UNL     1      -1.150  -0.694   0.111  0.00  0.00    +0.242 C 
ATOM      3  O   UNL     1      -2.211  -0.106   0.124  0.00  0.00    -0.273 OA
ATOM      4  H   UNL     1       0.845  -0.477  -0.074  0.00  0.00    +0.155 HD
ENDROOT
BRANCH   1   8
ATOM      5  C   UNL     1      -2.245   4.194  -1.228  0.00  0.00    +0.045 C 
ATOM      6  C   UNL     1      -1.094   3.458  -0.591  0.00  0.00    -0.030 A 
ATOM      7  C   UNL     1      -1.074   2.076  -0.592  0.00  0.00    +0.031 A 
ATOM      8  C   UNL     1      -0.018   1.397  -0.002  0.00  0.00    +0.076 A 
ATOM      9  C   UNL     1       1.026   2.112   0.583  0.00  0.00    +0.143 A 
ATOM     10  C   UNL     1       1.001   3.497   0.576  0.00  0.00    +0.067 A 
ATOM     11  C   UNL     1      -0.058   4.168  -0.010  0.00  0.00    +0.047 A 
ATOM     12 CL   UNL     1      -0.086   5.904  -0.018  0.00  0.00    -0.083 Cl
BRANCH   9  13
ATOM     13  O   UNL     1       2.065   1.452   1.158  0.00  0.00    -0.493 OA
ATOM     14  C   UNL     1       3.100   2.250   1.738  0.00  0.00    +0.277 C 
ENDBRANCH   9  13
ENDBRANCH   1   8
BRANCH   2  15
ATOM     15  C   UNL     1      -1.121  -2.197   0.216  0.00  0.00    +0.190 C 
ATOM     16  C   UNL     1      -0.327  -2.607   1.458  0.00  0.00    +0.042 C 
BRANCH  15  17
ATOM     17  N   UNL     1      -2.491  -2.706   0.324  0.00  0.00    -0.254 N 
ATOM     18  C   UNL     1      -3.091  -3.558  -0.533  0.00  0.00    +0.067 A 
ATOM     19  C   UNL     1      -4.348  -3.780  -0.083  0.00  0.00    +0.169 A 
ATOM     20  C   UNL     1      -4.522  -3.038   1.090  0.00  0.00    +0.090 A 
ATOM     21  N   UNL     1      -3.408  -2.397   1.337  0.00  0.00    -0.173 NA
ATOM     22  C   UNL     1      -5.774  -2.989   1.927  0.00  0.00    +0.070 C 
ATOM     23  C   UNL     1      -2.473  -4.156  -1.771  0.00  0.00    +0.068 C 
BRANCH  19  24
ATOM     24  N   UNL     1      -5.359  -4.654  -0.718  0.00  0.00    +0.060 N 
ATOM     25  O   UNL     1      -5.427  -5.831  -0.410  0.00  0.00    -0.126 OA
ATOM     26  O   UNL     1      -6.124  -4.197  -1.549  0.00  0.00    -0.126 OA
ENDBRANCH  19  24
ENDBRANCH  15  17
ENDBRANCH   2  15
TORSDOF 5
