REMARK  Name = ZINC04987496
REMARK  9 active torsions:
REMARK  status: ('A' for Active; 'I' for Inactive)
REMARK    1  A    between atoms: C_1  and  C_2
REMARK    2  A    between atoms: C_2  and  C_3
REMARK    3  A    between atoms: C_2  and  O_4
REMARK    4  A    between atoms: O_4  and  C_5
REMARK    5  A    between atoms: C_8  and  C_13
REMARK    6  A    between atoms: C_10  and  O_11
REMARK    7  A    between atoms: O_11  and  C_12
REMARK    8  A    between atoms: C_18  and  C_24
REMARK    9  A    between atoms: C_27  and  O_30
REMARK                            x       y       z     vdW  Elec       q    Type
REMARK                         _______ _______ _______ _____ _____    ______ ____
ROOT
ATOM      1  C   UNL     1       2.359   4.227  -0.881  0.00  0.00    +0.032 C 
ATOM      2  C   UNL     1       2.284   4.920  -2.243  0.00  0.00    +0.059 C 
ATOM      3  C   UNL     1       3.535   5.734  -2.466  0.00  0.00    +0.018 C 
ATOM      4  C   UNL     1       4.196   6.285  -1.427  0.00  0.00    +0.020 C 
ATOM      5  C   UNL     1       5.442   7.102  -1.676  0.00  0.00    +0.063 C 
ATOM      6  C   UNL     1       6.214   6.505  -2.853  0.00  0.00    +0.109 C 
ATOM      7  C   UNL     1       5.262   6.260  -3.995  0.00  0.00    +0.218 C 
ATOM      8  O   UNL     1       5.645   6.384  -5.139  0.00  0.00    -0.275 OA
ATOM      9  N   UNL     1       3.989   5.905  -3.749  0.00  0.00    -0.289 N 
ATOM     10  C   UNL     1       3.752   6.116  -0.105  0.00  0.00    +0.162 C 
ATOM     11  O   UNL     1       4.366   6.639   0.804  0.00  0.00    -0.292 OA
ATOM     12  C   UNL     1       2.529   5.293   0.206  0.00  0.00    +0.088 C 
ATOM     13  H   UNL     1       3.381   5.768  -4.492  0.00  0.00    +0.155 HD
ENDROOT
BRANCH   1  17
ATOM     14  C   UNL     1      -1.251   2.039  -0.194  0.00  0.00    +0.162 A 
ATOM     15  C   UNL     1      -1.295   3.409  -0.392  0.00  0.00    +0.050 A 
ATOM     16  C   UNL     1      -0.127   4.114  -0.616  0.00  0.00    +0.008 A 
ATOM     17  C   UNL     1       1.088   3.454  -0.636  0.00  0.00    -0.040 A 
ATOM     18  C   UNL     1       1.140   2.088  -0.433  0.00  0.00    +0.053 A 
ATOM     19  C   UNL     1      -0.028   1.376  -0.209  0.00  0.00    +0.162 A 
BRANCH  19  20
ATOM     20  O   UNL     1       0.022   0.032  -0.009  0.00  0.00    -0.491 OA
ATOM     21  C   UNL     1       1.311  -0.583  -0.044  0.00  0.00    +0.277 C 
ENDBRANCH  19  20
BRANCH  14  22
ATOM     22  O   UNL     1      -2.400   1.344   0.021  0.00  0.00    -0.486 OA
BRANCH  22  24
ATOM     23  C   UNL     1      -4.175   2.390  -1.242  0.00  0.00    +0.051 C 
ATOM     24  C   UNL     1      -3.604   2.103   0.148  0.00  0.00    +0.167 C 
ATOM     25  C   UNL     1      -4.625   1.309   0.965  0.00  0.00    +0.051 C 
ENDBRANCH  22  24
ENDBRANCH  14  22
ENDBRANCH   1  17
BRANCH   5  26
ATOM     26  C   UNL     1       5.054   8.523  -1.997  0.00  0.00    -0.039 A 
ATOM     27  C   UNL     1       4.260   8.790  -3.096  0.00  0.00    +0.008 A 
ATOM     28  C   UNL     1       3.899  10.091  -3.390  0.00  0.00    +0.045 A 
ATOM     29  C   UNL     1       4.343  11.130  -2.587  0.00  0.00    +0.117 A 
ATOM     30  C   UNL     1       5.146  10.861  -1.487  0.00  0.00    +0.045 A 
ATOM     31  C   UNL     1       5.499   9.558  -1.195  0.00  0.00    +0.008 A 
BRANCH  29  32
ATOM     32  O   UNL     1       3.994  12.412  -2.876  0.00  0.00    -0.507 OA
ATOM     33  H   UNL     1       4.613  12.865  -3.465  0.00  0.00    +0.292 HD
ENDBRANCH  29  32
ENDBRANCH   5  26
TORSDOF 6
