REMARK  Name = ZINC03430882
REMARK  6 active torsions:
REMARK  status: ('A' for Active; 'I' for Inactive)
REMARK    1  A    between atoms: C_1  and  O_2
REMARK    2  A    between atoms: O_2  and  C_3
REMARK    3  A    between atoms: C_8  and  C_9
REMARK    4  A    between atoms: C_9  and  N_10
REMARK    5  A    between atoms: C_11  and  C_13
REMARK    6  A    between atoms: C_13  and  N_14
REMARK                            x       y       z     vdW  Elec       q    Type
REMARK                         _______ _______ _______ _____ _____    ______ ____
ROOT
ATOM      1  C   UNL     1      -0.013   1.086   0.008  0.00  0.00    +0.213 C 
ENDROOT
BRANCH   1   2
ATOM      2  N   UNL     1      -0.721   1.571  -1.179  0.00  0.00    -0.215 N 
ATOM      3  C   UNL     1      -0.456   2.740  -1.793  0.00  0.00    +0.247 C 
ATOM      4  O   UNL     1       0.381   3.558  -1.476  0.00  0.00    -0.273 OA
ATOM      5  C   UNL     1      -1.421   2.822  -2.963  0.00  0.00    +0.113 C 
ATOM      6  C   UNL     1      -0.594   2.756  -4.266  0.00  0.00    +0.035 C 
ATOM      7  C   UNL     1      -1.477   2.252  -5.374  0.00  0.00    +0.003 C 
ATOM      8  C   UNL     1      -2.125   3.393  -6.183  0.00  0.00    +0.000 C 
ATOM      9  C   UNL     1      -2.630   4.544  -5.292  0.00  0.00    +0.000 C 
ATOM     10  C   UNL     1      -3.308   4.046  -4.044  0.00  0.00    +0.003 C 
ATOM     11  C   UNL     1      -2.269   4.007  -2.908  0.00  0.00    +0.035 C 
ATOM     12  N   UNL     1      -2.193   1.567  -2.853  0.00  0.00    -0.285 N 
ATOM     13  C   UNL     1      -1.707   0.905  -1.790  0.00  0.00    +0.310 C 
ATOM     14  O   UNL     1      -2.120  -0.177  -1.421  0.00  0.00    -0.252 OA
ATOM     15  H   UNL     1      -2.909   1.276  -3.439  0.00  0.00    +0.151 HD
ENDBRANCH   1   2
BRANCH   1  17
ATOM     16  N   UNL     1      -0.242   1.246   2.466  0.00  0.00    -0.310 N 
ATOM     17  C   UNL     1      -0.718   1.572   1.248  0.00  0.00    +0.231 C 
ATOM     18  O   UNL     1      -1.714   2.256   1.150  0.00  0.00    -0.274 OA
ATOM     19  H   UNL     1       0.555   0.699   2.544  0.00  0.00    +0.149 HD
BRANCH  16  20
ATOM     20  C   UNL     1      -0.927   1.718   3.671  0.00  0.00    +0.143 C 
BRANCH  20  26
ATOM     21  C   UNL     1       0.946   1.868   5.331  0.00  0.00    +0.125 A 
ATOM     22  C   UNL     1       1.615   1.407   6.456  0.00  0.00    +0.046 A 
ATOM     23  C   UNL     1       1.139   0.302   7.135  0.00  0.00    +0.004 A 
ATOM     24  C   UNL     1      -0.002  -0.343   6.696  0.00  0.00    +0.001 A 
ATOM     25  C   UNL     1      -0.673   0.118   5.578  0.00  0.00    +0.009 A 
ATOM     26  C   UNL     1      -0.198   1.219   4.892  0.00  0.00    +0.011 A 
BRANCH  21  28
ATOM     27  C   UNL     1       2.595   3.573   5.170  0.00  0.00    +0.277 C 
ATOM     28  O   UNL     1       1.412   2.955   4.661  0.00  0.00    -0.495 OA
ENDBRANCH  21  28
ENDBRANCH  20  26
ENDBRANCH  16  20
ENDBRANCH   1  17
TORSDOF 5
