REMARK  Name = ZINC27865510
REMARK  5 active torsions:
REMARK  status: ('A' for Active; 'I' for Inactive)
REMARK    1  A    between atoms: C_1  and  C_2
REMARK    2  A    between atoms: C_2  and  C_4
REMARK    3  A    between atoms: C_2  and  N_10
REMARK    4  A    between atoms: C_11  and  C_13
REMARK    5  A    between atoms: C_14  and  C_15
REMARK                            x       y       z     vdW  Elec       q    Type
REMARK                         _______ _______ _______ _____ _____    ______ ____
ROOT
ATOM      1  C   UNL     1       6.094   3.405   0.015  0.00  0.00    +0.068 C 
ATOM      2  C   UNL     1       5.509   2.227  -0.288  0.00  0.00    +0.013 C 
ENDROOT
BRANCH   2   3
ATOM      3  C   UNL     1       4.050   2.084  -0.189  0.00  0.00    -0.020 A 
ATOM      4  C   UNL     1       3.441   0.863  -0.502  0.00  0.00    +0.057 A 
ATOM      5  C   UNL     1       2.069   0.733  -0.408  0.00  0.00    +0.168 A 
ATOM      6  C   UNL     1       1.292   1.819  -0.001  0.00  0.00    +0.184 A 
ATOM      7  C   UNL     1       1.896   3.030   0.311  0.00  0.00    +0.087 A 
ATOM      8  C   UNL     1       3.264   3.168   0.219  0.00  0.00    +0.031 A 
ATOM      9 CL   UNL     1       0.924   4.377   0.817  0.00  0.00    -0.080 Cl
ATOM     10  O   UNL     1      -0.017   1.435   0.010  0.00  0.00    -0.451 OA
ATOM     11  C   UNL     1       0.002  -0.004   0.002  0.00  0.00    +0.466 C 
ATOM     12  O   UNL     1       1.244  -0.327  -0.651  0.00  0.00    -0.453 OA
ENDBRANCH   2   3
BRANCH   1  14
ATOM     13  N   UNL     1       8.131   4.723   0.219  0.00  0.00    -0.307 N 
ATOM     14  C   UNL     1       7.546   3.547  -0.083  0.00  0.00    +0.237 C 
ATOM     15  O   UNL     1       8.228   2.602  -0.438  0.00  0.00    -0.271 OA
ATOM     16  H   UNL     1       7.515   5.577   0.539  0.00  0.00    +0.149 HD
BRANCH  13  18
ATOM     17  C   UNL     1       9.968   5.213  -1.320  0.00  0.00    +0.030 C 
ATOM     18  C   UNL     1       9.585   4.865   0.120  0.00  0.00    +0.099 C 
BRANCH  18  19
ATOM     19  C   UNL     1      10.053   5.982   1.056  0.00  0.00    +0.138 C 
ATOM     20  C   UNL     1      11.592   6.056   1.054  0.00  0.00    +0.035 C 
ATOM     21  C   UNL     1      11.902   7.501   0.591  0.00  0.00    +0.031 C 
ATOM     22  C   UNL     1      10.572   8.234   0.902  0.00  0.00    +0.160 C 
ATOM     23  O   UNL     1       9.563   7.250   0.587  0.00  0.00    -0.375 OA
ENDBRANCH  18  19
ENDBRANCH  13  18
ENDBRANCH   1  14
TORSDOF 4
