REMARK  Name = ZINC02969533
REMARK  7 active torsions:
REMARK  status: ('A' for Active; 'I' for Inactive)
REMARK    1  A    between atoms: C_1  and  C_2
REMARK    2  A    between atoms: C_2  and  C_3
REMARK    3  A    between atoms: C_3  and  C_4
REMARK    4  A    between atoms: C_4  and  C_5
REMARK    5  A    between atoms: C_5  and  C_21
REMARK    6  A    between atoms: C_10  and  C_11
REMARK    7  A    between atoms: C_14  and  O_17
REMARK                            x       y       z     vdW  Elec       q    Type
REMARK                         _______ _______ _______ _____ _____    ______ ____
ROOT
ATOM      1  C   UNL     1      -0.060   1.214   2.916  0.00  0.00    +0.257 C 
ATOM      2  O   UNL     1       1.296   1.742   2.950  0.00  0.00    -0.419 OA
ATOM      3  C   UNL     1       2.136   1.139   3.836  0.00  0.00    +0.349 C 
ATOM      4  O   UNL     1       2.865   1.770   4.577  0.00  0.00    -0.245 OA
ATOM      5  C   UNL     1       2.097  -0.348   3.832  0.00  0.00    +0.143 C 
ATOM      6  C   UNL     1       3.216  -1.126   4.056  0.00  0.00    +0.030 C 
ATOM      7  C   UNL     1       0.753  -0.928   3.569  0.00  0.00    +0.349 C 
ATOM      8  O   UNL     1       0.372  -1.955   4.095  0.00  0.00    -0.245 OA
ATOM      9  O   UNL     1      -0.021  -0.225   2.695  0.00  0.00    -0.419 OA
ATOM     10  C   UNL     1      -0.753   1.506   4.248  0.00  0.00    +0.104 C 
ENDROOT
BRANCH   6  11
ATOM     11  C   UNL     1       4.536  -0.501   4.140  0.00  0.00    -0.024 A 
ATOM     12  C   UNL     1       4.821   0.648   3.386  0.00  0.00    +0.011 A 
ATOM     13  C   UNL     1       6.054   1.228   3.472  0.00  0.00    +0.046 A 
ATOM     14  C   UNL     1       7.030   0.678   4.298  0.00  0.00    +0.117 A 
ATOM     15  C   UNL     1       6.755  -0.464   5.044  0.00  0.00    +0.046 A 
ATOM     16  C   UNL     1       5.524  -1.052   4.970  0.00  0.00    +0.011 A 
BRANCH  14  17
ATOM     17  O   UNL     1       8.254   1.256   4.375  0.00  0.00    -0.507 OA
ATOM     18  H   UNL     1       8.890   0.920   3.728  0.00  0.00    +0.292 HD
ENDBRANCH  14  17
ENDBRANCH   6  11
BRANCH   1  19
ATOM     19  C   UNL     1      -0.838   1.882   1.780  0.00  0.00    +0.093 C 
BRANCH  19  20
ATOM     20  C   UNL     1      -0.146   1.591   0.448  0.00  0.00    +0.007 C 
BRANCH  20  22
ATOM     21  C   UNL     1      -0.232   1.967  -2.021  0.00  0.00    +0.004 C 
ATOM     22  C   UNL     1      -0.924   2.258  -0.688  0.00  0.00    -0.003 C 
ENDBRANCH  20  22
ENDBRANCH  19  20
ENDBRANCH   1  19
TORSDOF 5
