REMARK  Name = ZINC10716123
REMARK  6 active torsions:
REMARK  status: ('A' for Active; 'I' for Inactive)
REMARK    1  A    between atoms: C_1  and  C_2
REMARK    2  A    between atoms: C_5  and  N_11
REMARK    3  A    between atoms: C_6  and  N_8
REMARK    4  A    between atoms: C_12  and  C_14
REMARK    5  A    between atoms: C_14  and  S_15
REMARK    6  A    between atoms: S_15  and  C_16
REMARK                            x       y       z     vdW  Elec       q    Type
REMARK                         _______ _______ _______ _____ _____    ______ ____
ROOT
ATOM      1  N   UNL     1      -1.071   1.975  -0.022  0.00  0.00    -0.283 N 
ATOM      2  C   UNL     1      -2.193   1.240  -0.160  0.00  0.00    +0.228 C 
ATOM      3  O   UNL     1      -2.125   0.030  -0.196  0.00  0.00    -0.275 OA
ATOM      4  H   UNL     1      -1.139   3.066   0.102  0.00  0.00    +0.155 HD
ENDROOT
BRANCH   1   9
ATOM      5  C   UNL     1       4.008  -0.551  -0.100  0.00  0.00    +0.044 C 
ATOM      6  C   UNL     1       2.658   0.119  -0.077  0.00  0.00    -0.048 A 
ATOM      7  C   UNL     1       1.581  -0.478  -0.707  0.00  0.00    +0.005 A 
ATOM      8  C   UNL     1       0.343   0.134  -0.689  0.00  0.00    +0.026 A 
ATOM      9  C   UNL     1       0.181   1.349  -0.037  0.00  0.00    +0.064 A 
ATOM     10  C   UNL     1       1.264   1.946   0.594  0.00  0.00    +0.148 A 
ATOM     11  C   UNL     1       2.500   1.329   0.572  0.00  0.00    +0.038 A 
BRANCH  10  12
ATOM     12  N   UNL     1       1.095   3.241   1.289  0.00  0.00    +0.058 N 
ATOM     13  O   UNL     1       2.063   3.812   1.759  0.00  0.00    -0.126 OA
ATOM     14  O   UNL     1      -0.013   3.738   1.391  0.00  0.00    -0.126 OA
ENDBRANCH  10  12
ENDBRANCH   1   9
BRANCH   2  15
ATOM     15  C   UNL     1      -3.531   1.924  -0.271  0.00  0.00    +0.173 C 
BRANCH  15  16
ATOM     16  S   UNL     1      -4.835   0.674  -0.446  0.00  0.00    -0.075 S 
BRANCH  16  17
ATOM     17  C   UNL     1      -6.318   1.619  -0.562  0.00  0.00    +0.210 A 
ATOM     18  N   UNL     1      -7.581   1.117  -0.711  0.00  0.00    -0.188 NA
ATOM     19  H   UNL     1      -8.052   4.335  -0.650  0.00  0.00    +0.192 HD
ATOM     20  C   UNL     1      -8.450   2.170  -0.764  0.00  0.00    +0.209 A 
ATOM     21  N   UNL     1      -7.754   3.275  -0.653  0.00  0.00    -0.246 N 
ATOM     22  N   UNL     1      -6.404   2.926  -0.520  0.00  0.00    -0.144 NA
ATOM     23  N   UNL     1      -9.828   2.084  -0.911  0.00  0.00    -0.328 N 
ATOM     24  H   UNL     1     -10.436   3.001  -0.942  0.00  0.00    +0.145 HD
ATOM     25  H   UNL     1     -10.312   1.100  -0.996  0.00  0.00    +0.145 HD
ENDBRANCH  16  17
ENDBRANCH  15  16
ENDBRANCH   2  15
TORSDOF 5
