REMARK  Name = ZINC00177111
REMARK  6 active torsions:
REMARK  status: ('A' for Active; 'I' for Inactive)
REMARK    1  A    between atoms: C_1  and  C_2
REMARK    2  A    between atoms: C_2  and  O_3
REMARK    3  A    between atoms: O_3  and  C_4
REMARK    4  A    between atoms: C_9  and  C_15
REMARK    5  A    between atoms: N_17  and  C_18
REMARK    6  A    between atoms: C_21  and  C_24
REMARK                            x       y       z     vdW  Elec       q    Type
REMARK                         _______ _______ _______ _____ _____    ______ ____
ROOT
ATOM      1  C   UNL     1       2.239   4.187  -0.035  0.00  0.00    +0.124 A 
ATOM      2  C   UNL     1       3.480   3.551  -0.053  0.00  0.00    +0.046 A 
ATOM      3  C   UNL     1       3.558   2.191  -0.054  0.00  0.00    +0.015 A 
ATOM      4  C   UNL     1       2.382   1.421  -0.037  0.00  0.00    +0.019 A 
ATOM      5  C   UNL     1       2.458   0.008  -0.038  0.00  0.00    +0.031 A 
ATOM      6  C   UNL     1       1.280  -0.723  -0.021  0.00  0.00    +0.122 A 
ATOM      7  C   UNL     1       0.002  -0.004  -0.002  0.00  0.00    +0.350 A 
ATOM      8  O   UNL     1      -1.044  -0.625   0.013  0.00  0.00    -0.244 OA
ATOM      9  O   UNL     1      -0.016   1.340  -0.002  0.00  0.00    -0.422 OA
ATOM     10  C   UNL     1       1.127   2.059  -0.019  0.00  0.00    +0.143 A 
ATOM     11  C   UNL     1       1.069   3.446  -0.018  0.00  0.00    +0.092 A 
ENDROOT
BRANCH   6  12
ATOM     12  C   UNL     1       1.312  -2.194  -0.021  0.00  0.00    +0.255 C 
ATOM     13  O   UNL     1       0.272  -2.825  -0.005  0.00  0.00    -0.270 OA
ATOM     14  N   UNL     1       2.493  -2.842  -0.038  0.00  0.00    -0.281 N 
ATOM     15  H   UNL     1       3.320  -2.342  -0.118  0.00  0.00    +0.155 HD
BRANCH  14  16
ATOM     16  C   UNL     1       2.527  -4.237   0.060  0.00  0.00    +0.034 A 
ATOM     17  C   UNL     1       3.565  -4.863   0.738  0.00  0.00    +0.023 A 
ATOM     18  C   UNL     1       3.592  -6.240   0.837  0.00  0.00    +0.005 A 
ATOM     19  C   UNL     1       2.593  -6.997   0.253  0.00  0.00    -0.050 A 
ATOM     20  C   UNL     1       1.560  -6.377  -0.427  0.00  0.00    +0.005 A 
ATOM     21  C   UNL     1       1.524  -5.000  -0.526  0.00  0.00    +0.023 A 
ATOM     22  C   UNL     1       2.629  -8.499   0.358  0.00  0.00    +0.044 C 
ENDBRANCH  14  16
ENDBRANCH   6  12
BRANCH   1  23
ATOM     23  O   UNL     1       2.178   5.543  -0.035  0.00  0.00    -0.492 OA
BRANCH  23  25
ATOM     24  C   UNL     1       3.151   7.755  -0.050  0.00  0.00    +0.048 C 
ATOM     25  C   UNL     1       3.420   6.248  -0.053  0.00  0.00    +0.225 C 
ENDBRANCH  23  25
ENDBRANCH   1  23
TORSDOF 4
