REMARK  Name = ZINC14748451
REMARK  10 active torsions:
REMARK  status: ('A' for Active; 'I' for Inactive)
REMARK    1  A    between atoms: C_1  and  C_2
REMARK    2  A    between atoms: C_2  and  C_3
REMARK    3  A    between atoms: C_2  and  N_4
REMARK    4  A    between atoms: N_4  and  S_5
REMARK    5  A    between atoms: S_5  and  C_8
REMARK    6  A    between atoms: C_10  and  C_19
REMARK    7  A    between atoms: C_12  and  N_14
REMARK    8  A    between atoms: N_14  and  C_15
REMARK    9  A    between atoms: C_15  and  C_16
REMARK   10  A    between atoms: N_21  and  C_22
REMARK                            x       y       z     vdW  Elec       q    Type
REMARK                         _______ _______ _______ _____ _____    ______ ____
ROOT
ATOM      1  C   UNL     1       6.453  -0.704  -2.984  0.00  0.00    +0.108 A 
ATOM      2  C   UNL     1       6.148  -0.191  -4.229  0.00  0.00    +0.041 A 
ATOM      3  C   UNL     1       4.921   0.439  -4.442  0.00  0.00    +0.040 A 
ATOM      4  C   UNL     1       4.007   0.549  -3.394  0.00  0.00    +0.036 A 
ATOM      5  C   UNL     1       4.322   0.030  -2.148  0.00  0.00    +0.030 A 
ATOM      6  C   UNL     1       5.550  -0.591  -1.944  0.00  0.00    +0.051 A 
ENDROOT
BRANCH   3   7
ATOM      7  C   UNL     1       4.592   0.989  -5.774  0.00  0.00    +0.245 C 
ATOM      8  O   UNL     1       5.390   0.893  -6.686  0.00  0.00    -0.270 OA
ATOM      9  N   UNL     1       3.406   1.597  -5.978  0.00  0.00    -0.300 N 
ATOM     10  H   UNL     1       2.769   1.674  -5.251  0.00  0.00    +0.150 HD
BRANCH   9  11
ATOM     11  C   UNL     1       3.080   2.142  -7.298  0.00  0.00    +0.159 C 
ATOM     12  C   UNL     1       1.560   2.223  -7.460  0.00  0.00    +0.032 C 
ATOM     13  C   UNL     1       1.173   2.190  -8.928  0.00  0.00    +0.004 C 
ATOM     14  C   UNL     1       1.618   3.414  -9.707  0.00  0.00    +0.019 C 
ATOM     15  C   UNL     1       3.143   3.470  -9.810  0.00  0.00    +0.104 C 
ATOM     16  N   UNL     1       3.671   4.148  -8.614  0.00  0.00    -0.314 N 
ATOM     17  C   UNL     1       3.652   3.538  -7.428  0.00  0.00    +0.233 C 
ATOM     18  O   UNL     1       4.094   4.104  -6.451  0.00  0.00    -0.274 OA
ATOM     19  H   UNL     1       4.035   5.044  -8.689  0.00  0.00    +0.149 HD
ENDBRANCH   9  11
ENDBRANCH   3   7
BRANCH   1  20
ATOM     20  S   UNL     1       8.003  -1.499  -2.718  0.00  0.00    +0.059 S 
ATOM     21  O   UNL     1       7.825  -2.376  -1.613  0.00  0.00    -0.153 OA
ATOM     22  O   UNL     1       8.448  -1.955  -3.988  0.00  0.00    -0.153 OA
BRANCH  20  23
ATOM     23  N   UNL     1       9.074  -0.334  -2.230  0.00  0.00    -0.187 NA
ATOM     24  H   UNL     1       9.834  -0.110  -2.790  0.00  0.00    +0.148 HD
BRANCH  23  26
ATOM     25  C   UNL     1      10.232   0.659  -0.319  0.00  0.00    +0.025 C 
ATOM     26  C   UNL     1       8.873   0.357  -0.954  0.00  0.00    +0.070 C 
ATOM     27  C   UNL     1       8.121   1.667  -1.197  0.00  0.00    +0.025 C 
ENDBRANCH  23  26
ENDBRANCH  20  23
ENDBRANCH   1  20
BRANCH   5  28
ATOM     28  N   UNL     1       3.410   0.137  -1.095  0.00  0.00    -0.344 N 
ATOM     29  H   UNL     1       3.631  -0.226  -0.223  0.00  0.00    +0.146 HD
BRANCH  28  30
ATOM     30  C   UNL     1       2.120   0.797  -1.308  0.00  0.00    +0.105 C 
BRANCH  30  31
ATOM     31  C   UNL     1       1.317   0.779  -0.006  0.00  0.00    +0.006 C 
ATOM     32  C   UNL     1      -0.019   1.526   0.010  0.00  0.00    +0.005 C 
ATOM     33  C   UNL     1       0.002  -0.004   0.002  0.00  0.00    +0.005 C 
ENDBRANCH  30  31
ENDBRANCH  28  30
ENDBRANCH   5  28
TORSDOF 8
