REMARK  Name = ZINC39674531
REMARK  12 active torsions:
REMARK  status: ('A' for Active; 'I' for Inactive)
REMARK    1  A    between atoms: C_1  and  C_2
REMARK    2  A    between atoms: C_4  and  C_9
REMARK    3  A    between atoms: C_5  and  C_8
REMARK    4  A    between atoms: C_9  and  C_11
REMARK    5  A    between atoms: C_9  and  N_12
REMARK    6  A    between atoms: C_13  and  C_15
REMARK    7  A    between atoms: C_26  and  C_28
REMARK    8  A    between atoms: C_28  and  C_30
REMARK    9  A    between atoms: C_28  and  O_33
REMARK   10  A    between atoms: C_30  and  C_31
REMARK   11  A    between atoms: C_30  and  C_32
REMARK   12  A    between atoms: O_33  and  C_34
REMARK                            x       y       z     vdW  Elec       q    Type
REMARK                         _______ _______ _______ _____ _____    ______ ____
ROOT
ATOM      1  C   UNL     1      -3.642  -0.146  -5.897  0.00  0.00    +0.100 C 
ATOM      2  C   UNL     1      -3.913  -1.470  -5.147  0.00  0.00    +0.121 C 
ATOM      3  N   UNL     1      -4.601  -2.328  -6.141  0.00  0.00    -0.297 N 
ATOM      4  C   UNL     1      -3.901  -2.048  -7.418  0.00  0.00    +0.115 C 
ATOM      5  C   UNL     1      -3.634  -0.530  -7.386  0.00  0.00    -0.004 C 
ATOM      6  C   UNL     1      -2.274  -0.221  -8.005  0.00  0.00    -0.010 C 
ATOM      7  C   UNL     1      -2.309  -0.556  -9.498  0.00  0.00    -0.082 C 
ATOM      8  N   UNL     1      -3.358   0.234 -10.154  0.00  0.00    +0.379 N 
ATOM      9  C   UNL     1      -4.674  -0.137  -9.618  0.00  0.00    -0.082 C 
ATOM     10  C   UNL     1      -4.738   0.216  -8.130  0.00  0.00    -0.010 C 
ATOM     11  C   UNL     1      -5.630  -3.173  -5.931  0.00  0.00    +0.257 C 
ATOM     12  O   UNL     1      -6.024  -3.884  -6.830  0.00  0.00    -0.272 OA
ATOM     13  H   UNL     1      -3.193   1.215  -9.987  0.00  0.00    -0.086 HD
ATOM     14  H   UNL     1      -3.339   0.057 -11.148  0.00  0.00    -0.086 HD
ENDROOT
BRANCH   1  16
ATOM     15  N   UNL     1      -2.069   1.742  -5.615  0.00  0.00    -0.309 N 
ATOM     16  C   UNL     1      -2.305   0.420  -5.494  0.00  0.00    +0.219 C 
ATOM     17  O   UNL     1      -1.441  -0.313  -5.062  0.00  0.00    -0.275 OA
ATOM     18  H   UNL     1      -2.760   2.328  -5.961  0.00  0.00    +0.149 HD
BRANCH  15  19
ATOM     19  C   UNL     1      -0.769   2.293  -5.223  0.00  0.00    +0.100 C 
ATOM     20  C   UNL     1       0.213   2.160  -6.389  0.00  0.00    +0.033 C 
BRANCH  19  23
ATOM     21  C   UNL     1      -0.689   5.059  -6.988  0.00  0.00    +0.039 C 
ATOM     22  C   UNL     1      -1.512   4.863  -5.713  0.00  0.00    +0.154 C 
ATOM     23  C   UNL     1      -0.928   3.748  -4.864  0.00  0.00    -0.001 C 
ATOM     24  C   UNL     1      -0.589   4.355  -3.724  0.00  0.00    +0.063 C 
ATOM     25  N   UNL     1      -0.888   5.672  -3.775  0.00  0.00    -0.159 NA
ATOM     26  N   UNL     1      -1.404   6.042  -4.837  0.00  0.00    -0.180 NA
ATOM     27  C   UNL     1       0.041   3.665  -2.542  0.00  0.00    +0.067 C 
ENDBRANCH  19  23
ENDBRANCH  15  19
ENDBRANCH   1  16
BRANCH  11  28
ATOM     28  C   UNL     1      -6.290  -3.234  -4.577  0.00  0.00    +0.261 C 
BRANCH  28  29
ATOM     29  C   UNL     1      -7.435  -2.220  -4.522  0.00  0.00    +0.033 C 
ATOM     30  C   UNL     1      -8.115  -2.292  -3.154  0.00  0.00    +0.011 C 
ATOM     31  C   UNL     1      -6.879  -0.811  -4.742  0.00  0.00    +0.011 C 
ENDBRANCH  28  29
BRANCH  28  32
ATOM     32  O   UNL     1      -6.808  -4.548  -4.359  0.00  0.00    -0.479 OA
BRANCH  32  33
ATOM     33  C   UNL     1      -6.724  -5.041  -3.095  0.00  0.00    +0.122 A 
ATOM     34  C   UNL     1      -7.189  -6.318  -2.815  0.00  0.00    +0.045 A 
ATOM     35  C   UNL     1      -7.103  -6.817  -1.530  0.00  0.00    +0.004 A 
ATOM     36  C   UNL     1      -6.553  -6.046  -0.523  0.00  0.00    +0.000 A 
ATOM     37  C   UNL     1      -6.089  -4.773  -0.799  0.00  0.00    +0.004 A 
ATOM     38  C   UNL     1      -6.168  -4.271  -2.084  0.00  0.00    +0.045 A 
ENDBRANCH  32  33
ENDBRANCH  28  32
ENDBRANCH  11  28
TORSDOF 7
