REMARK  Name = ZINC39451504
REMARK  4 active torsions:
REMARK  status: ('A' for Active; 'I' for Inactive)
REMARK    1  A    between atoms: C_1  and  C_2
REMARK    2  A    between atoms: C_2  and  O_3
REMARK    3  A    between atoms: O_3  and  C_4
REMARK    4  A    between atoms: N_10  and  C_13
REMARK                            x       y       z     vdW  Elec       q    Type
REMARK                         _______ _______ _______ _____ _____    ______ ____
ROOT
ATOM      1  C   UNL     1      -1.498  -1.847   0.006  0.00  0.00    +0.139 A 
ATOM      2  C   UNL     1      -2.772  -2.401   0.010  0.00  0.00    +0.062 A 
ATOM      3  C   UNL     1      -2.880  -3.792   0.003  0.00  0.00    +0.071 A 
ATOM      4  C   UNL     1      -1.706  -4.576  -0.006  0.00  0.00    +0.099 A 
ATOM      5  C   UNL     1      -1.847  -6.037  -0.012  0.00  0.00    +0.082 A 
ATOM      6  C   UNL     1      -3.109  -6.605  -0.012  0.00  0.00    +0.115 A 
ATOM      7  N   UNL     1      -4.250  -5.810   0.000  0.00  0.00    -0.268 N 
ATOM      8  C   UNL     1      -4.186  -4.466   0.007  0.00  0.00    +0.266 A 
ATOM      9  O   UNL     1      -5.210  -3.809   0.016  0.00  0.00    -0.267 OA
ATOM     10  C   UNL     1      -3.246  -8.011  -0.029  0.00  0.00    +0.184 C 
ATOM     11  O   UNL     1      -4.354  -8.508   0.021  0.00  0.00    -0.290 OA
ATOM     12  C   UNL     1      -2.033  -8.900  -0.108  0.00  0.00    +0.114 C 
ATOM     13  C   UNL     1      -0.844  -8.198   0.557  0.00  0.00    +0.141 C 
ATOM     14  N   UNL     1      -0.728  -6.847  -0.014  0.00  0.00    -0.329 N 
ATOM     15  I   UNL     1      -1.177  -8.063   2.689  0.00  0.00    -0.061 I 
ATOM     16  N   UNL     1      -0.512  -3.995  -0.009  0.00  0.00    -0.249 NA
ATOM     17  C   UNL     1      -0.385  -2.686  -0.009  0.00  0.00    +0.157 A 
ATOM     18  H   UNL     1       0.113  -6.533  -0.382  0.00  0.00    +0.147 HD
ENDROOT
BRANCH   7  19
ATOM     19  C   UNL     1      -5.506  -6.429   0.005  0.00  0.00    +0.097 A 
ATOM     20  C   UNL     1      -6.125  -6.738   1.208  0.00  0.00    +0.030 A 
ATOM     21  C   UNL     1      -7.365  -7.347   1.210  0.00  0.00    +0.002 A 
ATOM     22  C   UNL     1      -7.992  -7.651   0.015  0.00  0.00    +0.004 A 
ATOM     23  C   UNL     1      -7.382  -7.347  -1.188  0.00  0.00    +0.053 A 
ATOM     24  C   UNL     1      -6.141  -6.730  -1.198  0.00  0.00    +0.203 A 
ATOM     25  O   UNL     1      -5.542  -6.425  -2.380  0.00  0.00    -0.286 OA
ENDBRANCH   7  19
BRANCH   1  26
ATOM     26  O   UNL     1      -1.339  -0.499   0.012  0.00  0.00    -0.491 OA
BRANCH  26  28
ATOM     27  C   UNL     1      -0.019   1.526   0.010  0.00  0.00    +0.048 C 
ATOM     28  C   UNL     1       0.002  -0.004   0.002  0.00  0.00    +0.226 C 
ENDBRANCH  26  28
ENDBRANCH   1  26
TORSDOF 3
