REMARK  Name = ZINC04425457
REMARK  3 active torsions:
REMARK  status: ('A' for Active; 'I' for Inactive)
REMARK    1  A    between atoms: C_5  and  N_7
REMARK    2  A    between atoms: C_18  and  C_19
REMARK    3  A    between atoms: C_22  and  N_25
REMARK                            x       y       z     vdW  Elec       q    Type
REMARK                         _______ _______ _______ _____ _____    ______ ____
ROOT
ATOM      1  N   UNL     1       1.236  -2.082  -0.022  0.00  0.00    -0.203 N 
ATOM      2  C   UNL     1       1.254  -2.834   1.093  0.00  0.00    +0.258 C 
ATOM      3  O   UNL     1       1.112  -2.403   2.223  0.00  0.00    -0.269 OA
ATOM      4  C   UNL     1       1.456  -4.177   0.770  0.00  0.00    +0.081 C 
ATOM      5  H   UNL     1       2.057  -7.112  -0.222  0.00  0.00    +0.194 HD
ATOM      6  C   UNL     1       1.067  -4.247  -0.714  0.00  0.00    +0.272 C 
ATOM      7  C   UNL     1       1.237  -2.824  -1.153  0.00  0.00    +0.263 C 
ATOM      8  O   UNL     1       1.354  -2.421  -2.290  0.00  0.00    -0.271 OA
ATOM      9  O   UNL     1       2.055  -5.173  -1.189  0.00  0.00    -0.256 OA
ATOM     10  N   UNL     1       2.007  -6.148  -0.127  0.00  0.00    -0.264 N 
ATOM     11  C   UNL     1       1.877  -5.437   1.057  0.00  0.00    +0.080 C 
ENDROOT
BRANCH   1  16
ATOM     12  C   UNL     1      -0.017   1.377   0.010  0.00  0.00    +0.002 A 
ATOM     13  C   UNL     1       1.170   2.087   0.002  0.00  0.00    +0.002 A 
ATOM     14  C   UNL     1       2.380   1.417  -0.013  0.00  0.00    +0.022 A 
ATOM     15  C   UNL     1       2.405   0.035  -0.021  0.00  0.00    +0.063 A 
ATOM     16  C   UNL     1       1.214  -0.681  -0.014  0.00  0.00    +0.063 A 
ATOM     17  C   UNL     1       0.002  -0.004   0.002  0.00  0.00    +0.025 A 
ATOM     18 CL   UNL     1       3.924  -0.806  -0.041  0.00  0.00    -0.082 Cl
ENDBRANCH   1  16
BRANCH  11  19
ATOM     19  C   UNL     1       2.150  -5.964   2.410  0.00  0.00    +0.001 A 
ATOM     20  C   UNL     1       1.975  -5.148   3.529  0.00  0.00    +0.012 A 
ATOM     21  C   UNL     1       2.232  -5.646   4.789  0.00  0.00    +0.033 A 
ATOM     22  C   UNL     1       2.663  -6.952   4.946  0.00  0.00    +0.126 A 
ATOM     23  C   UNL     1       2.839  -7.766   3.841  0.00  0.00    +0.033 A 
ATOM     24  C   UNL     1       2.580  -7.282   2.575  0.00  0.00    +0.012 A 
BRANCH  22  25
ATOM     25  N   UNL     1       2.937  -7.480   6.301  0.00  0.00    +0.056 N 
ATOM     26  O   UNL     1       2.784  -6.771   7.268  0.00  0.00    -0.126 OA
ATOM     27  O   UNL     1       3.313  -8.621   6.441  0.00  0.00    -0.126 OA
ENDBRANCH  22  25
ENDBRANCH  11  19
TORSDOF 3
