REMARK  Name = ZINC08743565
REMARK  3 active torsions:
REMARK  status: ('A' for Active; 'I' for Inactive)
REMARK    1  A    between atoms: N_14  and  C_15
REMARK    2  A    between atoms: C_15  and  C_16
REMARK    3  A    between atoms: N_18  and  C_19
REMARK                            x       y       z     vdW  Elec       q    Type
REMARK                         _______ _______ _______ _____ _____    ______ ____
ROOT
ATOM      1  C   UNL     1      -0.035   1.345  -0.051  0.00  0.00    +0.002 A 
ATOM      2  C   UNL     1       1.146   2.065  -0.055  0.00  0.00    +0.002 A 
ATOM      3  C   UNL     1       2.363   1.406  -0.059  0.00  0.00    +0.025 A 
ATOM      4  C   UNL     1       2.394   0.023  -0.059  0.00  0.00    +0.059 A 
ATOM      5  C   UNL     1       1.204  -0.706  -0.059  0.00  0.00    +0.055 A 
ATOM      6  C   UNL     1      -0.010  -0.038  -0.053  0.00  0.00    +0.025 A 
ATOM      7  N   UNL     1       1.251  -2.104  -0.072  0.00  0.00    -0.283 N 
ATOM      8  C   UNL     1       2.397  -2.757   0.201  0.00  0.00    +0.235 C 
ATOM      9  O   UNL     1       2.425  -3.968   0.142  0.00  0.00    -0.274 OA
ATOM     10  C   UNL     1       3.644  -2.000   0.579  0.00  0.00    +0.211 C 
ATOM     11  N   UNL     1       3.612  -0.674  -0.057  0.00  0.00    -0.245 N 
ATOM     12  C   UNL     1       4.717  -0.147  -0.620  0.00  0.00    +0.307 C 
ATOM     13  O   UNL     1       4.669   0.951  -1.141  0.00  0.00    -0.252 OA
ATOM     14  N   UNL     1       5.876  -0.835  -0.605  0.00  0.00    -0.290 N 
ATOM     15  H   UNL     1       0.450  -2.610  -0.280  0.00  0.00    +0.155 HD
ATOM     16  H   UNL     1       5.914  -1.711  -0.190  0.00  0.00    +0.151 HD
ENDROOT
BRANCH  14  17
ATOM     17  C   UNL     1       7.077  -0.262  -1.218  0.00  0.00    +0.202 C 
BRANCH  17  18
ATOM     18  C   UNL     1       8.226  -1.224  -1.067  0.00  0.00    +0.234 C 
ATOM     19  O   UNL     1       8.059  -2.285  -0.503  0.00  0.00    -0.274 OA
ATOM     20  N   UNL     1       9.441  -0.906  -1.558  0.00  0.00    -0.283 N 
ATOM     21  H   UNL     1       9.559  -0.088  -2.065  0.00  0.00    +0.155 HD
BRANCH  20  22
ATOM     22  C   UNL     1      10.530  -1.757  -1.336  0.00  0.00    +0.052 A 
ATOM     23  C   UNL     1      10.342  -3.132  -1.298  0.00  0.00    +0.026 A 
ATOM     24  C   UNL     1      11.418  -3.970  -1.079  0.00  0.00    +0.022 A 
ATOM     25  C   UNL     1      12.684  -3.440  -0.898  0.00  0.00    +0.042 A 
ATOM     26  C   UNL     1      12.875  -2.070  -0.936  0.00  0.00    +0.041 A 
ATOM     27  C   UNL     1      11.803  -1.228  -1.161  0.00  0.00    +0.064 A 
ATOM     28 CL   UNL     1      12.044   0.491  -1.215  0.00  0.00    -0.082 Cl
ATOM     29 CL   UNL     1      14.034  -4.496  -0.622  0.00  0.00    -0.083 Cl
ENDBRANCH  20  22
ENDBRANCH  17  18
ENDBRANCH  14  17
TORSDOF 3
