REMARK  Name = ZINC38990118
REMARK  7 active torsions:
REMARK  status: ('A' for Active; 'I' for Inactive)
REMARK    1  A    between atoms: C_10  and  N_11
REMARK    2  A    between atoms: C_12  and  C_14
REMARK    3  A    between atoms: C_14  and  S_15
REMARK    4  A    between atoms: S_15  and  C_16
REMARK    5  A    between atoms: C_20  and  C_24
REMARK    6  A    between atoms: N_22  and  N_23
REMARK    7  A    between atoms: C_27  and  C_30
REMARK                            x       y       z     vdW  Elec       q    Type
REMARK                         _______ _______ _______ _____ _____    ______ ____
ROOT
ATOM      1  C   UNL     1      10.184   0.144   0.366  0.00  0.00    +0.214 C 
ATOM      2  N   UNL     1      10.243   1.048  -0.805  0.00  0.00    -0.228 NA
ATOM      3  N   UNL     1      10.743   2.321  -0.263  0.00  0.00    -0.234 NA
ATOM      4  C   UNL     1      10.077   2.405   1.064  0.00  0.00    +0.185 C 
ATOM      5  N   UNL     1      10.077   1.008   1.560  0.00  0.00    -0.197 NA
ATOM      6  H   UNL     1      10.867   0.685  -1.510  0.00  0.00    +0.143 HD
ATOM      7  H   UNL     1      10.474   3.095  -0.852  0.00  0.00    +0.143 HD
ENDROOT
BRANCH   4   8
ATOM      8  C   UNL     1      10.873   3.310   2.006  0.00  0.00    +0.187 C 
ATOM      9  C   UNL     1      10.895   4.737   1.486  0.00  0.00    +0.034 C 
ATOM     10  C   UNL     1      12.203   4.983   1.276  0.00  0.00    +0.091 C 
ATOM     11  N   UNL     1      12.948   3.895   1.602  0.00  0.00    -0.154 NA
ATOM     12  N   UNL     1      12.295   2.930   2.015  0.00  0.00    -0.176 NA
BRANCH  10  13
ATOM     13  C   UNL     1      12.751   6.262   0.761  0.00  0.00    +0.002 A 
ATOM     14  C   UNL     1      11.895   7.320   0.462  0.00  0.00    +0.013 A 
ATOM     15  C   UNL     1      12.409   8.507  -0.016  0.00  0.00    +0.039 A 
ATOM     16  C   UNL     1      13.775   8.649  -0.200  0.00  0.00    +0.123 A 
ATOM     17  C   UNL     1      14.630   7.599   0.095  0.00  0.00    +0.039 A 
ATOM     18  C   UNL     1      14.125   6.410   0.580  0.00  0.00    +0.013 A 
ATOM     19  F   UNL     1      14.274   9.813  -0.669  0.00  0.00    -0.205 F 
ENDBRANCH  10  13
ENDBRANCH   4   8
BRANCH   5  20
ATOM     20  N   UNL     1      11.187   0.778   2.471  0.00  0.00    -0.264 NA
ATOM     21  H   UNL     1      11.207  -0.182   2.781  0.00  0.00    +0.137 HD
ATOM     22  H   UNL     1      12.064   1.039   2.045  0.00  0.00    +0.137 HD
ENDBRANCH   5  20
BRANCH   1  23
ATOM     23  S   UNL     1       8.730  -0.934   0.247  0.00  0.00    -0.115 S 
BRANCH  23  24
ATOM     24  C   UNL     1       7.334   0.221   0.146  0.00  0.00    +0.168 C 
BRANCH  24  26
ATOM     25  N   UNL     1       4.871   0.098  -0.045  0.00  0.00    -0.284 N 
ATOM     26  C   UNL     1       6.047  -0.555   0.042  0.00  0.00    +0.227 C 
ATOM     27  O   UNL     1       6.068  -1.768   0.036  0.00  0.00    -0.275 OA
ATOM     28  H   UNL     1       4.858   1.065  -0.121  0.00  0.00    +0.155 HD
BRANCH  25  38
ATOM     29  C   UNL     1       0.203   0.945  -1.767  0.00  0.00    +0.001 A 
ATOM     30  C   UNL     1       1.389   1.676  -1.797  0.00  0.00    +0.001 A 
ATOM     31  C   UNL     1       2.529   1.185  -1.236  0.00  0.00    +0.010 A 
ATOM     32  C   UNL     1       2.511  -0.076  -0.618  0.00  0.00    +0.003 A 
ATOM     33  C   UNL     1       1.306  -0.819  -0.587  0.00  0.00    -0.016 A 
ATOM     34  C   UNL     1       0.149  -0.280  -1.177  0.00  0.00    +0.008 A 
ATOM     35  C   UNL     1       1.286  -2.080   0.032  0.00  0.00    +0.008 A 
ATOM     36  C   UNL     1       2.422  -2.578   0.596  0.00  0.00    +0.002 A 
ATOM     37  C   UNL     1       3.612  -1.857   0.572  0.00  0.00    +0.024 A 
ATOM     38  C   UNL     1       3.672  -0.617  -0.026  0.00  0.00    +0.041 A 
ENDBRANCH  25  38
ENDBRANCH  24  26
ENDBRANCH  23  24
ENDBRANCH   1  23
TORSDOF 7
