REMARK  Name = ZINC04924986
REMARK  8 active torsions:
REMARK  status: ('A' for Active; 'I' for Inactive)
REMARK    1  A    between atoms: C_1  and  O_2
REMARK    2  A    between atoms: O_2  and  C_3
REMARK    3  A    between atoms: C_6  and  C_9
REMARK    4  A    between atoms: C_11  and  C_23
REMARK    5  A    between atoms: C_13  and  C_18
REMARK    6  A    between atoms: C_13  and  O_22
REMARK    7  A    between atoms: C_23  and  O_25
REMARK    8  A    between atoms: O_25  and  C_26
REMARK                            x       y       z     vdW  Elec       q    Type
REMARK                         _______ _______ _______ _____ _____    ______ ____
ROOT
ATOM      1  C   UNL     1       2.766  -2.289   4.230  0.00  0.00    +0.123 C 
ATOM      2  C   UNL     1       4.129  -2.940   3.970  0.00  0.00    +0.180 C 
ATOM      3  C   UNL     1       4.426  -3.921   5.109  0.00  0.00    +0.229 C 
ATOM      4  N   UNL     1       3.326  -4.880   5.216  0.00  0.00    -0.265 N 
ATOM      5  C   UNL     1       2.075  -4.549   4.863  0.00  0.00    +0.302 C 
ATOM      6  O   UNL     1       1.195  -5.380   4.982  0.00  0.00    -0.253 OA
ATOM      7  N   UNL     1       1.755  -3.336   4.386  0.00  0.00    -0.292 N 
ATOM      8  H   UNL     1       3.505  -5.774   5.549  0.00  0.00    +0.153 HD
ATOM      9  H   UNL     1       0.836  -3.149   4.138  0.00  0.00    +0.151 HD
ENDROOT
BRANCH   1  13
ATOM     10  C   UNL     1       1.728   0.220   0.931  0.00  0.00    +0.120 A 
ATOM     11  C   UNL     1       1.417  -1.132   0.900  0.00  0.00    +0.046 A 
ATOM     12  C   UNL     1       1.754  -1.941   1.968  0.00  0.00    +0.009 A 
ATOM     13  C   UNL     1       2.400  -1.405   3.067  0.00  0.00    -0.026 A 
ATOM     14  C   UNL     1       2.710  -0.057   3.099  0.00  0.00    +0.009 A 
ATOM     15  C   UNL     1       2.381   0.755   2.032  0.00  0.00    +0.046 A 
BRANCH  10  17
ATOM     16  C   UNL     1       0.726   0.399  -1.218  0.00  0.00    +0.277 C 
ATOM     17  O   UNL     1       1.397   1.018  -0.119  0.00  0.00    -0.495 OA
ENDBRANCH  10  17
ENDBRANCH   1  13
BRANCH   3  18
ATOM     18  C   UNL     1       5.729  -4.668   4.813  0.00  0.00    +0.368 C 
ATOM     19  F   UNL     1       6.067  -5.468   5.910  0.00  0.00    -0.182 F 
ATOM     20  F   UNL     1       5.557  -5.475   3.683  0.00  0.00    -0.182 F 
ATOM     21 CL   UNL     1       7.048  -3.478   4.507  0.00  0.00    -0.043 Cl
ENDBRANCH   3  18
BRANCH   3  22
ATOM     22  O   UNL     1       4.555  -3.203   6.337  0.00  0.00    -0.365 OA
ATOM     23  H   UNL     1       4.744  -3.763   7.102  0.00  0.00    +0.212 HD
ENDBRANCH   3  22
BRANCH   2  24
ATOM     24  C   UNL     1       4.095  -3.678   2.656  0.00  0.00    +0.317 C 
ATOM     25  O   UNL     1       3.328  -4.598   2.500  0.00  0.00    -0.250 OA
BRANCH  24  26
ATOM     26  O   UNL     1       4.917  -3.313   1.660  0.00  0.00    -0.468 OA
ATOM     27  C   UNL     1       4.831  -4.057   0.443  0.00  0.00    +0.280 C 
ENDBRANCH  24  26
ENDBRANCH   2  24
TORSDOF 6
