REMARK  Name = ZINC33809962
REMARK  5 active torsions:
REMARK  status: ('A' for Active; 'I' for Inactive)
REMARK    1  A    between atoms: C_2  and  C_3
REMARK    2  A    between atoms: C_3  and  S_4
REMARK    3  A    between atoms: S_4  and  C_5
REMARK    4  A    between atoms: C_15  and  C_17
REMARK    5  A    between atoms: C_22  and  N_23
REMARK                            x       y       z     vdW  Elec       q    Type
REMARK                         _______ _______ _______ _____ _____    ______ ____
ROOT
ATOM      1  C   UNL     1      -2.073  -3.015   2.035  0.00  0.00    +0.172 A 
ATOM      2  N   UNL     1      -3.213  -3.023   2.694  0.00  0.00    -0.185 NA
ATOM      3  C   UNL     1      -4.360  -3.361   2.086  0.00  0.00    +0.280 A 
ATOM      4  O   UNL     1      -5.411  -3.361   2.711  0.00  0.00    -0.265 OA
ATOM      5  C   UNL     1      -4.347  -3.716   0.719  0.00  0.00    +0.069 A 
ATOM      6  C   UNL     1      -3.163  -3.701   0.049  0.00  0.00    +0.111 A 
ATOM      7  N   UNL     1      -2.020  -3.343   0.714  0.00  0.00    -0.322 N 
ATOM      8  N   UNL     1      -3.119  -4.032  -1.285  0.00  0.00    -0.304 N 
ATOM      9  C   UNL     1      -4.255  -4.010  -2.049  0.00  0.00    +0.017 C 
ATOM     10  C   UNL     1      -5.474  -4.037  -1.470  0.00  0.00    +0.024 C 
ATOM     11  C   UNL     1      -5.620  -4.107   0.029  0.00  0.00    +0.095 C 
ATOM     12  C   UNL     1      -6.645  -3.999  -2.246  0.00  0.00    +0.162 C 
ATOM     13  O   UNL     1      -7.727  -4.031  -1.694  0.00  0.00    -0.292 OA
ATOM     14  C   UNL     1      -6.585  -3.919  -3.747  0.00  0.00    +0.080 C 
ATOM     15  C   UNL     1      -5.293  -3.204  -4.157  0.00  0.00    +0.014 C 
ATOM     16  C   UNL     1      -4.108  -3.958  -3.550  0.00  0.00    +0.051 C 
ATOM     17  H   UNL     1      -2.274  -4.285  -1.689  0.00  0.00    +0.153 HD
ATOM     18  H   UNL     1      -1.172  -3.326   0.244  0.00  0.00    +0.169 HD
ENDROOT
BRANCH  11  19
ATOM     19  C   UNL     1      -5.982  -5.516   0.423  0.00  0.00    -0.005 A 
ATOM     20  C   UNL     1      -5.172  -6.570   0.045  0.00  0.00    +0.007 A 
ATOM     21  C   UNL     1      -5.505  -7.862   0.406  0.00  0.00    +0.000 A 
ATOM     22  C   UNL     1      -6.647  -8.100   1.147  0.00  0.00    +0.002 A 
ATOM     23  C   UNL     1      -7.457  -7.046   1.526  0.00  0.00    +0.033 A 
ATOM     24  C   UNL     1      -7.122  -5.753   1.168  0.00  0.00    +0.130 A 
BRANCH  24  25
ATOM     25  N   UNL     1      -7.987  -4.624   1.579  0.00  0.00    +0.057 N 
ATOM     26  O   UNL     1      -8.466  -4.602   2.688  0.00  0.00    -0.126 OA
ATOM     27  O   UNL     1      -8.213  -3.724   0.804  0.00  0.00    -0.126 OA
ENDBRANCH  24  25
ENDBRANCH  11  19
BRANCH   1  28
ATOM     28  S   UNL     1      -0.591  -2.565   2.875  0.00  0.00    -0.084 S 
BRANCH  28  29
ATOM     29  C   UNL     1      -1.135  -2.220   4.571  0.00  0.00    +0.104 C 
BRANCH  29  31
ATOM     30  C   UNL     1       0.126  -0.608   5.902  0.00  0.00    +0.005 C 
ATOM     31  C   UNL     1       0.053  -1.819   5.407  0.00  0.00    -0.023 C 
ENDBRANCH  29  31
ENDBRANCH  28  29
ENDBRANCH   1  28
TORSDOF 5
