REMARK  Name = ZINC08778225
REMARK  7 active torsions:
REMARK  status: ('A' for Active; 'I' for Inactive)
REMARK    1  A    between atoms: C_1  and  C_2
REMARK    2  A    between atoms: C_8  and  N_10
REMARK    3  A    between atoms: C_11  and  C_13
REMARK    4  A    between atoms: C_13  and  N_14
REMARK    5  A    between atoms: C_18  and  S_25
REMARK    6  A    between atoms: C_22  and  C_24
REMARK    7  A    between atoms: S_25  and  N_28
REMARK                            x       y       z     vdW  Elec       q    Type
REMARK                         _______ _______ _______ _____ _____    ______ ____
ROOT
ATOM      1  N   UNL     1       2.486   3.686  -0.029  0.00  0.00    -0.318 N 
ATOM      2  C   UNL     1       3.336   2.652   0.384  0.00  0.00    +0.034 A 
ATOM      3  C   UNL     1       3.632   2.196   1.667  0.00  0.00    +0.025 A 
ATOM      4  C   UNL     1       4.503   1.141   1.844  0.00  0.00    +0.030 A 
ATOM      5  C   UNL     1       5.085   0.526   0.750  0.00  0.00    +0.105 A 
ATOM      6  C   UNL     1       4.802   0.979  -0.526  0.00  0.00    +0.034 A 
ATOM      7  C   UNL     1       3.933   2.034  -0.708  0.00  0.00    -0.023 A 
ATOM      8  C   UNL     1       3.447   2.731  -1.963  0.00  0.00    +0.059 C 
ATOM      9  C   UNL     1       2.852   4.049  -1.416  0.00  0.00    +0.075 C 
ATOM     10  C   UNL     1       3.899   5.164  -1.427  0.00  0.00    +0.028 C 
ENDROOT
BRANCH   5  11
ATOM     11  S   UNL     1       6.189  -0.827   0.983  0.00  0.00    +0.056 S 
ATOM     12  O   UNL     1       5.862  -1.407   2.238  0.00  0.00    -0.153 OA
ATOM     13  O   UNL     1       6.178  -1.572  -0.227  0.00  0.00    -0.153 OA
BRANCH  11  14
ATOM     14  N   UNL     1       7.712  -0.195   1.135  0.00  0.00    -0.204 NA
ATOM     15  H   UNL     1       8.375  -0.653   1.675  0.00  0.00    +0.144 HD
ATOM     16  H   UNL     1       7.941   0.633   0.685  0.00  0.00    +0.144 HD
ENDBRANCH  11  14
ENDBRANCH   5  11
BRANCH   1  17
ATOM     17  C   UNL     1       2.596   4.847   0.865  0.00  0.00    +0.201 C 
BRANCH  17  19
ATOM     18  N   UNL     1       1.558   7.081   1.086  0.00  0.00    -0.311 N 
ATOM     19  C   UNL     1       1.567   5.878   0.479  0.00  0.00    +0.231 C 
ATOM     20  O   UNL     1       0.747   5.625  -0.378  0.00  0.00    -0.274 OA
ATOM     21  H   UNL     1       2.214   7.283   1.771  0.00  0.00    +0.149 HD
BRANCH  18  28
ATOM     22  C   UNL     1      -0.157   8.264   3.098  0.00  0.00    +0.009 C 
ATOM     23  C   UNL     1       0.337   9.046   1.879  0.00  0.00    +0.006 C 
ATOM     24  C   UNL     1      -0.708  10.093   1.487  0.00  0.00    +0.005 C 
ATOM     25  C   UNL     1      -0.214  10.875   0.268  0.00  0.00    +0.000 C 
ATOM     26  C   UNL     1       0.007   9.912  -0.900  0.00  0.00    +0.002 C 
ATOM     27  C   UNL     1       1.052   8.865  -0.508  0.00  0.00    +0.022 C 
ATOM     28  C   UNL     1       0.558   8.083   0.710  0.00  0.00    +0.076 C 
ENDBRANCH  18  28
ENDBRANCH  17  19
ENDBRANCH   1  17
TORSDOF 5
