REMARK  Name = ZINC59012971
REMARK  8 active torsions:
REMARK  status: ('A' for Active; 'I' for Inactive)
REMARK    1  A    between atoms: C_1  and  C_2
REMARK    2  A    between atoms: C_2  and  C_25
REMARK    3  A    between atoms: N_5  and  C_9
REMARK    4  A    between atoms: C_9  and  C_10
REMARK    5  A    between atoms: C_10  and  C_12
REMARK    6  A    between atoms: C_13  and  N_24
REMARK    7  A    between atoms: N_14  and  C_21
REMARK    8  A    between atoms: C_29  and  N_31
REMARK                            x       y       z     vdW  Elec       q    Type
REMARK                         _______ _______ _______ _____ _____    ______ ____
ROOT
ATOM      1  C   UNL     1      -0.179   2.247  -1.587  0.00  0.00    +0.047 C 
ATOM      2  C   UNL     1      -0.360   0.743  -1.800  0.00  0.00    +0.135 C 
ATOM      3  C   UNL     1       0.707   0.204  -2.733  0.00  0.00    +0.251 C 
ATOM      4  O   UNL     1       0.900   0.522  -3.887  0.00  0.00    -0.272 OA
ATOM      5  N   UNL     1       1.397  -0.702  -2.012  0.00  0.00    -0.216 N 
ATOM      6  C   UNL     1       0.920  -0.809  -0.767  0.00  0.00    +0.310 C 
ATOM      7  O   UNL     1       1.378  -1.562   0.070  0.00  0.00    -0.252 OA
ATOM      8  N   UNL     1      -0.125   0.009  -0.545  0.00  0.00    -0.281 N 
ATOM      9  H   UNL     1      -0.626   0.099   0.281  0.00  0.00    +0.152 HD
ENDROOT
BRANCH   2  10
ATOM     10  C   UNL     1      -1.737   0.447  -2.338  0.00  0.00    -0.013 A 
ATOM     11  C   UNL     1      -1.951   0.400  -3.703  0.00  0.00    +0.006 A 
ATOM     12  C   UNL     1      -3.213   0.129  -4.195  0.00  0.00    +0.003 A 
ATOM     13  C   UNL     1      -4.262  -0.096  -3.323  0.00  0.00    +0.033 A 
ATOM     14  C   UNL     1      -4.048  -0.051  -1.958  0.00  0.00    +0.127 A 
ATOM     15  C   UNL     1      -2.784   0.216  -1.466  0.00  0.00    +0.039 A 
BRANCH  14  16
ATOM     16  N   UNL     1      -5.171  -0.291  -1.025  0.00  0.00    +0.056 N 
ATOM     17  O   UNL     1      -6.275  -0.528  -1.456  0.00  0.00    -0.126 OA
ATOM     18  O   UNL     1      -4.983  -0.251   0.169  0.00  0.00    -0.126 OA
ENDBRANCH  14  16
ENDBRANCH   2  10
BRANCH   5  19
ATOM     19  C   UNL     1       2.530  -1.474  -2.529  0.00  0.00    +0.197 C 
BRANCH  19  20
ATOM     20  C   UNL     1       3.809  -0.719  -2.277  0.00  0.00    +0.189 C 
ATOM     21  O   UNL     1       3.778   0.360  -1.720  0.00  0.00    -0.290 OA
BRANCH  20  22
ATOM     22  C   UNL     1       5.044  -1.265  -2.688  0.00  0.00    +0.121 A 
ATOM     23  C   UNL     1       6.234  -0.524  -2.588  0.00  0.00    +0.116 A 
ATOM     24  N   UNL     1       7.405  -1.096  -2.998  0.00  0.00    -0.278 N 
ATOM     25  C   UNL     1       7.436  -2.343  -3.492  0.00  0.00    +0.331 A 
ATOM     26  O   UNL     1       8.503  -2.807  -3.844  0.00  0.00    -0.246 OA
ATOM     27  N   UNL     1       6.332  -3.098  -3.612  0.00  0.00    -0.274 N 
ATOM     28  H   UNL     1       6.402  -3.995  -3.974  0.00  0.00    +0.173 HD
ATOM     29  C   UNL     1       5.127  -2.628  -3.229  0.00  0.00    +0.266 A 
ATOM     30  O   UNL     1       4.129  -3.317  -3.333  0.00  0.00    -0.267 OA
BRANCH  24  31
ATOM     31  C   UNL     1       8.651  -0.332  -2.898  0.00  0.00    +0.094 C 
ATOM     32  C   UNL     1       9.861  -1.033  -2.278  0.00  0.00    +0.027 C 
ATOM     33  C   UNL     1       9.128   0.060  -1.498  0.00  0.00    +0.027 C 
ENDBRANCH  24  31
BRANCH  23  34
ATOM     34  N   UNL     1       6.221   0.742  -2.090  0.00  0.00    -0.344 N 
ATOM     35  H   UNL     1       5.536   1.007  -1.456  0.00  0.00    +0.144 HD
ATOM     36  H   UNL     1       6.896   1.381  -2.370  0.00  0.00    +0.144 HD
ENDBRANCH  23  34
ENDBRANCH  20  22
ENDBRANCH  19  20
ENDBRANCH   5  19
TORSDOF 7
