REMARK  Name = ZINC67186478
REMARK  8 active torsions:
REMARK  status: ('A' for Active; 'I' for Inactive)
REMARK    1  A    between atoms: C_1  and  C_2
REMARK    2  A    between atoms: C_2  and  C_3
REMARK    3  A    between atoms: C_2  and  C_4
REMARK    4  A    between atoms: C_2  and  C_5
REMARK    5  A    between atoms: C_11  and  N_13
REMARK    6  A    between atoms: N_13  and  C_14
REMARK    7  A    between atoms: C_14  and  C_15
REMARK    8  A    between atoms: C_18  and  C_20
REMARK                            x       y       z     vdW  Elec       q    Type
REMARK                         _______ _______ _______ _____ _____    ______ ____
ROOT
ATOM      1  N   UNL     1       2.272   1.116  -1.409  0.00  0.00    +0.385 N 
ATOM      2  H   UNL     1       1.948   1.461  -2.300  0.00  0.00    -0.085 HD
ATOM      3  H   UNL     1       1.751   1.558  -0.667  0.00  0.00    -0.085 HD
ENDROOT
BRANCH   1   9
ATOM      4  C   UNL     1       0.591  -0.660  -1.526  0.00  0.00    -0.020 C 
ATOM      5  C   UNL     1       0.116  -0.139  -2.884  0.00  0.00    +0.002 C 
ATOM      6  C   UNL     1       0.921  -0.811  -3.998  0.00  0.00    +0.000 C 
ATOM      7  C   UNL     1       2.406  -0.489  -3.819  0.00  0.00    -0.002 C 
ATOM      8  C   UNL     1       2.881  -1.010  -2.461  0.00  0.00    -0.015 C 
ATOM      9  C   UNL     1       2.075  -0.338  -1.347  0.00  0.00    -0.068 C 
BRANCH   4  11
ATOM     10  C   UNL     1      -0.555   1.446  -0.822  0.00  0.00    +0.011 C 
ATOM     11  C   UNL     1      -0.215   0.012  -0.412  0.00  0.00    -0.036 C 
ATOM     12  C   UNL     1       0.613   0.033   0.875  0.00  0.00    +0.011 C 
ATOM     13  C   UNL     1      -1.508  -0.771  -0.174  0.00  0.00    +0.011 C 
ENDBRANCH   4  11
ENDBRANCH   1   9
BRANCH   1  14
ATOM     14  C   UNL     1       3.700   1.424  -1.255  0.00  0.00    -0.025 C 
BRANCH  14  15
ATOM     15  C   UNL     1       3.902   2.916  -1.319  0.00  0.00    +0.032 A 
ATOM     16  C   UNL     1       3.959   3.647  -0.171  0.00  0.00    +0.068 A 
ATOM     17  S   UNL     1       4.203   5.289  -0.838  0.00  0.00    -0.072 S 
ATOM     18  C   UNL     1       4.202   4.824  -2.565  0.00  0.00    +0.145 A 
ATOM     19  N   UNL     1       4.029   3.512  -2.478  0.00  0.00    -0.243 NA
BRANCH  18  20
ATOM     20  C   UNL     1       4.358   5.672  -3.765  0.00  0.00    +0.185 A 
ATOM     21  N   UNL     1       4.319   5.109  -4.966  0.00  0.00    -0.234 NA
ATOM     22  C   UNL     1       4.455   5.840  -6.059  0.00  0.00    +0.115 A 
ATOM     23  C   UNL     1       4.640   7.210  -5.939  0.00  0.00    +0.039 A 
ATOM     24  C   UNL     1       4.675   7.766  -4.668  0.00  0.00    +0.115 A 
ATOM     25  N   UNL     1       4.528   6.980  -3.616  0.00  0.00    -0.234 NA
ENDBRANCH  18  20
ENDBRANCH  14  15
ENDBRANCH   1  14
TORSDOF 5
