REMARK  Name = ZINC17793675
REMARK  7 active torsions:
REMARK  status: ('A' for Active; 'I' for Inactive)
REMARK    1  A    between atoms: C_11  and  C_13
REMARK    2  A    between atoms: C_13  and  C_14
REMARK    3  A    between atoms: C_14  and  C_15
REMARK    4  A    between atoms: N_17  and  C_18
REMARK    5  A    between atoms: C_18  and  C_19
REMARK    6  A    between atoms: C_19  and  C_21
REMARK    7  A    between atoms: C_19  and  N_26
REMARK                            x       y       z     vdW  Elec       q    Type
REMARK                         _______ _______ _______ _____ _____    ______ ____
ROOT
ATOM      1  C   UNL     1       7.399  -1.905   0.271  0.00  0.00    +0.213 C 
ATOM      2  O   UNL     1       7.367  -3.116   0.215  0.00  0.00    -0.276 OA
ATOM      3  N   UNL     1       8.576  -1.257   0.164  0.00  0.00    -0.316 N 
ATOM      4  H   UNL     1       8.602  -0.288   0.208  0.00  0.00    +0.149 HD
ENDROOT
BRANCH   1   5
ATOM      5  C   UNL     1       6.124  -1.125   0.460  0.00  0.00    +0.103 C 
BRANCH   5   6
ATOM      6  C   UNL     1       4.943  -2.094   0.552  0.00  0.00    +0.083 C 
BRANCH   6  17
ATOM      7  C   UNL     1       0.326   2.260   1.310  0.00  0.00    +0.001 A 
ATOM      8  C   UNL     1       1.563   2.881   1.196  0.00  0.00    +0.002 A 
ATOM      9  C   UNL     1       2.711   2.142   1.024  0.00  0.00    +0.028 A 
ATOM     10  C   UNL     1       2.634   0.749   0.965  0.00  0.00    +0.078 A 
ATOM     11  C   UNL     1       1.375   0.120   1.082  0.00  0.00    +0.065 A 
ATOM     12  C   UNL     1       0.225   0.887   1.255  0.00  0.00    +0.015 A 
ATOM     13  C   UNL     1       1.328  -1.349   1.015  0.00  0.00    +0.259 A 
ATOM     14  O   UNL     1       0.275  -1.952   1.109  0.00  0.00    -0.267 OA
ATOM     15  N   UNL     1       2.501  -2.002   0.845  0.00  0.00    -0.310 N 
ATOM     16  H   UNL     1       2.508  -2.971   0.796  0.00  0.00    +0.170 HD
ATOM     17  C   UNL     1       3.667  -1.314   0.741  0.00  0.00    +0.111 A 
ATOM     18  N   UNL     1       3.740  -0.019   0.797  0.00  0.00    -0.234 NA
ENDBRANCH   6  17
ENDBRANCH   5   6
ENDBRANCH   1   5
BRANCH   3  19
ATOM     19  C   UNL     1       9.816  -2.015  -0.020  0.00  0.00    +0.096 C 
BRANCH  19  20
ATOM     20  C   UNL     1      10.979  -1.045  -0.243  0.00  0.00    +0.016 C 
BRANCH  20  21
ATOM     21  N   UNL     1      10.657  -0.144  -1.358  0.00  0.00    +0.387 N 
ATOM     22  C   UNL     1      10.446  -0.932  -2.578  0.00  0.00    -0.078 C 
ATOM     23  C   UNL     1      10.032  -0.006  -3.723  0.00  0.00    -0.019 C 
ATOM     24  C   UNL     1      11.139   1.024  -3.965  0.00  0.00    -0.004 C 
ATOM     25  C   UNL     1      11.403   1.790  -2.665  0.00  0.00    -0.019 C 
ATOM     26  C   UNL     1      11.766   0.797  -1.559  0.00  0.00    -0.078 C 
ATOM     27  H   UNL     1       9.816   0.370  -1.142  0.00  0.00    -0.081 HD
ENDBRANCH  20  21
BRANCH  20  28
ATOM     28  C   UNL     1      11.204  -0.236   1.008  0.00  0.00    +0.093 A 
ATOM     29  C   UNL     1      12.157  -0.463   1.930  0.00  0.00    +0.043 A 
ATOM     30  C   UNL     1      12.007   0.528   2.927  0.00  0.00    +0.041 A 
ATOM     31  C   UNL     1      10.971   1.301   2.555  0.00  0.00    +0.195 A 
ATOM     32  O   UNL     1      10.492   0.837   1.389  0.00  0.00    -0.469 OA
ENDBRANCH  20  28
ENDBRANCH  19  20
ENDBRANCH   3  19
TORSDOF 7
