REMARK  Name = ZINC65761270
REMARK  10 active torsions:
REMARK  status: ('A' for Active; 'I' for Inactive)
REMARK    1  A    between atoms: C_1  and  C_2
REMARK    2  A    between atoms: C_4  and  C_25
REMARK    3  A    between atoms: N_6  and  C_8
REMARK    4  A    between atoms: C_8  and  C_9
REMARK    5  A    between atoms: C_9  and  C_10
REMARK    6  A    between atoms: C_9  and  N_11
REMARK    7  A    between atoms: C_12  and  C_14
REMARK    8  A    between atoms: C_16  and  N_21
REMARK    9  A    between atoms: C_19  and  O_20
REMARK   10  A    between atoms: C_22  and  C_24
REMARK                            x       y       z     vdW  Elec       q    Type
REMARK                         _______ _______ _______ _____ _____    ______ ____
ROOT
ATOM      1  N   UNL     1       3.209  -0.686   2.048  0.00  0.00    -0.310 N 
ATOM      2  C   UNL     1       4.200  -0.186   1.284  0.00  0.00    +0.248 C 
ATOM      3  O   UNL     1       4.961  -0.938   0.706  0.00  0.00    -0.270 OA
ATOM      4  H   UNL     1       2.602  -0.086   2.509  0.00  0.00    +0.149 HD
ENDROOT
BRANCH   2   5
ATOM      5  C   UNL     1       4.361   1.274   1.148  0.00  0.00    +0.080 A 
ATOM      6  C   UNL     1       3.493   2.142   1.814  0.00  0.00    +0.040 A 
ATOM      7  C   UNL     1       3.650   3.510   1.682  0.00  0.00    +0.034 A 
ATOM      8  C   UNL     1       4.671   4.022   0.887  0.00  0.00    +0.027 A 
ATOM      9  C   UNL     1       5.532   3.171   0.225  0.00  0.00    +0.048 A 
ATOM     10  C   UNL     1       5.390   1.798   0.354  0.00  0.00    +0.129 A 
BRANCH   7  11
ATOM     11  N   UNL     1       2.780   4.382   2.349  0.00  0.00    -0.286 N 
ATOM     12  C   UNL     1       3.240   5.551   2.838  0.00  0.00    +0.214 C 
ATOM     13  O   UNL     1       4.386   5.887   2.626  0.00  0.00    -0.276 OA
ATOM     14  C   UNL     1       2.331   6.439   3.647  0.00  0.00    +0.109 C 
ATOM     15  H   UNL     1       1.846   4.144   2.459  0.00  0.00    +0.155 HD
ENDBRANCH   7  11
BRANCH  10  16
ATOM     16  O   UNL     1       6.243   0.962  -0.293  0.00  0.00    -0.506 OA
ATOM     17  H   UNL     1       5.952   0.714  -1.181  0.00  0.00    +0.292 HD
ENDBRANCH  10  16
ENDBRANCH   2   5
BRANCH   1  18
ATOM     18  C   UNL     1       3.048  -2.136   2.184  0.00  0.00    +0.054 C 
ATOM     19  C   UNL     1       3.887  -2.634   3.362  0.00  0.00    +0.026 C 
BRANCH  18  20
ATOM     20  C   UNL     1       1.575  -2.465   2.431  0.00  0.00    -0.057 C 
BRANCH  20  26
ATOM     21  C   UNL     1      -2.997  -1.644   0.885  0.00  0.00    +0.005 C 
ATOM     22  C   UNL     1      -1.515  -1.457   0.555  0.00  0.00    -0.031 C 
ATOM     23  C   UNL     1      -1.201  -2.129  -0.784  0.00  0.00    +0.003 C 
ATOM     24  C   UNL     1       0.299  -2.004  -1.068  0.00  0.00    -0.031 C 
ATOM     25  C   UNL     1       1.085  -2.623   0.090  0.00  0.00    -0.076 C 
ATOM     26  N   UNL     1       0.761  -1.919   1.337  0.00  0.00    +0.381 N 
ATOM     27  C   UNL     1      -0.662  -2.096   1.653  0.00  0.00    -0.076 C 
ATOM     28  C   UNL     1       0.671  -0.526  -1.206  0.00  0.00    +0.005 C 
ATOM     29  H   UNL     1       0.961  -0.936   1.230  0.00  0.00    -0.082 HD
ENDBRANCH  20  26
ENDBRANCH  18  20
ENDBRANCH   1  18
TORSDOF 6
