REMARK  Name = ZINC05728999
REMARK  4 active torsions:
REMARK  status: ('A' for Active; 'I' for Inactive)
REMARK    1  A    between atoms: C_4  and  C_7
REMARK    2  A    between atoms: C_7  and  C_9
REMARK    3  A    between atoms: C_10  and  O_23
REMARK    4  A    between atoms: C_14  and  C_16
REMARK                            x       y       z     vdW  Elec       q    Type
REMARK                         _______ _______ _______ _____ _____    ______ ____
ROOT
ATOM      1  C   UNL     1      -0.678   1.595   1.256  0.00  0.00    +0.071 C 
ATOM      2  C   UNL     1       0.271   2.272   1.944  0.00  0.00    +0.188 C 
ATOM      3  C   UNL     1       1.531   2.263   1.173  0.00  0.00    +0.280 C 
ATOM      4  O   UNL     1       2.569   2.787   1.526  0.00  0.00    -0.267 OA
ATOM      5  N   UNL     1       1.360   1.587   0.022  0.00  0.00    -0.298 N 
ATOM      6  C   UNL     1      -0.029   1.115  -0.022  0.00  0.00    +0.141 C 
ATOM      7  H   UNL     1       2.035   1.438  -0.658  0.00  0.00    +0.150 HD
ENDROOT
BRANCH   6   8
ATOM      8  C   UNL     1      -0.737   1.701  -1.216  0.00  0.00    -0.022 A 
ATOM      9  C   UNL     1      -0.564   3.034  -1.537  0.00  0.00    +0.007 A 
ATOM     10  C   UNL     1      -1.209   3.571  -2.635  0.00  0.00    +0.020 A 
ATOM     11  C   UNL     1      -2.037   2.776  -3.407  0.00  0.00    +0.041 A 
ATOM     12  C   UNL     1      -2.214   1.442  -3.083  0.00  0.00    +0.020 A 
ATOM     13  C   UNL     1      -1.565   0.906  -1.987  0.00  0.00    +0.007 A 
ATOM     14 CL   UNL     1      -2.853   3.450  -4.783  0.00  0.00    -0.084 Cl
ENDBRANCH   6   8
BRANCH   1  15
ATOM     15  C   UNL     1      -2.066   1.371   1.669  0.00  0.00    +0.195 C 
ATOM     16  O   UNL     1      -2.832   2.312   1.764  0.00  0.00    -0.287 OA
BRANCH  15  20
ATOM     17  C   UNL     1      -3.417  -2.563   2.531  0.00  0.00    +0.000 A 
ATOM     18  C   UNL     1      -4.316  -1.511   2.527  0.00  0.00    +0.001 A 
ATOM     19  C   UNL     1      -3.885  -0.232   2.248  0.00  0.00    +0.012 A 
ATOM     20  C   UNL     1      -2.536   0.002   1.969  0.00  0.00    +0.022 A 
ATOM     21  C   UNL     1      -1.635  -1.065   1.970  0.00  0.00    +0.012 A 
ATOM     22  C   UNL     1      -2.079  -2.339   2.256  0.00  0.00    +0.001 A 
ENDBRANCH  15  20
ENDBRANCH   1  15
BRANCH   2  23
ATOM     23  O   UNL     1       0.093   2.864   3.148  0.00  0.00    -0.502 OA
ATOM     24  H   UNL     1       0.947   3.295   3.437  0.00  0.00    +0.292 HD
ENDBRANCH   2  23
TORSDOF 4
