REMARK  Name = ZINC48603932
REMARK  8 active torsions:
REMARK  status: ('A' for Active; 'I' for Inactive)
REMARK    1  A    between atoms: C_1  and  C_2
REMARK    2  A    between atoms: C_2  and  CA_3
REMARK    3  A    between atoms: CA_3  and  C_5
REMARK    4  A    between atoms: CA_3  and  N_7
REMARK    5  A    between atoms: C_5  and  O_6
REMARK    6  A    between atoms: C_8  and  C_10
REMARK    7  A    between atoms: N_12  and  C_13
REMARK    8  A    between atoms: C_17  and  C_19
REMARK                            x       y       z     vdW  Elec       q    Type
REMARK                         _______ _______ _______ _____ _____    ______ ____
ROOT
ATOM      1  C   UNL     1      -0.347   0.709  -7.223  0.00  0.00    +0.035 A 
ATOM      2  C   UNL     1      -1.685   1.079  -7.152  0.00  0.00    +0.026 A 
ATOM      3  C   UNL     1      -2.357   1.481  -8.290  0.00  0.00    +0.041 A 
ATOM      4  C   UNL     1      -1.703   1.517  -9.508  0.00  0.00    +0.134 A 
ATOM      5  C   UNL     1      -0.358   1.147  -9.589  0.00  0.00    +0.056 A 
ATOM      6  C   UNL     1       0.320   0.747  -8.438  0.00  0.00    +0.037 A 
ATOM      7  F   UNL     1      -2.364   1.911 -10.618  0.00  0.00    -0.205 F 
ENDROOT
BRANCH   5   8
ATOM      8  C   UNL     1       0.344   1.184 -10.889  0.00  0.00    +0.167 A 
ATOM      9  N   UNL     1      -0.103   0.719 -12.037  0.00  0.00    -0.129 NA
ATOM     10  N   UNL     1       0.769   0.927 -12.960  0.00  0.00    -0.134 NA
ATOM     11  C   UNL     1       1.809   1.534 -12.461  0.00  0.00    +0.134 A 
ATOM     12  N   UNL     1       1.579   1.712 -11.133  0.00  0.00    -0.311 N 
ATOM     13  C   UNL     1       2.486   2.330 -10.166  0.00  0.00    +0.125 C 
ATOM     14  C   UNL     1       3.376   3.349 -10.885  0.00  0.00    +0.022 C 
ATOM     15  C   UNL     1       4.638   2.658 -11.398  0.00  0.00    +0.002 C 
ATOM     16  C   UNL     1       4.282   1.567 -12.403  0.00  0.00    +0.008 C 
ATOM     17  C   UNL     1       3.046   1.979 -13.198  0.00  0.00    +0.076 C 
ENDBRANCH   5   8
BRANCH   1  20
ATOM     18  C   UNL     1      -0.320  -0.405  -5.122  0.00  0.00    +0.303 C 
ATOM     19  O   UNL     1      -1.511  -0.613  -5.229  0.00  0.00    -0.265 OA
ATOM     20  N   UNL     1       0.329   0.303  -6.068  0.00  0.00    -0.278 N 
ATOM     21  H   UNL     1       1.264   0.530  -5.948  0.00  0.00    +0.155 HD
BRANCH  18  23
ATOM     22  N   UNL     1      -0.222  -1.639  -2.994  0.00  0.00    -0.303 N 
ATOM     23  C   UNL     1       0.426  -0.932  -3.940  0.00  0.00    +0.300 C 
ATOM     24  O   UNL     1       1.617  -0.724  -3.833  0.00  0.00    -0.265 OA
ATOM     25  H   UNL     1      -1.174  -1.805  -3.080  0.00  0.00    +0.150 HD
BRANCH  22  26
ATOM     26  CA  UNL     1       0.510  -2.156  -1.835  0.00  0.00    +0.098 C 
BRANCH  26  28
ATOM     27  C   UNL     1      -1.000  -0.986  -0.225  0.00  0.00    +0.006 C 
ATOM     28  C   UNL     1      -0.456  -2.347  -0.665  0.00  0.00    +0.021 C 
ENDBRANCH  26  28
BRANCH  26  29
ATOM     29  C   UNL     1       1.148  -3.500  -2.194  0.00  0.00    +0.178 C 
BRANCH  29  30
ATOM     30  O   UNL     1       0.122  -4.460  -2.452  0.00  0.00    -0.393 OA
ATOM     31  H   UNL     1       0.455  -5.338  -2.687  0.00  0.00    +0.209 HD
ENDBRANCH  29  30
ENDBRANCH  26  29
ENDBRANCH  22  26
ENDBRANCH  18  23
ENDBRANCH   1  20
TORSDOF 7
