REMARK  Name = ZINC17729120
REMARK  9 active torsions:
REMARK  status: ('A' for Active; 'I' for Inactive)
REMARK    1  A    between atoms: C_1  and  C_2
REMARK    2  A    between atoms: C_6  and  C_26
REMARK    3  A    between atoms: C_8  and  O_11
REMARK    4  A    between atoms: O_11  and  C_12
REMARK    5  A    between atoms: C_12  and  C_14
REMARK    6  A    between atoms: C_14  and  S_15
REMARK    7  A    between atoms: S_15  and  C_16
REMARK    8  A    between atoms: C_26  and  C_27
REMARK    9  A    between atoms: C_26  and  C_28
REMARK                            x       y       z     vdW  Elec       q    Type
REMARK                         _______ _______ _______ _____ _____    ______ ____
ROOT
ATOM      1  C   UNL     1       5.209   2.146   0.112  0.00  0.00    +0.318 C 
ATOM      2  O   UNL     1       5.370   0.964  -0.081  0.00  0.00    -0.250 OA
ENDROOT
BRANCH   1   3
ATOM      3  O   UNL     1       6.264   2.975   0.111  0.00  0.00    -0.460 OA
BRANCH   3   9
ATOM      4  C   UNL     1       9.245   0.321  -1.359  0.00  0.00    +0.007 C 
ATOM      5  C   UNL     1       9.235   1.759  -1.881  0.00  0.00    -0.011 C 
ATOM      6  C   UNL     1      10.306   2.574  -1.152  0.00  0.00    +0.004 C 
ATOM      7  C   UNL     1      10.013   2.574   0.349  0.00  0.00    +0.007 C 
ATOM      8  C   UNL     1       8.639   3.198   0.601  0.00  0.00    +0.032 C 
ATOM      9  C   UNL     1       7.568   2.383  -0.128  0.00  0.00    +0.180 C 
ATOM     10  C   UNL     1       7.861   2.383  -1.630  0.00  0.00    +0.048 C 
BRANCH   8  11
ATOM     11  C   UNL     1       8.346   3.198   2.102  0.00  0.00    -0.011 C 
ATOM     12  C   UNL     1       8.459   1.771   2.644  0.00  0.00    +0.007 C 
ATOM     13  C   UNL     1       9.355   4.097   2.819  0.00  0.00    +0.007 C 
ENDBRANCH   8  11
ENDBRANCH   3   9
ENDBRANCH   1   3
BRANCH   1  14
ATOM     14  C   UNL     1       3.824   2.688   0.352  0.00  0.00    +0.196 C 
BRANCH  14  15
ATOM     15  S   UNL     1       2.623   1.330   0.293  0.00  0.00    -0.088 S 
BRANCH  15  16
ATOM     16  C   UNL     1       1.074   2.116   0.588  0.00  0.00    +0.182 A 
ATOM     17  C   UNL     1      -0.170   1.330   0.618  0.00  0.00    +0.286 A 
ATOM     18  O   UNL     1      -0.144   0.127   0.439  0.00  0.00    -0.265 OA
ATOM     19  N   UNL     1      -1.341   1.963   0.841  0.00  0.00    -0.272 N 
ATOM     20  H   UNL     1      -2.169   1.458   0.859  0.00  0.00    +0.174 HD
ATOM     21  C   UNL     1      -1.360   3.294   1.043  0.00  0.00    +0.343 A 
ATOM     22  O   UNL     1      -2.421   3.852   1.248  0.00  0.00    -0.245 OA
ATOM     23  N   UNL     1      -0.227   4.017   1.018  0.00  0.00    -0.227 N 
ATOM     24  H   UNL     1      -0.269   4.976   1.163  0.00  0.00    +0.194 HD
ATOM     25  N   UNL     1       1.012   3.408   0.785  0.00  0.00    -0.158 NA
ENDBRANCH  15  16
ENDBRANCH  14  15
ENDBRANCH   1  14
TORSDOF 6
