REMARK  Name = ZINC33810242
REMARK  6 active torsions:
REMARK  status: ('A' for Active; 'I' for Inactive)
REMARK    1  A    between atoms: C_1  and  C_2
REMARK    2  A    between atoms: C_5  and  C_8
REMARK    3  A    between atoms: C_8  and  S_9
REMARK    4  A    between atoms: S_9  and  C_10
REMARK    5  A    between atoms: C_17  and  C_27
REMARK    6  A    between atoms: C_30  and  C_32
REMARK                            x       y       z     vdW  Elec       q    Type
REMARK                         _______ _______ _______ _____ _____    ______ ____
ROOT
ATOM      1  C   UNL     1      -6.156  -0.796   2.962  0.00  0.00    +0.171 A 
ATOM      2  N   UNL     1      -6.655   0.415   2.588  0.00  0.00    -0.208 NA
ATOM      3  C   UNL     1      -5.860   1.529   2.632  0.00  0.00    +0.135 A 
ATOM      4  C   UNL     1      -4.572   1.413   3.056  0.00  0.00    +0.072 A 
ATOM      5  C   UNL     1      -4.092   0.139   3.431  0.00  0.00    +0.258 A 
ATOM      6  O   UNL     1      -2.938   0.005   3.810  0.00  0.00    -0.267 OA
ATOM      7  N   UNL     1      -4.910  -0.923   3.371  0.00  0.00    -0.302 N 
ATOM      8  C   UNL     1      -3.672   2.610   3.127  0.00  0.00    +0.128 C 
ATOM      9  C   UNL     1      -4.216   3.754   2.310  0.00  0.00    +0.027 C 
ATOM     10  C   UNL     1      -5.509   3.779   1.924  0.00  0.00    +0.017 C 
ATOM     11  N   UNL     1      -6.355   2.755   2.254  0.00  0.00    -0.302 N 
ATOM     12  C   UNL     1      -6.059   4.934   1.124  0.00  0.00    +0.051 C 
ATOM     13  C   UNL     1      -4.956   5.521   0.242  0.00  0.00    +0.014 C 
ATOM     14  C   UNL     1      -3.800   5.968   1.143  0.00  0.00    +0.080 C 
ATOM     15  C   UNL     1      -3.336   4.794   1.962  0.00  0.00    +0.162 C 
ATOM     16  O   UNL     1      -2.179   4.745   2.330  0.00  0.00    -0.292 OA
ATOM     17  H   UNL     1      -7.442   2.921   2.215  0.00  0.00    +0.153 HD
ATOM     18  H   UNL     1      -4.527  -1.910   3.668  0.00  0.00    +0.171 HD
ENDROOT
BRANCH   8  19
ATOM     19  C   UNL     1      -2.309   2.234   2.604  0.00  0.00    +0.117 A 
ATOM     20  C   UNL     1      -1.162   2.263   3.306  0.00  0.00    +0.046 A 
ATOM     21  C   UNL     1      -0.136   1.835   2.432  0.00  0.00    +0.044 A 
ATOM     22  C   UNL     1      -0.718   1.572   1.248  0.00  0.00    +0.102 A 
ATOM     23  O   UNL     1      -2.033   1.821   1.357  0.00  0.00    -0.464 OA
ATOM     24  C   UNL     1      -0.013   1.086   0.008  0.00  0.00    +0.086 C 
ENDBRANCH   8  19
BRANCH   1  25
ATOM     25  S   UNL     1      -7.195  -2.218   2.900  0.00  0.00    -0.083 S 
BRANCH  25  26
ATOM     26  C   UNL     1      -6.038  -3.479   3.488  0.00  0.00    +0.112 C 
BRANCH  26  31
ATOM     27  C   UNL     1      -8.683  -8.616   3.607  0.00  0.00    +0.044 C 
ATOM     28  C   UNL     1      -7.993  -7.276   3.576  0.00  0.00    -0.050 A 
ATOM     29  C   UNL     1      -7.329  -6.867   2.434  0.00  0.00    +0.003 A 
ATOM     30  C   UNL     1      -6.696  -5.638   2.406  0.00  0.00    +0.005 A 
ATOM     31  C   UNL     1      -6.728  -4.819   3.519  0.00  0.00    -0.037 A 
ATOM     32  C   UNL     1      -7.388  -5.230   4.662  0.00  0.00    +0.005 A 
ATOM     33  C   UNL     1      -8.024  -6.457   4.689  0.00  0.00    +0.003 A 
ENDBRANCH  26  31
ENDBRANCH  25  26
ENDBRANCH   1  25
TORSDOF 4
