REMARK  Name = ZINC59040119
REMARK  12 active torsions:
REMARK  status: ('A' for Active; 'I' for Inactive)
REMARK    1  A    between atoms: C_1  and  O_2
REMARK    2  A    between atoms: O_2  and  C_3
REMARK    3  A    between atoms: C_5  and  C_13
REMARK    4  A    between atoms: C_6  and  N_10
REMARK    5  A    between atoms: C_8  and  O_9
REMARK    6  A    between atoms: N_14  and  N_15
REMARK    7  A    between atoms: C_18  and  S_21
REMARK    8  A    between atoms: S_21  and  C_22
REMARK    9  A    between atoms: C_22  and  C_23
REMARK   10  A    between atoms: N_25  and  C_26
REMARK   11  A    between atoms: C_31  and  S_32
REMARK   12  A    between atoms: S_32  and  C_33
REMARK                            x       y       z     vdW  Elec       q    Type
REMARK                         _______ _______ _______ _____ _____    ______ ____
ROOT
ATOM      1  N   UNL     1       3.525   0.351   6.095  0.00  0.00    -0.205 N 
ATOM      2  C   UNL     1       4.049  -0.255   7.183  0.00  0.00    +0.232 A 
ATOM      3  N   UNL     1       4.085  -1.563   7.417  0.00  0.00    -0.186 NA
ATOM      4  C   UNL     1       4.682  -1.742   8.590  0.00  0.00    +0.211 A 
ATOM      5  N   UNL     1       5.015  -0.548   9.082  0.00  0.00    -0.144 NA
ATOM      6  N   UNL     1       4.648   0.363   8.248  0.00  0.00    -0.245 N 
ATOM      7  H   UNL     1       3.553   1.317   6.017  0.00  0.00    +0.177 HD
ATOM      8  H   UNL     1       4.773   1.319   8.356  0.00  0.00    +0.192 HD
ENDROOT
BRANCH   1  10
ATOM      9  C   UNL     1       2.471   0.241   4.088  0.00  0.00    +0.140 C 
ATOM     10  N   UNL     1       2.987  -0.356   5.159  0.00  0.00    -0.187 NA
BRANCH   9  13
ATOM     11  C   UNL     1       0.663  -0.651   1.004  0.00  0.00    +0.162 A 
ATOM     12  C   UNL     1       1.229   0.103   1.990  0.00  0.00    +0.061 A 
ATOM     13  C   UNL     1       1.885  -0.529   3.069  0.00  0.00    +0.028 A 
ATOM     14  C   UNL     1       1.949  -1.944   3.119  0.00  0.00    +0.138 A 
ATOM     15  C   UNL     1       1.381  -2.685   2.130  0.00  0.00    +0.082 A 
ATOM     16  C   UNL     1       0.728  -2.055   1.066  0.00  0.00    +0.161 A 
BRANCH  14  17
ATOM     17  N   UNL     1       2.635  -2.615   4.247  0.00  0.00    +0.057 N 
ATOM     18  O   UNL     1       3.884  -2.311   4.534  0.00  0.00    -0.126 OA
ATOM     19  O   UNL     1       1.996  -3.517   4.964  0.00  0.00    -0.126 OA
ENDBRANCH  14  17
BRANCH  11  21
ATOM     20  C   UNL     1       0.004   1.383  -0.035  0.00  0.00    +0.277 C 
ATOM     21  O   UNL     1       0.032  -0.046  -0.035  0.00  0.00    -0.491 OA
ENDBRANCH  11  21
BRANCH  16  22
ATOM     22  O   UNL     1       0.161  -2.799   0.089  0.00  0.00    -0.503 OA
ATOM     23  H   UNL     1       0.754  -3.000  -0.647  0.00  0.00    +0.292 HD
ENDBRANCH  16  22
ENDBRANCH   9  13
ENDBRANCH   1  10
BRANCH   4  24
ATOM     24  S   UNL     1       4.982  -3.295   9.367  0.00  0.00    -0.075 S 
BRANCH  24  25
ATOM     25  C   UNL     1       5.815  -2.857  10.917  0.00  0.00    +0.173 C 
BRANCH  25  26
ATOM     26  C   UNL     1       6.133  -4.111  11.689  0.00  0.00    +0.228 C 
ATOM     27  O   UNL     1       5.827  -5.195  11.238  0.00  0.00    -0.275 OA
ATOM     28  N   UNL     1       6.756  -4.030  12.881  0.00  0.00    -0.284 N 
ATOM     29  H   UNL     1       6.929  -3.163  13.279  0.00  0.00    +0.155 HD
BRANCH  28  30
ATOM     30  C   UNL     1       7.155  -5.198  13.545  0.00  0.00    +0.047 A 
ATOM     31  C   UNL     1       7.395  -6.359  12.825  0.00  0.00    +0.024 A 
ATOM     32  C   UNL     1       7.788  -7.510  13.482  0.00  0.00    +0.002 A 
ATOM     33  C   UNL     1       7.943  -7.509  14.856  0.00  0.00    +0.001 A 
ATOM     34  C   UNL     1       7.707  -6.357  15.582  0.00  0.00    +0.016 A 
ATOM     35  C   UNL     1       7.317  -5.195  14.930  0.00  0.00    +0.029 A 
BRANCH  35  36
ATOM     36  S   UNL     1       7.021  -3.723  15.851  0.00  0.00    -0.127 S 
ATOM     37  C   UNL     1       7.355  -4.204  17.568  0.00  0.00    +0.090 C 
ENDBRANCH  35  36
ENDBRANCH  28  30
ENDBRANCH  25  26
ENDBRANCH  24  25
ENDBRANCH   4  24
TORSDOF 10
