REMARK  Name = ZINC35452878
REMARK  11 active torsions:
REMARK  status: ('A' for Active; 'I' for Inactive)
REMARK    1  A    between atoms: C_1  and  C_2
REMARK    2  A    between atoms: C_5  and  O_31
REMARK    3  A    between atoms: C_6  and  N_8
REMARK    4  A    between atoms: C_9  and  C_11
REMARK    5  A    between atoms: C_11  and  N_12
REMARK    6  A    between atoms: N_12  and  C_13
REMARK    7  A    between atoms: N_12  and  S_14
REMARK    8  A    between atoms: S_14  and  C_17
REMARK    9  A    between atoms: C_22  and  C_23
REMARK   10  A    between atoms: C_27  and  C_30
REMARK   11  A    between atoms: O_31  and  C_32
REMARK                            x       y       z     vdW  Elec       q    Type
REMARK                         _______ _______ _______ _____ _____    ______ ____
ROOT
ATOM      1  S   UNL     1       1.676  -1.524   6.659  0.00  0.00    +0.061 S 
ATOM      2  O   UNL     1       1.428  -1.271   8.035  0.00  0.00    -0.153 OA
ATOM      3  O   UNL     1       2.619  -2.493   6.221  0.00  0.00    -0.153 OA
ENDROOT
BRANCH   1   4
ATOM      4  C   UNL     1       2.164   0.011   5.945  0.00  0.00    +0.112 A 
ATOM      5  C   UNL     1       1.236   0.782   5.268  0.00  0.00    +0.076 A 
ATOM      6  C   UNL     1       1.618   1.988   4.708  0.00  0.00    +0.145 A 
ATOM      7  C   UNL     1       2.938   2.421   4.827  0.00  0.00    +0.076 A 
ATOM      8  C   UNL     1       3.863   1.645   5.505  0.00  0.00    +0.032 A 
ATOM      9  C   UNL     1       3.471   0.443   6.067  0.00  0.00    -0.022 A 
ATOM     10  C   UNL     1       4.475  -0.400   6.812  0.00  0.00    +0.046 C 
ATOM     11  N   UNL     1       3.313   3.644   4.252  0.00  0.00    -0.280 N 
ATOM     12  C   UNL     1       2.349   4.515   3.880  0.00  0.00    +0.258 C 
ATOM     13  O   UNL     1       2.649   5.565   3.353  0.00  0.00    -0.271 OA
ATOM     14  C   UNL     1       0.901   4.175   4.121  0.00  0.00    +0.256 C 
ATOM     15  O   UNL     1       0.719   2.759   4.040  0.00  0.00    -0.478 OA
ATOM     16  C   UNL     1       0.489   4.662   5.512  0.00  0.00    +0.062 C 
ATOM     17  H   UNL     1       4.250   3.862   4.124  0.00  0.00    +0.155 HD
ENDBRANCH   1   4
BRANCH   1  18
ATOM     18  N   UNL     1       0.222  -1.938   5.984  0.00  0.00    -0.171 NA
ATOM     19  C   UNL     1      -1.018  -1.353   6.500  0.00  0.00    +0.132 C 
BRANCH  18  20
ATOM     20  C   UNL     1       0.176  -2.889   4.871  0.00  0.00    +0.205 C 
BRANCH  20  22
ATOM     21  N   UNL     1      -0.109  -2.812   2.415  0.00  0.00    -0.281 N 
ATOM     22  C   UNL     1       0.030  -2.137   3.573  0.00  0.00    +0.233 C 
ATOM     23  O   UNL     1       0.038  -0.924   3.571  0.00  0.00    -0.274 OA
ATOM     24  H   UNL     1      -0.193  -3.779   2.424  0.00  0.00    +0.155 HD
BRANCH  21  30
ATOM     25  C   UNL     1      -1.290   1.224  -0.133  0.00  0.00    +0.044 C 
ATOM     26  C   UNL     1      -0.700  -0.161  -0.066  0.00  0.00    -0.048 A 
ATOM     27  C   UNL     1      -0.182  -0.746  -1.208  0.00  0.00    +0.007 A 
ATOM     28  C   UNL     1       0.360  -2.016  -1.153  0.00  0.00    +0.048 A 
ATOM     29  C   UNL     1       0.387  -2.707   0.048  0.00  0.00    +0.141 A 
ATOM     30  C   UNL     1      -0.134  -2.119   1.198  0.00  0.00    +0.076 A 
ATOM     31  C   UNL     1      -0.671  -0.841   1.136  0.00  0.00    +0.030 A 
BRANCH  29  32
ATOM     32  O   UNL     1       0.920  -3.957   0.103  0.00  0.00    -0.493 OA
ATOM     33  C   UNL     1       1.435  -4.497  -1.116  0.00  0.00    +0.277 C 
ENDBRANCH  29  32
ENDBRANCH  21  30
ENDBRANCH  20  22
ENDBRANCH  18  20
ENDBRANCH   1  18
TORSDOF 6
