REMARK  Name = ZINC06825686
REMARK  9 active torsions:
REMARK  status: ('A' for Active; 'I' for Inactive)
REMARK    1  A    between atoms: C_1  and  C_2
REMARK    2  A    between atoms: C_4  and  C_27
REMARK    3  A    between atoms: C_6  and  O_8
REMARK    4  A    between atoms: O_8  and  C_9
REMARK    5  A    between atoms: C_9  and  C_10
REMARK    6  A    between atoms: N_12  and  N_13
REMARK    7  A    between atoms: C_14  and  C_15
REMARK    8  A    between atoms: C_24  and  O_25
REMARK    9  A    between atoms: O_25  and  C_26
REMARK                            x       y       z     vdW  Elec       q    Type
REMARK                         _______ _______ _______ _____ _____    ______ ____
ROOT
ATOM      1  C   UNL     1       4.841   4.123  -0.024  0.00  0.00    +0.270 C 
ATOM      2  O   UNL     1       5.812   3.396  -0.037  0.00  0.00    -0.270 OA
ATOM      3  N   UNL     1       5.000   5.461  -0.018  0.00  0.00    -0.204 N 
ATOM      4  H   UNL     1       4.224   6.043  -0.008  0.00  0.00    +0.177 HD
ENDROOT
BRANCH   3   5
ATOM      5  N   UNL     1       6.288   6.013  -0.028  0.00  0.00    -0.187 NA
ATOM      6  C   UNL     1       6.442   7.304  -0.023  0.00  0.00    +0.142 C 
BRANCH   6   7
ATOM      7  C   UNL     1       7.793   7.883  -0.034  0.00  0.00    +0.044 A 
ATOM      8  C   UNL     1       7.985   9.332  -0.034  0.00  0.00    -0.006 A 
ATOM      9  C   UNL     1       6.896  10.213  -0.013  0.00  0.00    +0.009 A 
ATOM     10  C   UNL     1       7.118  11.557  -0.009  0.00  0.00    +0.001 A 
ATOM     11  C   UNL     1       8.414  12.069  -0.019  0.00  0.00    +0.001 A 
ATOM     12  C   UNL     1       9.495  11.240  -0.035  0.00  0.00    +0.008 A 
ATOM     13  C   UNL     1       9.303   9.848  -0.039  0.00  0.00    -0.017 A 
ATOM     14  C   UNL     1      10.395   8.962  -0.055  0.00  0.00    +0.012 A 
ATOM     15  C   UNL     1      10.199   7.617  -0.059  0.00  0.00    +0.047 A 
ATOM     16  C   UNL     1       8.920   7.061  -0.049  0.00  0.00    +0.129 A 
BRANCH  16  17
ATOM     17  O   UNL     1       8.771   5.712  -0.053  0.00  0.00    -0.494 OA
ATOM     18  C   UNL     1       9.966   4.927  -0.069  0.00  0.00    +0.277 C 
ENDBRANCH  16  17
ENDBRANCH   6   7
ENDBRANCH   3   5
BRANCH   1  19
ATOM     19  C   UNL     1       3.456   3.530  -0.013  0.00  0.00    +0.326 C 
BRANCH  19  20
ATOM     20  O   UNL     1       3.548   2.104  -0.021  0.00  0.00    -0.483 OA
BRANCH  20  26
ATOM     21  C   UNL     1      -1.332   2.114   0.020  0.00  0.00    +0.044 C 
ATOM     22  C   UNL     1      -0.017   1.378   0.010  0.00  0.00    -0.047 A 
ATOM     23  C   UNL     1       0.002  -0.004   0.002  0.00  0.00    +0.007 A 
ATOM     24  C   UNL     1       1.207  -0.681  -0.013  0.00  0.00    -0.047 A 
ATOM     25  C   UNL     1       2.396   0.022  -0.020  0.00  0.00    +0.049 A 
ATOM     26  C   UNL     1       2.380   1.409  -0.013  0.00  0.00    +0.122 A 
ATOM     27  C   UNL     1       1.169   2.087   0.002  0.00  0.00    +0.049 A 
ATOM     28  C   UNL     1       1.224  -2.188  -0.020  0.00  0.00    +0.044 C 
ENDBRANCH  20  26
ENDBRANCH  19  20
ENDBRANCH   1  19
TORSDOF 6
