REMARK  Name = ZINC01228343
REMARK  6 active torsions:
REMARK  status: ('A' for Active; 'I' for Inactive)
REMARK    1  A    between atoms: C_1  and  O_2
REMARK    2  A    between atoms: O_2  and  C_3
REMARK    3  A    between atoms: C_5  and  C_11
REMARK    4  A    between atoms: C_8  and  O_9
REMARK    5  A    between atoms: C_25  and  N_29
REMARK    6  A    between atoms: C_26  and  C_27
REMARK                            x       y       z     vdW  Elec       q    Type
REMARK                         _______ _______ _______ _____ _____    ______ ____
ROOT
ATOM      1  C   UNL     1      -0.013   1.086   0.008  0.00  0.00    +0.105 C 
ATOM      2  C   UNL     1      -0.757   1.581  -1.203  0.00  0.00    +0.092 A 
ATOM      3  C   UNL     1      -0.278   2.629  -1.932  0.00  0.00    +0.152 A 
ATOM      4  C   UNL     1      -1.051   3.073  -3.102  0.00  0.00    +0.060 A 
ATOM      5  C   UNL     1      -0.618   4.142  -3.889  0.00  0.00    +0.015 A 
ATOM      6  C   UNL     1      -1.366   4.533  -4.978  0.00  0.00    +0.001 A 
ATOM      7  C   UNL     1      -2.542   3.869  -5.293  0.00  0.00    +0.004 A 
ATOM      8  C   UNL     1      -2.981   2.812  -4.524  0.00  0.00    +0.047 A 
ATOM      9  C   UNL     1      -2.242   2.402  -3.422  0.00  0.00    +0.143 A 
ATOM     10  O   UNL     1      -2.656   1.369  -2.658  0.00  0.00    -0.422 OA
ATOM     11  C   UNL     1      -1.958   0.960  -1.587  0.00  0.00    +0.345 A 
ATOM     12  O   UNL     1      -2.376   0.022  -0.930  0.00  0.00    -0.245 OA
ATOM     13  O   UNL     1       0.869   3.252  -1.601  0.00  0.00    -0.440 OA
ATOM     14  C   UNL     1       1.757   2.642  -0.795  0.00  0.00    +0.199 C 
ATOM     15  C   UNL     1       1.399   1.603  -0.003  0.00  0.00    +0.098 C 
ENDROOT
BRANCH   1  18
ATOM     16  C   UNL     1      -1.853   1.097   3.308  0.00  0.00    +0.163 A 
ATOM     17  C   UNL     1      -1.210   0.655   2.162  0.00  0.00    +0.054 A 
ATOM     18  C   UNL     1      -0.712   1.569   1.252  0.00  0.00    -0.030 A 
ATOM     19  C   UNL     1      -0.849   2.925   1.484  0.00  0.00    +0.023 A 
ATOM     20  C   UNL     1      -1.494   3.373   2.623  0.00  0.00    +0.063 A 
ATOM     21  C   UNL     1      -1.996   2.462   3.539  0.00  0.00    +0.173 A 
ATOM     22 BR   UNL     1      -1.686   5.229   2.933  0.00  0.00    -0.046 Br
BRANCH  16  24
ATOM     23  C   UNL     1      -2.161  -1.185   3.900  0.00  0.00    +0.277 C 
ATOM     24  O   UNL     1      -2.343   0.199   4.204  0.00  0.00    -0.491 OA
ENDBRANCH  16  24
BRANCH  21  25
ATOM     25  O   UNL     1      -2.625   2.900   4.662  0.00  0.00    -0.503 OA
ATOM     26  H   UNL     1      -2.036   3.035   5.417  0.00  0.00    +0.292 HD
ENDBRANCH  21  25
ENDBRANCH   1  18
BRANCH  14  27
ATOM     27  N   UNL     1       3.056   3.084  -0.774  0.00  0.00    -0.328 N 
ATOM     28  H   UNL     1       3.706   2.653  -0.197  0.00  0.00    +0.145 HD
ATOM     29  H   UNL     1       3.325   3.827  -1.336  0.00  0.00    +0.145 HD
ENDBRANCH  14  27
BRANCH  15  30
ATOM     30  C   UNL     1       2.381   0.988   0.838  0.00  0.00    +0.101 C 
ATOM     31  N   UNL     1       3.160   0.500   1.506  0.00  0.00    -0.191 NA
ENDBRANCH  15  30
TORSDOF 5
