REMARK  Name = ZINC12779931
REMARK  12 active torsions:
REMARK  status: ('A' for Active; 'I' for Inactive)
REMARK    1  A    between atoms: C_1  and  C_2
REMARK    2  A    between atoms: C_5  and  S_8
REMARK    3  A    between atoms: S_8  and  N_11
REMARK    4  A    between atoms: N_11  and  C_12
REMARK    5  A    between atoms: C_12  and  C_14
REMARK    6  A    between atoms: C_12  and  C_17
REMARK    7  A    between atoms: C_14  and  C_15
REMARK    8  A    between atoms: C_14  and  C_16
REMARK    9  A    between atoms: C_17  and  O_19
REMARK   10  A    between atoms: O_19  and  C_20
REMARK   11  A    between atoms: C_20  and  C_22
REMARK   12  A    between atoms: C_20  and  C_23
REMARK                            x       y       z     vdW  Elec       q    Type
REMARK                         _______ _______ _______ _____ _____    ______ ____
ROOT
ATOM      1  C   UNL     1      -1.990   0.843   1.204  0.00  0.00    +0.327 C 
ATOM      2  O   UNL     1      -2.326   0.231   2.191  0.00  0.00    -0.249 OA
ENDROOT
BRANCH   1   3
ATOM      3  C   UNL     1      -0.629   1.487   1.144  0.00  0.00    +0.187 C 
BRANCH   3   4
ATOM      4  C   UNL     1       0.161   0.900  -0.028  0.00  0.00    +0.012 C 
ATOM      5  C   UNL     1      -0.510   1.295  -1.345  0.00  0.00    +0.009 C 
ATOM      6  C   UNL     1       0.194  -0.625   0.091  0.00  0.00    +0.009 C 
ENDBRANCH   3   4
BRANCH   3   7
ATOM      7  N   UNL     1       0.089   1.230   2.394  0.00  0.00    -0.176 NA
ATOM      8  H   UNL     1      -0.018   0.380   2.849  0.00  0.00    +0.149 HD
BRANCH   7   9
ATOM      9  S   UNL     1       1.082   2.391   3.033  0.00  0.00    +0.059 S 
ATOM     10  O   UNL     1       1.609   1.856   4.239  0.00  0.00    -0.153 OA
ATOM     11  O   UNL     1       1.914   2.841   1.972  0.00  0.00    -0.153 OA
BRANCH   9  16
ATOM     12  C   UNL     1      -2.404   7.062   4.593  0.00  0.00    +0.044 C 
ATOM     13  C   UNL     1      -1.533   5.895   4.203  0.00  0.00    -0.050 A 
ATOM     14  C   UNL     1      -1.281   4.886   5.114  0.00  0.00    +0.005 A 
ATOM     15  C   UNL     1      -0.482   3.816   4.757  0.00  0.00    +0.029 A 
ATOM     16  C   UNL     1       0.064   3.755   3.488  0.00  0.00    +0.105 A 
ATOM     17  C   UNL     1      -0.184   4.766   2.579  0.00  0.00    +0.029 A 
ATOM     18  C   UNL     1      -0.987   5.834   2.935  0.00  0.00    +0.005 A 
ENDBRANCH   9  16
ENDBRANCH   7   9
ENDBRANCH   3   7
ENDBRANCH   1   3
BRANCH   1  19
ATOM     19  O   UNL     1      -2.829   0.948   0.161  0.00  0.00    -0.451 OA
BRANCH  19  20
ATOM     20  C   UNL     1      -4.123   0.302   0.289  0.00  0.00    +0.259 C 
ATOM     21  C   UNL     1      -5.126   1.285   0.897  0.00  0.00    +0.062 C 
BRANCH  20  22
ATOM     22  C   UNL     1      -4.606  -0.130  -1.071  0.00  0.00    +0.261 C 
ATOM     23  O   UNL     1      -3.926   0.085  -2.052  0.00  0.00    -0.271 OA
ATOM     24  N   UNL     1      -5.793  -0.755  -1.198  0.00  0.00    -0.258 N 
ATOM     25  C   UNL     1      -6.634  -1.033  -0.024  0.00  0.00    +0.209 C 
ATOM     26  C   UNL     1      -7.211  -2.416  -0.144  0.00  0.00    +0.235 C 
ATOM     27  O   UNL     1      -7.472  -3.045   0.860  0.00  0.00    -0.274 OA
ATOM     28  N   UNL     1      -7.437  -2.968  -1.351  0.00  0.00    -0.283 N 
ATOM     29  C   UNL     1      -7.099  -2.285  -2.524  0.00  0.00    +0.055 A 
ATOM     30  C   UNL     1      -6.264  -1.168  -2.455  0.00  0.00    +0.058 A 
ATOM     31  C   UNL     1      -5.915  -0.487  -3.607  0.00  0.00    +0.025 A 
ATOM     32  C   UNL     1      -6.399  -0.916  -4.830  0.00  0.00    +0.002 A 
ATOM     33  C   UNL     1      -7.229  -2.020  -4.902  0.00  0.00    +0.002 A 
ATOM     34  C   UNL     1      -7.580  -2.706  -3.753  0.00  0.00    +0.025 A 
ATOM     35  H   UNL     1      -7.840  -3.849  -1.408  0.00  0.00    +0.155 HD
ENDBRANCH  20  22
ENDBRANCH  19  20
ENDBRANCH   1  19
TORSDOF 8
