REMARK  Name = ZINC02660485
REMARK  9 active torsions:
REMARK  status: ('A' for Active; 'I' for Inactive)
REMARK    1  A    between atoms: C_1  and  C_2
REMARK    2  A    between atoms: C_2  and  C_3
REMARK    3  A    between atoms: C_2  and  C_4
REMARK    4  A    between atoms: C_4  and  C_5
REMARK    5  A    between atoms: C_5  and  O_6
REMARK    6  A    between atoms: O_6  and  C_7
REMARK    7  A    between atoms: C_10  and  C_13
REMARK    8  A    between atoms: N_14  and  N_15
REMARK    9  A    between atoms: C_16  and  C_18
REMARK                            x       y       z     vdW  Elec       q    Type
REMARK                         _______ _______ _______ _____ _____    ______ ____
ROOT
ATOM      1  C   UNL     1      -2.929   8.946  -4.382  0.00  0.00    +0.138 C 
ATOM      2  N   UNL     1      -2.620   8.649  -3.157  0.00  0.00    -0.187 NA
ENDROOT
BRANCH   1   6
ATOM      3  C   UNL     1      -3.966  12.935  -5.401  0.00  0.00    +0.121 A 
ATOM      4  C   UNL     1      -3.958  11.950  -6.381  0.00  0.00    +0.046 A 
ATOM      5  C   UNL     1      -3.622  10.654  -6.054  0.00  0.00    +0.013 A 
ATOM      6  C   UNL     1      -3.289  10.331  -4.736  0.00  0.00    -0.005 A 
ATOM      7  C   UNL     1      -3.304  11.325  -3.753  0.00  0.00    +0.013 A 
ATOM      8  C   UNL     1      -3.635  12.619  -4.090  0.00  0.00    +0.046 A 
BRANCH   3   9
ATOM      9  O   UNL     1      -4.298  14.211  -5.728  0.00  0.00    -0.492 OA
BRANCH   9  10
ATOM     10  C   UNL     1      -4.286  15.175  -4.672  0.00  0.00    +0.229 C 
BRANCH  10  11
ATOM     11  C   UNL     1      -4.683  16.544  -5.227  0.00  0.00    +0.044 C 
BRANCH  11  13
ATOM     12  C   UNL     1      -4.946  18.966  -4.673  0.00  0.00    +0.007 C 
ATOM     13  C   UNL     1      -4.670  17.575  -4.097  0.00  0.00    -0.014 C 
ATOM     14  C   UNL     1      -5.751  17.224  -3.073  0.00  0.00    +0.007 C 
ENDBRANCH  11  13
ENDBRANCH  10  11
ENDBRANCH   9  10
ENDBRANCH   3   9
ENDBRANCH   1   6
BRANCH   2  15
ATOM     15  N   UNL     1      -2.279   7.332  -2.821  0.00  0.00    -0.203 N 
ATOM     16  C   UNL     1      -1.958   7.024  -1.548  0.00  0.00    +0.270 C 
ATOM     17  O   UNL     1      -1.965   7.889  -0.692  0.00  0.00    -0.268 OA
ATOM     18  H   UNL     1      -2.272   6.643  -3.503  0.00  0.00    +0.178 HD
BRANCH  16  19
ATOM     19  C   UNL     1      -1.600   5.647  -1.196  0.00  0.00    +0.076 A 
ATOM     20  C   UNL     1      -1.243   5.126   0.034  0.00  0.00    +0.024 A 
ATOM     21  C   UNL     1      -0.947   3.775   0.111  0.00  0.00    -0.036 A 
ATOM     22  C   UNL     1      -1.031   3.059  -1.050  0.00  0.00    -0.006 A 
ATOM     23  S   UNL     1      -1.511   4.204  -2.244  0.00  0.00    -0.088 S 
ATOM     24  C   UNL     1      -0.761   1.597  -1.231  0.00  0.00    +0.043 C 
ATOM     25  C   UNL     1      -0.013   1.086   0.008  0.00  0.00    +0.005 C 
ATOM     26  C   UNL     1      -0.735   1.583   1.263  0.00  0.00    +0.005 C 
ATOM     27  C   UNL     1      -0.543   3.091   1.414  0.00  0.00    +0.036 C 
ENDBRANCH  16  19
ENDBRANCH   2  15
TORSDOF 7
