REMARK  Name = ZINC03610800
REMARK  8 active torsions:
REMARK  status: ('A' for Active; 'I' for Inactive)
REMARK    1  A    between atoms: C_1  and  C_2
REMARK    2  A    between atoms: C_2  and  C_17
REMARK    3  A    between atoms: N_5  and  C_9
REMARK    4  A    between atoms: C_9  and  C_10
REMARK    5  A    between atoms: N_12  and  C_13
REMARK    6  A    between atoms: C_13  and  C_14
REMARK    7  A    between atoms: C_13  and  C_15
REMARK    8  A    between atoms: C_13  and  C_16
REMARK                            x       y       z     vdW  Elec       q    Type
REMARK                         _______ _______ _______ _____ _____    ______ ____
ROOT
ATOM      1  C   UNL     1       1.555   2.654  -1.248  0.00  0.00    +0.047 C 
ATOM      2  C   UNL     1       1.437   1.773  -0.002  0.00  0.00    +0.136 C 
ATOM      3  C   UNL     1       0.153   0.969  -0.036  0.00  0.00    +0.251 C 
ATOM      4  O   UNL     1      -0.980   1.400  -0.057  0.00  0.00    -0.272 OA
ATOM      5  N   UNL     1       0.532  -0.324  -0.045  0.00  0.00    -0.215 N 
ATOM      6  C   UNL     1       1.864  -0.448  -0.021  0.00  0.00    +0.310 C 
ATOM      7  O   UNL     1       2.444  -1.516  -0.024  0.00  0.00    -0.252 OA
ATOM      8  N   UNL     1       2.490   0.743   0.005  0.00  0.00    -0.281 N 
ATOM      9  H   UNL     1       3.448   0.893   0.025  0.00  0.00    +0.152 HD
ENDROOT
BRANCH   2  10
ATOM     10  C   UNL     1       1.506   2.610   1.249  0.00  0.00    -0.008 A 
ATOM     11  C   UNL     1       2.489   2.392   2.165  0.00  0.00    +0.007 A 
ATOM     12  C   UNL     1       2.568   3.155   3.328  0.00  0.00    +0.001 A 
ATOM     13  C   UNL     1       1.666   4.142   3.582  0.00  0.00    +0.008 A 
ATOM     14  C   UNL     1       0.637   4.397   2.659  0.00  0.00    -0.018 A 
ATOM     15  C   UNL     1       0.559   3.623   1.474  0.00  0.00    -0.012 A 
ATOM     16  C   UNL     1      -0.473   3.874   0.554  0.00  0.00    +0.009 A 
ATOM     17  C   UNL     1      -1.376   4.861   0.807  0.00  0.00    +0.001 A 
ATOM     18  C   UNL     1      -1.296   5.625   1.970  0.00  0.00    +0.001 A 
ATOM     19  C   UNL     1      -0.314   5.407   2.886  0.00  0.00    +0.008 A 
ENDBRANCH   2  10
BRANCH   5  20
ATOM     20  C   UNL     1      -0.399  -1.454  -0.076  0.00  0.00    +0.213 C 
BRANCH  20  21
ATOM     21  C   UNL     1      -0.692  -1.825  -1.507  0.00  0.00    +0.231 C 
ATOM     22  O   UNL     1      -0.174  -1.205  -2.412  0.00  0.00    -0.274 OA
ATOM     23  N   UNL     1      -1.530  -2.845  -1.781  0.00  0.00    -0.309 N 
ATOM     24  H   UNL     1      -1.944  -3.340  -1.058  0.00  0.00    +0.149 HD
BRANCH  23  25
ATOM     25  C   UNL     1      -1.815  -3.205  -3.172  0.00  0.00    +0.026 C 
ATOM     26  C   UNL     1      -0.513  -3.596  -3.875  0.00  0.00    +0.031 C 
ATOM     27  C   UNL     1      -2.787  -4.385  -3.205  0.00  0.00    +0.031 C 
ATOM     28  C   UNL     1      -2.442  -2.008  -3.891  0.00  0.00    +0.031 C 
ENDBRANCH  23  25
ENDBRANCH  20  21
ENDBRANCH   5  20
TORSDOF 4
