REMARK  Name = ZINC65397742
REMARK  5 active torsions:
REMARK  status: ('A' for Active; 'I' for Inactive)
REMARK    1  A    between atoms: C_1  and  C_2
REMARK    2  A    between atoms: C_4  and  C_14
REMARK    3  A    between atoms: N_16  and  C_17
REMARK    4  A    between atoms: C_17  and  C_18
REMARK    5  A    between atoms: C_21  and  C_23
REMARK                            x       y       z     vdW  Elec       q    Type
REMARK                         _______ _______ _______ _____ _____    ______ ____
ROOT
ATOM      1  C   UNL     1      -2.451  -0.345  -0.838  0.00  0.00    +0.243 C 
ATOM      2  O   UNL     1      -3.544  -0.847  -0.647  0.00  0.00    -0.270 OA
ATOM      3  N   UNL     1      -2.237   0.408  -1.935  0.00  0.00    -0.306 N 
ATOM      4  H   UNL     1      -1.367   0.807  -2.087  0.00  0.00    +0.149 HD
ENDROOT
BRANCH   1   7
ATOM      5  C   UNL     1      -0.019   1.526   0.010  0.00  0.00    +0.035 C 
ATOM      6  C   UNL     1       0.002  -0.004   0.002  0.00  0.00    +0.129 C 
ATOM      7  C   UNL     1      -1.406  -0.553   0.091  0.00  0.00    +0.051 C 
ATOM      8  C   UNL     1      -1.473  -1.277   1.225  0.00  0.00    +0.098 C 
ATOM      9  N   UNL     1      -0.290  -1.275   1.893  0.00  0.00    -0.269 N 
ATOM     10  N   UNL     1       0.673  -0.517   1.209  0.00  0.00    -0.230 N 
ATOM     11  C   UNL     1       1.990  -0.293   1.591  0.00  0.00    +0.138 A 
ATOM     12  C   UNL     1       2.473  -0.859   2.767  0.00  0.00    +0.045 A 
ATOM     13  C   UNL     1       3.786  -0.628   3.135  0.00  0.00    +0.005 A 
ATOM     14  C   UNL     1       4.575   0.164   2.312  0.00  0.00    +0.020 A 
ATOM     15  C   UNL     1       4.032   0.694   1.159  0.00  0.00    +0.113 A 
ATOM     16  N   UNL     1       2.777   0.453   0.830  0.00  0.00    -0.239 NA
ATOM     17  H   UNL     1      -0.131  -1.737   2.731  0.00  0.00    +0.170 HD
ENDBRANCH   1   7
BRANCH   3  18
ATOM     18  C   UNL     1      -3.320   0.623  -2.898  0.00  0.00    +0.157 C 
BRANCH  18  19
ATOM     19  C   UNL     1      -2.825   1.493  -4.025  0.00  0.00    +0.064 C 
ATOM     20  N   UNL     1      -1.638   1.987  -4.162  0.00  0.00    -0.156 NA
ATOM     21  N   UNL     1      -1.508   2.749  -5.318  0.00  0.00    -0.153 NA
ATOM     22  C   UNL     1      -2.616   2.795  -6.005  0.00  0.00    +0.076 C 
ATOM     23  C   UNL     1      -3.616   1.960  -5.230  0.00  0.00    +0.112 C 
BRANCH  22  24
ATOM     24  C   UNL     1      -2.845   3.504  -7.274  0.00  0.00    -0.002 A 
ATOM     25  C   UNL     1      -4.101   3.460  -7.887  0.00  0.00    +0.010 A 
ATOM     26  C   UNL     1      -4.307   4.127  -9.076  0.00  0.00    +0.001 A 
ATOM     27  C   UNL     1      -3.276   4.839  -9.662  0.00  0.00    +0.000 A 
ATOM     28  C   UNL     1      -2.030   4.887  -9.062  0.00  0.00    +0.001 A 
ATOM     29  C   UNL     1      -1.809   4.231  -7.870  0.00  0.00    +0.010 A 
ENDBRANCH  22  24
ENDBRANCH  18  19
ENDBRANCH   3  18
TORSDOF 4
