REMARK  Name = ZINC21078737
REMARK  12 active torsions:
REMARK  status: ('A' for Active; 'I' for Inactive)
REMARK    1  A    between atoms: C_1  and  C_2
REMARK    2  A    between atoms: C_5  and  N_9
REMARK    3  A    between atoms: C_6  and  C_8
REMARK    4  A    between atoms: C_10  and  C_12
REMARK    5  A    between atoms: C_12  and  C_13
REMARK    6  A    between atoms: C_13  and  S_14
REMARK    7  A    between atoms: S_14  and  C_15
REMARK    8  A    between atoms: N_20  and  N_21
REMARK    9  A    between atoms: C_22  and  C_23
REMARK   10  A    between atoms: C_26  and  O_30
REMARK   11  A    between atoms: C_27  and  O_29
REMARK   12  A    between atoms: O_30  and  C_31
REMARK                            x       y       z     vdW  Elec       q    Type
REMARK                         _______ _______ _______ _____ _____    ______ ____
ROOT
ATOM      1  C   UNL     1       0.001  -0.004  -0.029  0.00  0.00    +0.210 A 
ATOM      2  N   UNL     1      -0.018   1.362  -0.031  0.00  0.00    -0.186 NA
ATOM      3  C   UNL     1       1.276   1.803  -0.037  0.00  0.00    +0.232 A 
ATOM      4  N   UNL     1       2.061   0.753  -0.040  0.00  0.00    -0.245 N 
ATOM      5  N   UNL     1       1.253  -0.392  -0.035  0.00  0.00    -0.144 NA
ATOM      6  N   UNL     1       1.686   3.128  -0.041  0.00  0.00    -0.205 N 
ATOM      7  H   UNL     1       0.939   3.935  -0.038  0.00  0.00    +0.177 HD
ATOM      8  H   UNL     1       3.154   0.883  -0.045  0.00  0.00    +0.192 HD
ENDROOT
BRANCH   6   9
ATOM      9  N   UNL     1       3.053   3.438  -0.048  0.00  0.00    -0.188 NA
ATOM     10  C   UNL     1       3.437   4.679  -0.051  0.00  0.00    +0.138 C 
BRANCH  10  11
ATOM     11  C   UNL     1       4.874   5.005  -0.059  0.00  0.00    -0.002 A 
ATOM     12  C   UNL     1       5.825   3.982  -0.056  0.00  0.00    +0.013 A 
ATOM     13  C   UNL     1       7.169   4.289  -0.069  0.00  0.00    +0.050 A 
ATOM     14  C   UNL     1       7.581   5.614  -0.072  0.00  0.00    +0.161 A 
ATOM     15  C   UNL     1       6.639   6.640  -0.069  0.00  0.00    +0.159 A 
ATOM     16  C   UNL     1       5.289   6.340  -0.062  0.00  0.00    +0.058 A 
BRANCH  15  17
ATOM     17  O   UNL     1       7.046   7.937  -0.072  0.00  0.00    -0.503 OA
ATOM     18  H   UNL     1       6.303   8.748  -0.070  0.00  0.00    +0.292 HD
ENDBRANCH  15  17
BRANCH  14  19
ATOM     19  O   UNL     1       8.908   5.912  -0.079  0.00  0.00    -0.491 OA
ATOM     20  C   UNL     1       9.819   4.811  -0.082  0.00  0.00    +0.277 C 
ENDBRANCH  14  19
ENDBRANCH  10  11
ENDBRANCH   6   9
BRANCH   1  21
ATOM     21  S   UNL     1      -1.411  -1.059  -0.021  0.00  0.00    -0.084 S 
BRANCH  21  22
ATOM     22  C   UNL     1      -0.708  -2.731  -0.022  0.00  0.00    +0.086 C 
BRANCH  22  23
ATOM     23  C   UNL     1      -1.840  -3.760  -0.016  0.00  0.00    +0.107 C 
BRANCH  23  25
ATOM     24  N   UNL     1      -2.071  -6.223  -0.012  0.00  0.00    -0.285 N 
ATOM     25  C   UNL     1      -1.256  -5.149  -0.017  0.00  0.00    +0.218 C 
ATOM     26  O   UNL     1      -0.053  -5.302  -0.022  0.00  0.00    -0.275 OA
ATOM     27  H   UNL     1      -3.159  -6.087   0.085  0.00  0.00    +0.155 HD
BRANCH  24  32
ATOM     28  C   UNL     1       0.105 -11.440  -0.489  0.00  0.00    +0.044 C 
ATOM     29  C   UNL     1      -0.473 -10.054  -0.362  0.00  0.00    -0.050 A 
ATOM     30  C   UNL     1       0.222  -8.968  -0.863  0.00  0.00    +0.005 A 
ATOM     31  C   UNL     1      -0.305  -7.697  -0.748  0.00  0.00    +0.024 A 
ATOM     32  C   UNL     1      -1.534  -7.510  -0.129  0.00  0.00    +0.036 A 
ATOM     33  C   UNL     1      -2.227  -8.601   0.378  0.00  0.00    -0.029 A 
ATOM     34  C   UNL     1      -1.696  -9.871   0.255  0.00  0.00    +0.008 A 
ATOM     35  C   UNL     1      -3.558  -8.402   1.056  0.00  0.00    +0.045 C 
ENDBRANCH  24  32
ENDBRANCH  23  25
ENDBRANCH  22  23
ENDBRANCH  21  22
ENDBRANCH   1  21
TORSDOF 9
