REMARK  Name = ZINC07519757
REMARK  6 active torsions:
REMARK  status: ('A' for Active; 'I' for Inactive)
REMARK    1  A    between atoms: C_1  and  C_2
REMARK    2  A    between atoms: C_5  and  C_21
REMARK    3  A    between atoms: C_6  and  S_9
REMARK    4  A    between atoms: S_9  and  N_12
REMARK    5  A    between atoms: N_12  and  N_13
REMARK    6  A    between atoms: C_14  and  C_16
REMARK                            x       y       z     vdW  Elec       q    Type
REMARK                         _______ _______ _______ _____ _____    ______ ____
ROOT
ATOM      1  S   UNL     1      -1.998   1.233  -0.813  0.00  0.00    +0.075 S 
ATOM      2  O   UNL     1      -0.658   1.183  -1.284  0.00  0.00    -0.152 OA
ATOM      3  O   UNL     1      -2.334   1.734   0.473  0.00  0.00    -0.152 OA
ENDROOT
BRANCH   1   9
ATOM      4  C   UNL     1      -5.134  -2.575   0.922  0.00  0.00    +0.045 C 
ATOM      5  C   UNL     1      -4.078  -2.122  -0.054  0.00  0.00    -0.029 A 
ATOM      6  C   UNL     1      -3.599  -2.998  -1.009  0.00  0.00    +0.025 A 
ATOM      7  C   UNL     1      -2.631  -2.583  -1.905  0.00  0.00    +0.046 A 
ATOM      8  C   UNL     1      -2.146  -1.288  -1.848  0.00  0.00    -0.004 A 
ATOM      9  C   UNL     1      -2.620  -0.414  -0.890  0.00  0.00    +0.130 A 
ATOM     10  C   UNL     1      -3.589  -0.829   0.007  0.00  0.00    +0.071 A 
ATOM     11 CL   UNL     1      -4.191   0.271   1.207  0.00  0.00    -0.081 Cl
ATOM     12  C   UNL     1      -1.095  -0.833  -2.828  0.00  0.00    +0.047 C 
ATOM     13 CL   UNL     1      -2.029  -3.683  -3.105  0.00  0.00    -0.083 Cl
ENDBRANCH   1   9
BRANCH   1  14
ATOM     14  N   UNL     1      -2.852   2.131  -1.910  0.00  0.00    -0.108 NA
ATOM     15  H   UNL     1      -2.391   2.574  -2.639  0.00  0.00    +0.172 HD
BRANCH  14  16
ATOM     16  N   UNL     1      -4.242   2.253  -1.784  0.00  0.00    -0.225 N 
ATOM     17  C   UNL     1      -4.809   3.474  -1.720  0.00  0.00    +0.294 C 
ATOM     18  O   UNL     1      -4.114   4.471  -1.776  0.00  0.00    -0.265 OA
ATOM     19  H   UNL     1      -4.797   1.458  -1.740  0.00  0.00    +0.171 HD
BRANCH  17  20
ATOM     20  C   UNL     1      -6.264   3.601  -1.583  0.00  0.00    +0.190 A 
ATOM     21  C   UNL     1      -6.963   4.772  -1.506  0.00  0.00    +0.054 A 
ATOM     22  C   UNL     1      -8.318   4.425  -1.383  0.00  0.00    +0.042 A 
ATOM     23  C   UNL     1      -8.385   3.075  -1.390  0.00  0.00    +0.196 A 
ATOM     24  O   UNL     1      -7.146   2.583  -1.515  0.00  0.00    -0.458 OA
ENDBRANCH  17  20
ENDBRANCH  14  16
ENDBRANCH   1  14
TORSDOF 4
