REMARK  Name = ZINC01431478
REMARK  4 active torsions:
REMARK  status: ('A' for Active; 'I' for Inactive)
REMARK    1  A    between atoms: C_1  and  C_2
REMARK    2  A    between atoms: C_2  and  C_4
REMARK    3  A    between atoms: C_2  and  S_21
REMARK    4  A    between atoms: S_21  and  C_22
REMARK                            x       y       z     vdW  Elec       q    Type
REMARK                         _______ _______ _______ _____ _____    ______ ____
ROOT
ATOM      1  C   UNL     1      -5.382   1.539   0.139  0.00  0.00    +0.149 A 
ATOM      2  N   UNL     1      -5.678   0.469  -0.579  0.00  0.00    -0.198 NA
ATOM      3  C   UNL     1      -6.866  -0.117  -0.445  0.00  0.00    +0.217 A 
ATOM      4  N   UNL     1      -7.759   0.382   0.403  0.00  0.00    -0.181 NA
ATOM      5  C   UNL     1      -7.460   1.461   1.118  0.00  0.00    +0.227 A 
ATOM      6  N   UNL     1      -6.268   2.038   0.983  0.00  0.00    -0.198 NA
ATOM      7  N   UNL     1      -8.385   1.983   2.001  0.00  0.00    -0.269 N 
ATOM      8  C   UNL     1      -8.019   3.087   2.899  0.00  0.00    +0.114 C 
ATOM      9  C   UNL     1      -8.566   2.757   4.294  0.00  0.00    +0.024 C 
ATOM     10  C   UNL     1     -10.092   2.695   4.225  0.00  0.00    +0.038 C 
ATOM     11  C   UNL     1     -10.532   1.786   3.107  0.00  0.00    -0.026 A 
ATOM     12  C   UNL     1      -9.688   1.473   2.052  0.00  0.00    +0.040 A 
ATOM     13  C   UNL     1     -10.129   0.639   1.030  0.00  0.00    +0.024 A 
ATOM     14  C   UNL     1     -11.409   0.123   1.064  0.00  0.00    +0.002 A 
ATOM     15  C   UNL     1     -12.252   0.437   2.114  0.00  0.00    +0.000 A 
ATOM     16  C   UNL     1     -11.813   1.260   3.137  0.00  0.00    +0.005 A 
ATOM     17  N   UNL     1      -7.172  -1.237  -1.191  0.00  0.00    -0.327 N 
ATOM     18  H   UNL     1      -8.039  -1.661  -1.095  0.00  0.00    +0.145 HD
ATOM     19  H   UNL     1      -6.519  -1.601  -1.809  0.00  0.00    +0.145 HD
ENDROOT
BRANCH   1  21
ATOM     20  C   UNL     1      -3.989   2.973  -1.328  0.00  0.00    +0.027 C 
ATOM     21  C   UNL     1      -4.034   2.195  -0.011  0.00  0.00    +0.118 C 
BRANCH  21  22
ATOM     22  S   UNL     1      -2.740   0.924  -0.015  0.00  0.00    -0.095 S 
BRANCH  22  23
ATOM     23  C   UNL     1      -1.238   1.845  -0.047  0.00  0.00    +0.098 A 
ATOM     24  C   UNL     1      -0.018   1.175  -0.056  0.00  0.00    +0.035 A 
ATOM     25  C   UNL     1       1.153   1.910  -0.087  0.00  0.00    +0.004 A 
ATOM     26  C   UNL     1       1.065   3.296  -0.101  0.00  0.00    +0.020 A 
ATOM     27  C   UNL     1      -0.179   3.895  -0.084  0.00  0.00    +0.112 A 
ATOM     28  N   UNL     1      -1.280   3.169  -0.056  0.00  0.00    -0.249 NA
ENDBRANCH  22  23
ENDBRANCH  21  22
ENDBRANCH   1  21
TORSDOF 3
