REMARK  Name = ZINC43233306
REMARK  7 active torsions:
REMARK  status: ('A' for Active; 'I' for Inactive)
REMARK    1  A    between atoms: C_1  and  C_2
REMARK    2  A    between atoms: C_2  and  C_4
REMARK    3  A    between atoms: C_2  and  N_21
REMARK    4  A    between atoms: C_4  and  C_6
REMARK    5  A    between atoms: C_4  and  O_12
REMARK    6  A    between atoms: N_9  and  C_11
REMARK    7  A    between atoms: O_12  and  C_13
REMARK                            x       y       z     vdW  Elec       q    Type
REMARK                         _______ _______ _______ _____ _____    ______ ____
ROOT
ATOM      1  C   UNL     1       0.744  -0.517   1.254  0.00  0.00    +0.192 C 
ENDROOT
BRANCH   1   2
ATOM      2  C   UNL     1      -0.001  -0.178   2.519  0.00  0.00    +0.028 A 
ATOM      3  C   UNL     1       0.008   1.058   3.173  0.00  0.00    +0.141 A 
ATOM      4  N   UNL     1      -0.755   0.966   4.232  0.00  0.00    -0.180 NA
ATOM      5  N   UNL     1      -1.274  -0.334   4.285  0.00  0.00    -0.274 N 
ATOM      6  C   UNL     1      -0.801  -1.014   3.220  0.00  0.00    +0.115 A 
ATOM      7  C   UNL     1      -2.177  -0.860   5.312  0.00  0.00    +0.172 C 
ENDBRANCH   1   2
BRANCH   1   9
ATOM      8  C   UNL     1      -0.055   1.552   0.104  0.00  0.00    -0.010 C 
ATOM      9  C   UNL     1      -0.027   0.024   0.048  0.00  0.00    -0.032 C 
BRANCH   9  10
ATOM     10  N   UNL     1       0.635  -0.409  -1.191  0.00  0.00    +0.382 N 
ATOM     11  H   UNL     1       0.126  -0.052  -1.986  0.00  0.00    -0.089 HD
ATOM     12  H   UNL     1       1.579  -0.054  -1.209  0.00  0.00    -0.089 HD
ATOM     13  H   UNL     1       0.653  -1.417  -1.228  0.00  0.00    -0.089 HD
ENDBRANCH   9  10
ENDBRANCH   1   9
BRANCH   1  14
ATOM     14  O   UNL     1       2.044   0.076   1.292  0.00  0.00    -0.484 OA
BRANCH  14  15
ATOM     15  C   UNL     1       3.067  -0.645   0.763  0.00  0.00    +0.141 A 
ATOM     16  C   UNL     1       2.810  -1.843   0.115  0.00  0.00    +0.067 A 
ATOM     17  C   UNL     1       3.852  -2.575  -0.423  0.00  0.00    +0.045 A 
ATOM     18  C   UNL     1       5.152  -2.112  -0.315  0.00  0.00    +0.021 A 
ATOM     19  C   UNL     1       5.411  -0.918   0.331  0.00  0.00    +0.025 A 
ATOM     20  C   UNL     1       4.371  -0.180   0.866  0.00  0.00    +0.083 A 
ATOM     21 CL   UNL     1       4.697   1.323   1.671  0.00  0.00    -0.080 Cl
ATOM     22 CL   UNL     1       3.531  -4.076  -1.234  0.00  0.00    -0.083 Cl
ENDBRANCH  14  15
ENDBRANCH   1  14
TORSDOF 5
