REMARK  Name = ZINC61808910
REMARK  7 active torsions:
REMARK  status: ('A' for Active; 'I' for Inactive)
REMARK    1  A    between atoms: C_1  and  C_2
REMARK    2  A    between atoms: C_5  and  C_17
REMARK    3  A    between atoms: C_6  and  N_8
REMARK    4  A    between atoms: N_8  and  C_9
REMARK    5  A    between atoms: N_8  and  C_13
REMARK    6  A    between atoms: C_9  and  C_10
REMARK    7  A    between atoms: C_13  and  C_14
REMARK                            x       y       z     vdW  Elec       q    Type
REMARK                         _______ _______ _______ _____ _____    ______ ____
ROOT
ATOM      1  N   UNL     1       0.034  -2.772   2.372  0.00  0.00    -0.311 N 
ENDROOT
BRANCH   1   7
ATOM      2  C   UNL     1      -0.312   1.569   0.110  0.00  0.00    +0.044 C 
ATOM      3  C   UNL     1      -0.175   0.069   0.059  0.00  0.00    -0.049 A 
ATOM      4  C   UNL     1      -0.092  -0.573  -1.167  0.00  0.00    +0.005 A 
ATOM      5  C   UNL     1       0.033  -1.944  -1.227  0.00  0.00    +0.021 A 
ATOM      6  C   UNL     1       0.076  -2.693  -0.048  0.00  0.00    +0.073 A 
ATOM      7  C   UNL     1      -0.008  -2.039   1.192  0.00  0.00    +0.048 A 
ATOM      8  C   UNL     1      -0.128  -0.656   1.232  0.00  0.00    +0.027 A 
BRANCH   6   9
ATOM      9  C   UNL     1       0.205  -4.118  -0.103  0.00  0.00    +0.101 C 
ATOM     10  N   UNL     1       0.308  -5.248  -0.147  0.00  0.00    -0.191 NA
ENDBRANCH   6   9
ENDBRANCH   1   7
BRANCH   1  11
ATOM     11  C   UNL     1      -1.206  -3.073   3.091  0.00  0.00    +0.201 C 
BRANCH  11  12
ATOM     12  C   UNL     1      -1.685  -4.450   2.710  0.00  0.00    +0.228 C 
ATOM     13  O   UNL     1      -0.997  -5.159   2.007  0.00  0.00    -0.274 OA
ATOM     14  N   UNL     1      -2.879  -4.894   3.151  0.00  0.00    -0.328 N 
ATOM     15  H   UNL     1      -3.430  -4.327   3.713  0.00  0.00    +0.145 HD
ATOM     16  H   UNL     1      -3.188  -5.781   2.906  0.00  0.00    +0.145 HD
ENDBRANCH  11  12
ENDBRANCH   1  11
BRANCH   1  17
ATOM     17  C   UNL     1       1.318  -3.242   2.898  0.00  0.00    +0.201 C 
BRANCH  17  18
ATOM     18  C   UNL     1       1.896  -2.200   3.820  0.00  0.00    +0.228 C 
ATOM     19  O   UNL     1       1.294  -1.165   4.019  0.00  0.00    -0.274 OA
ATOM     20  N   UNL     1       3.081  -2.416   4.423  0.00  0.00    -0.328 N 
ATOM     21  H   UNL     1       3.562  -3.243   4.264  0.00  0.00    +0.145 HD
ATOM     22  H   UNL     1       3.453  -1.745   5.017  0.00  0.00    +0.145 HD
ENDBRANCH  17  18
ENDBRANCH   1  17
TORSDOF 6
