REMARK  Name = ZINC55182633
REMARK  7 active torsions:
REMARK  status: ('A' for Active; 'I' for Inactive)
REMARK    1  A    between atoms: C_1  and  O_2
REMARK    2  A    between atoms: O_2  and  C_3
REMARK    3  A    between atoms: C_8  and  C_9
REMARK    4  A    between atoms: C_10  and  C_11
REMARK    5  A    between atoms: C_11  and  N_12
REMARK    6  A    between atoms: C_18  and  C_20
REMARK    7  A    between atoms: C_20  and  C_21
REMARK                            x       y       z     vdW  Elec       q    Type
REMARK                         _______ _______ _______ _____ _____    ______ ____
ROOT
ATOM      1  N   UNL     1       0.852  -6.320  -1.807  0.00  0.00    -0.286 NA
ATOM      2  C   UNL     1       1.310  -7.445  -0.976  0.00  0.00    +0.104 C 
ATOM      3  C   UNL     1       2.236  -8.329  -1.812  0.00  0.00    +0.119 C 
ATOM      4  N   UNL     1       1.602  -8.653  -3.087  0.00  0.00    -0.313 N 
ATOM      5  C   UNL     1       0.573  -7.960  -3.584  0.00  0.00    +0.231 C 
ATOM      6  O   UNL     1       0.125  -8.278  -4.665  0.00  0.00    -0.274 OA
ATOM      7  C   UNL     1      -0.053  -6.802  -2.859  0.00  0.00    +0.152 C 
ATOM      8  H   UNL     1       1.943  -9.405  -3.596  0.00  0.00    +0.149 HD
ENDROOT
BRANCH   1   9
ATOM      9  C   UNL     1       0.204  -5.288  -0.987  0.00  0.00    +0.112 C 
BRANCH   9  11
ATOM     10  C   UNL     1       1.336  -3.229  -0.274  0.00  0.00    +0.008 C 
ATOM     11  C   UNL     1       1.249  -4.550  -0.190  0.00  0.00    -0.011 C 
BRANCH  10  17
ATOM     12  C   UNL     1       2.455  -1.111   0.420  0.00  0.00    +0.127 A 
ATOM     13  C   UNL     1       3.415  -0.440   1.161  0.00  0.00    +0.046 A 
ATOM     14  C   UNL     1       4.279  -1.147   1.976  0.00  0.00    +0.004 A 
ATOM     15  C   UNL     1       4.191  -2.525   2.060  0.00  0.00    +0.001 A 
ATOM     16  C   UNL     1       3.240  -3.207   1.329  0.00  0.00    +0.011 A 
ATOM     17  C   UNL     1       2.360  -2.505   0.506  0.00  0.00    +0.016 A 
BRANCH  12  19
ATOM     18  C   UNL     1       1.761   1.002  -0.419  0.00  0.00    +0.277 C 
ATOM     19  O   UNL     1       1.605  -0.418  -0.382  0.00  0.00    -0.495 OA
ENDBRANCH  12  19
ENDBRANCH  10  17
ENDBRANCH   9  11
ENDBRANCH   1   9
BRANCH   7  20
ATOM     20  C   UNL     1      -0.328  -5.670  -3.851  0.00  0.00    +0.124 C 
BRANCH  20  21
ATOM     21  C   UNL     1       0.975  -5.172  -4.419  0.00  0.00    +0.218 C 
ATOM     22  O   UNL     1       2.025  -5.625  -4.014  0.00  0.00    -0.276 OA
ATOM     23  N   UNL     1       0.975  -4.225  -5.378  0.00  0.00    -0.294 N 
ATOM     24  C   UNL     1      -0.295  -3.678  -5.859  0.00  0.00    +0.149 C 
ATOM     25  C   UNL     1      -0.410  -2.194  -5.544  0.00  0.00    +0.248 C 
ATOM     26  O   UNL     1       0.638  -1.468  -6.197  0.00  0.00    -0.490 OA
ATOM     27  C   UNL     1       1.790  -1.333  -5.494  0.00  0.00    +0.125 A 
ATOM     28  C   UNL     1       2.160  -0.096  -4.986  0.00  0.00    +0.046 A 
ATOM     29  C   UNL     1       3.312   0.022  -4.234  0.00  0.00    +0.004 A 
ATOM     30  C   UNL     1       4.098  -1.087  -3.982  0.00  0.00    +0.001 A 
ATOM     31  C   UNL     1       3.742  -2.320  -4.501  0.00  0.00    +0.009 A 
ATOM     32  C   UNL     1       2.604  -2.433  -5.268  0.00  0.00    +0.012 A 
ATOM     33  C   UNL     1       2.246  -3.744  -5.928  0.00  0.00    +0.146 C 
ENDBRANCH  20  21
ENDBRANCH   7  20
TORSDOF 6
