REMARK  Name = ZINC63161825
REMARK  3 active torsions:
REMARK  status: ('A' for Active; 'I' for Inactive)
REMARK    1  A    between atoms: C_4  and  C_7
REMARK    2  A    between atoms: N_15  and  C_16
REMARK    3  A    between atoms: C_18  and  C_24
REMARK                            x       y       z     vdW  Elec       q    Type
REMARK                         _______ _______ _______ _____ _____    ______ ____
ROOT
ATOM      1  C   UNL     1       4.817  -0.461   0.271  0.00  0.00    +0.022 C 
ATOM      2  C   UNL     1       5.542  -1.247   1.367  0.00  0.00    +0.027 C 
ATOM      3  C   UNL     1       6.655  -2.088   0.734  0.00  0.00    +0.110 C 
ATOM      4  N   UNL     1       6.072  -2.925  -0.324  0.00  0.00    -0.285 N 
ATOM      5  C   UNL     1       5.278  -2.280  -1.378  0.00  0.00    +0.110 C 
ATOM      6  C   UNL     1       4.180  -1.436  -0.722  0.00  0.00    +0.027 C 
ATOM      7  C   UNL     1       6.263  -4.259  -0.327  0.00  0.00    +0.307 C 
ATOM      8  O   UNL     1       6.999  -4.770   0.494  0.00  0.00    -0.252 OA
ATOM      9  N   UNL     1       5.636  -5.027  -1.240  0.00  0.00    -0.265 N 
ATOM     10  H   UNL     1       5.050  -4.620  -1.897  0.00  0.00    +0.157 HD
ENDROOT
BRANCH   9  11
ATOM     11  C   UNL     1       5.832  -6.416  -1.242  0.00  0.00    +0.100 A 
ATOM     12  C   UNL     1       5.973  -7.094  -2.421  0.00  0.00    +0.042 A 
ATOM     13  C   UNL     1       6.169  -8.482  -2.394  0.00  0.00    +0.073 A 
ATOM     14  C   UNL     1       6.215  -9.136  -1.212  0.00  0.00    +0.098 A 
ATOM     15  N   UNL     1       6.074  -8.464  -0.038  0.00  0.00    -0.327 N 
ATOM     16  H   UNL     1       6.111  -8.951   0.800  0.00  0.00    +0.168 HD
ATOM     17  C   UNL     1       5.891  -7.130  -0.025  0.00  0.00    +0.270 A 
ATOM     18  O   UNL     1       5.772  -6.540   1.036  0.00  0.00    -0.266 OA
BRANCH  13  19
ATOM     19  C   UNL     1       6.326  -9.246  -3.684  0.00  0.00    +0.419 C 
ATOM     20  F   UNL     1       6.507 -10.604  -3.402  0.00  0.00    -0.166 F 
ATOM     21  F   UNL     1       5.178  -9.081  -4.467  0.00  0.00    -0.166 F 
ATOM     22  F   UNL     1       7.439  -8.761  -4.380  0.00  0.00    -0.166 F 
ENDBRANCH  13  19
ENDBRANCH   9  11
BRANCH   1  26
ATOM     23  C   UNL     1       1.773   1.963   2.034  0.00  0.00    +0.000 A 
ATOM     24  C   UNL     1       2.796   2.552   1.315  0.00  0.00    +0.000 A 
ATOM     25  C   UNL     1       3.782   1.768   0.745  0.00  0.00    +0.004 A 
ATOM     26  C   UNL     1       3.744   0.394   0.894  0.00  0.00    -0.044 A 
ATOM     27  C   UNL     1       2.721  -0.195   1.613  0.00  0.00    +0.004 A 
ATOM     28  C   UNL     1       1.735   0.589   2.182  0.00  0.00    +0.000 A 
ENDBRANCH   1  26
TORSDOF 3
