REMARK  Name = ZINC29240645
REMARK  3 active torsions:
REMARK  status: ('A' for Active; 'I' for Inactive)
REMARK    1  A    between atoms: C_1  and  C_2
REMARK    2  A    between atoms: C_4  and  C_7
REMARK    3  A    between atoms: C_13  and  C_15
REMARK                            x       y       z     vdW  Elec       q    Type
REMARK                         _______ _______ _______ _____ _____    ______ ____
ROOT
ATOM      1  C   UNL     1      -1.477  -3.360  -0.003  0.00  0.00    +0.128 C 
ATOM      2  C   UNL     1      -1.837  -3.744   1.448  0.00  0.00    +0.030 C 
ATOM      3  C   UNL     1      -1.799  -5.295   1.416  0.00  0.00    +0.021 C 
ATOM      4  C   UNL     1      -0.635  -5.558   0.428  0.00  0.00    +0.109 C 
ATOM      5  N   UNL     1      -0.760  -4.499  -0.595  0.00  0.00    -0.289 N 
ATOM      6  C   UNL     1      -0.296  -4.564  -1.858  0.00  0.00    +0.247 C 
ATOM      7  O   UNL     1      -0.549  -3.673  -2.646  0.00  0.00    -0.270 OA
ENDROOT
BRANCH   6   8
ATOM      8  C   UNL     1       0.518  -5.717  -2.286  0.00  0.00    +0.039 A 
ATOM      9  C   UNL     1       0.577  -6.067  -3.639  0.00  0.00    +0.014 A 
ATOM     10  C   UNL     1       1.337  -7.144  -4.041  0.00  0.00    +0.017 A 
ATOM     11  C   UNL     1       2.044  -7.882  -3.100  0.00  0.00    +0.029 A 
ATOM     12  C   UNL     1       1.991  -7.537  -1.748  0.00  0.00    +0.048 A 
ATOM     13  C   UNL     1       1.235  -6.457  -1.340  0.00  0.00    +0.037 A 
ATOM     14  N   UNL     1       2.717  -8.294  -0.815  0.00  0.00    -0.285 N 
ATOM     15  C   UNL     1       4.016  -8.549  -1.016  0.00  0.00    +0.218 C 
ATOM     16  O   UNL     1       4.579  -9.358  -0.309  0.00  0.00    -0.275 OA
ATOM     17  C   UNL     1       4.788  -7.854  -2.097  0.00  0.00    +0.107 C 
ATOM     18  C   UNL     1       4.730  -8.662  -3.405  0.00  0.00    +0.083 C 
ATOM     19  S   UNL     1       3.018  -9.266  -3.597  0.00  0.00    -0.123 S 
ATOM     20  H   UNL     1       2.276  -8.633  -0.021  0.00  0.00    +0.155 HD
ENDBRANCH   6   8
BRANCH   1  24
ATOM     21  C   UNL     1       0.056   1.499   0.011  0.00  0.00    +0.089 C 
ATOM     22  C   UNL     1       0.060  -0.008   0.002  0.00  0.00    +0.135 A 
ATOM     23  C   UNL     1      -1.027  -0.803   0.008  0.00  0.00    +0.072 A 
ATOM     24  C   UNL     1      -0.591  -2.140  -0.005  0.00  0.00    +0.104 A 
ATOM     25  N   UNL     1       0.712  -2.141  -0.018  0.00  0.00    -0.081 NA
ATOM     26  O   UNL     1       1.148  -0.793  -0.020  0.00  0.00    -0.360 OA
ENDBRANCH   1  24
TORSDOF 2
