REMARK  Name = ZINC66203730
REMARK  7 active torsions:
REMARK  status: ('A' for Active; 'I' for Inactive)
REMARK    1  A    between atoms: C_1  and  C_2
REMARK    2  A    between atoms: C_2  and  C_3
REMARK    3  A    between atoms: C_3  and  C_4
REMARK    4  A    between atoms: C_4  and  C_6
REMARK    5  A    between atoms: C_4  and  N_17
REMARK    6  A    between atoms: C_25  and  C_27
REMARK    7  A    between atoms: C_27  and  C_28
REMARK                            x       y       z     vdW  Elec       q    Type
REMARK                         _______ _______ _______ _____ _____    ______ ____
ROOT
ATOM      1  C   UNL     1       0.329  -1.119  -1.371  0.00  0.00    +0.161 C 
ENDROOT
BRANCH   1   2
ATOM      2  C   UNL     1       1.008  -1.326  -2.700  0.00  0.00    +0.236 C 
ATOM      3  O   UNL     1       0.349  -1.600  -3.681  0.00  0.00    -0.274 OA
ATOM      4  N   UNL     1       2.346  -1.208  -2.799  0.00  0.00    -0.295 N 
ATOM      5  C   UNL     1       3.008  -1.296  -4.109  0.00  0.00    +0.113 C 
ATOM      6  C   UNL     1       3.651   0.065  -4.418  0.00  0.00    +0.061 C 
ATOM      7  C   UNL     1       4.321   0.569  -3.182  0.00  0.00    -0.004 A 
ATOM      8  C   UNL     1       4.143   0.146  -1.901  0.00  0.00    -0.020 A 
ATOM      9  C   UNL     1       4.890   0.792  -0.918  0.00  0.00    +0.013 A 
ATOM     10  C   UNL     1       5.745   1.783  -1.260  0.00  0.00    +0.046 A 
ATOM     11  S   UNL     1       5.532   1.857  -3.033  0.00  0.00    -0.101 S 
ATOM     12  C   UNL     1       3.165  -0.983  -1.599  0.00  0.00    +0.143 C 
ENDBRANCH   1   2
BRANCH   1  13
ATOM     13  N   UNL     1      -0.945  -1.842  -1.354  0.00  0.00    -0.288 N 
ATOM     14  C   UNL     1      -1.482  -2.235  -0.182  0.00  0.00    +0.303 C 
ATOM     15  O   UNL     1      -0.866  -2.072   0.854  0.00  0.00    -0.253 OA
ATOM     16  N   UNL     1      -2.702  -2.806  -0.158  0.00  0.00    -0.283 N 
ATOM     17  C   UNL     1      -3.404  -3.126  -1.409  0.00  0.00    +0.109 C 
ATOM     18  C   UNL     1      -4.797  -2.490  -1.368  0.00  0.00    +0.019 C 
ATOM     19  C   UNL     1      -5.527  -2.948  -0.103  0.00  0.00    +0.003 C 
ATOM     20  C   UNL     1      -4.749  -2.487   1.131  0.00  0.00    +0.022 C 
ATOM     21  C   UNL     1      -3.353  -3.128   1.119  0.00  0.00    +0.077 C 
ATOM     22  H   UNL     1      -1.401  -2.039  -2.187  0.00  0.00    +0.151 HD
BRANCH  21  23
ATOM     23  C   UNL     1      -2.520  -2.569   2.275  0.00  0.00    +0.019 C 
ATOM     24  C   UNL     1      -3.223  -2.866   3.601  0.00  0.00    +0.006 C 
ENDBRANCH  21  23
ENDBRANCH   1  13
BRANCH   1  25
ATOM     25  C   UNL     1       0.070   0.374  -1.158  0.00  0.00    +0.031 C 
BRANCH  25  27
ATOM     26  C   UNL     1      -0.832   2.083   0.426  0.00  0.00    +0.004 C 
ATOM     27  C   UNL     1      -0.573   0.590   0.213  0.00  0.00    -0.001 C 
ENDBRANCH  25  27
ENDBRANCH   1  25
TORSDOF 5
