REMARK  Name = ZINC02140055
REMARK  6 active torsions:
REMARK  status: ('A' for Active; 'I' for Inactive)
REMARK    1  A    between atoms: C_1  and  C_2
REMARK    2  A    between atoms: C_5  and  N_8
REMARK    3  A    between atoms: N_11  and  C_12
REMARK    4  A    between atoms: C_19  and  O_20
REMARK    5  A    between atoms: O_20  and  C_21
REMARK    6  A    between atoms: C_27  and  N_50
REMARK                            x       y       z     vdW  Elec       q    Type
REMARK                         _______ _______ _______ _____ _____    ______ ____
ROOT
ATOM      1  C   UNL     1       1.005   2.899   2.393  0.00  0.00    +0.055 C 
ATOM      2  C   UNL     1      -0.112   3.623   1.687  0.00  0.00    +0.004 A 
ATOM      3  C   UNL     1      -0.318   4.977   1.849  0.00  0.00    -0.039 A 
ATOM      4  C   UNL     1      -1.368   5.601   1.193  0.00  0.00    +0.053 A 
ATOM      5  C   UNL     1      -2.210   4.877   0.366  0.00  0.00    +0.170 A 
ATOM      6  C   UNL     1      -2.000   3.513   0.192  0.00  0.00    +0.208 A 
ATOM      7  C   UNL     1      -0.949   2.891   0.852  0.00  0.00    +0.169 A 
ATOM      8  O   UNL     1      -2.949   3.030  -0.663  0.00  0.00    -0.449 OA
ATOM      9  C   UNL     1      -3.492   4.186  -1.327  0.00  0.00    +0.467 C 
ATOM     10  O   UNL     1      -3.292   5.250  -0.378  0.00  0.00    -0.452 OA
ATOM     11  C   UNL     1       0.577   5.813   2.729  0.00  0.00    +0.017 C 
ATOM     12  C   UNL     1       1.369   4.906   3.676  0.00  0.00    -0.071 C 
ATOM     13  C   UNL     1       3.057   3.167   3.645  0.00  0.00    -0.093 C 
ATOM     14  N   UNL     1       2.017   3.864   2.855  0.00  0.00    +0.393 N 
ATOM     15  H   UNL     1       2.457   4.305   2.039  0.00  0.00    -0.079 HD
ENDROOT
BRANCH   1  19
ATOM     16  N   UNL     1       2.497  -0.163   1.007  0.00  0.00    -0.270 N 
ATOM     17  C   UNL     1       1.917   0.702   1.863  0.00  0.00    +0.303 C 
ATOM     18  O   UNL     1       1.647   0.350   2.994  0.00  0.00    -0.253 OA
ATOM     19  N   UNL     1       1.636   1.958   1.463  0.00  0.00    -0.308 N 
ATOM     20  H   UNL     1       2.645   0.094   0.084  0.00  0.00    +0.156 HD
ATOM     21  H   UNL     1       1.851   2.240   0.560  0.00  0.00    +0.149 HD
BRANCH  16  26
ATOM     22  C   UNL     1       4.075  -5.306   2.810  0.00  0.00    +0.044 C 
ATOM     23  C   UNL     1       3.656  -3.939   2.331  0.00  0.00    -0.050 A 
ATOM     24  C   UNL     1       3.212  -3.770   1.033  0.00  0.00    +0.005 A 
ATOM     25  C   UNL     1       2.827  -2.519   0.591  0.00  0.00    +0.023 A 
ATOM     26  C   UNL     1       2.886  -1.431   1.452  0.00  0.00    +0.035 A 
ATOM     27  C   UNL     1       3.338  -1.604   2.754  0.00  0.00    +0.023 A 
ATOM     28  C   UNL     1       3.715  -2.858   3.192  0.00  0.00    +0.005 A 
ENDBRANCH  16  26
ENDBRANCH   1  19
BRANCH   7  29
ATOM     29  O   UNL     1      -0.741   1.557   0.685  0.00  0.00    -0.491 OA
ATOM     30  C   UNL     1      -1.501   0.674   1.512  0.00  0.00    +0.277 C 
ENDBRANCH   7  29
TORSDOF 3
