REMARK  Name = ZINC09505373
REMARK  9 active torsions:
REMARK  status: ('A' for Active; 'I' for Inactive)
REMARK    1  A    between atoms: C_1  and  C_2
REMARK    2  A    between atoms: C_2  and  O_3
REMARK    3  A    between atoms: O_3  and  C_4
REMARK    4  A    between atoms: C_4  and  C_6
REMARK    5  A    between atoms: C_10  and  N_11
REMARK    6  A    between atoms: C_12  and  C_14
REMARK    7  A    between atoms: N_19  and  S_20
REMARK    8  A    between atoms: S_20  and  C_23
REMARK    9  A    between atoms: C_31  and  N_56
REMARK                            x       y       z     vdW  Elec       q    Type
REMARK                         _______ _______ _______ _____ _____    ______ ____
ROOT
ATOM      1  N   UNL     1       0.427   3.797  -3.797  0.00  0.00    -0.278 N 
ATOM      2  C   UNL     1       0.625   4.918  -4.518  0.00  0.00    +0.236 C 
ATOM      3  O   UNL     1      -0.026   5.116  -5.522  0.00  0.00    -0.274 OA
ATOM      4  H   UNL     1       0.947   3.639  -2.994  0.00  0.00    +0.155 HD
ENDROOT
BRANCH   1   9
ATOM      5  C   UNL     1      -0.865   1.667  -3.599  0.00  0.00    +0.091 A 
ATOM      6  C   UNL     1      -1.905   0.876  -4.230  0.00  0.00    -0.025 A 
ATOM      7  C   UNL     1      -2.427   1.405  -5.360  0.00  0.00    -0.021 A 
ATOM      8  S   UNL     1      -1.560   2.929  -5.588  0.00  0.00    -0.079 S 
ATOM      9  C   UNL     1      -0.520   2.870  -4.203  0.00  0.00    +0.086 A 
ATOM     10  C   UNL     1      -3.504   0.803  -6.208  0.00  0.00    -0.036 C 
ATOM     11  C   UNL     1      -3.767  -0.748  -4.364  0.00  0.00    -0.074 C 
ATOM     12  C   UNL     1      -2.415  -0.460  -3.704  0.00  0.00    +0.018 C 
ATOM     13  C   UNL     1      -4.809  -1.222  -6.498  0.00  0.00    -0.096 C 
ATOM     14  N   UNL     1      -3.632  -0.626  -5.831  0.00  0.00    +0.381 N 
ATOM     15  H   UNL     1      -2.788  -1.128  -6.132  0.00  0.00    -0.082 HD
BRANCH   5  16
ATOM     16  C   UNL     1      -0.209   1.218  -2.369  0.00  0.00    +0.342 C 
ATOM     17  O   UNL     1       0.792   0.530  -2.430  0.00  0.00    -0.245 OA
BRANCH  16  18
ATOM     18  O   UNL     1      -0.715   1.567  -1.168  0.00  0.00    -0.461 OA
BRANCH  18  20
ATOM     19  C   UNL     1      -0.729   1.579   1.267  0.00  0.00    +0.048 C 
ATOM     20  C   UNL     1      -0.013   1.086   0.008  0.00  0.00    +0.229 C 
ENDBRANCH  18  20
ENDBRANCH  16  18
ENDBRANCH   5  16
ENDBRANCH   1   9
BRANCH   2  21
ATOM     21  C   UNL     1       1.655   5.926  -4.077  0.00  0.00    +0.166 C 
ATOM     22  C   UNL     1       3.057   5.283  -4.087  0.00  0.00    +0.031 C 
ATOM     23  C   UNL     1       3.636   5.734  -5.454  0.00  0.00    +0.019 C 
ATOM     24  C   UNL     1       3.040   7.157  -5.590  0.00  0.00    +0.110 C 
ATOM     25  N   UNL     1       1.685   7.055  -5.018  0.00  0.00    -0.164 NA
BRANCH  25  26
ATOM     26  S   UNL     1       0.409   8.047  -5.378  0.00  0.00    +0.068 S 
ATOM     27  O   UNL     1       0.669   8.594  -6.663  0.00  0.00    -0.152 OA
ATOM     28  O   UNL     1      -0.772   7.311  -5.088  0.00  0.00    -0.152 OA
BRANCH  26  29
ATOM     29  C   UNL     1       0.456   9.391  -4.239  0.00  0.00    +0.143 A 
ATOM     30  C   UNL     1       1.093  10.582  -4.351  0.00  0.00    +0.036 A 
ATOM     31  C   UNL     1       0.987  11.498  -3.321  0.00  0.00    +0.010 A 
ATOM     32  C   UNL     1       0.257  11.174  -2.226  0.00  0.00    +0.047 A 
ATOM     33  S   UNL     1      -0.315   9.533  -2.635  0.00  0.00    -0.077 S 
ENDBRANCH  26  29
ENDBRANCH  25  26
ENDBRANCH   2  21
TORSDOF 7
