REMARK  Name = ZINC04710287
REMARK  4 active torsions:
REMARK  status: ('A' for Active; 'I' for Inactive)
REMARK    1  A    between atoms: C_1  and  C_2
REMARK    2  A    between atoms: C_8  and  N_10
REMARK    3  A    between atoms: C_11  and  C_13
REMARK    4  A    between atoms: C_22  and  N_56
REMARK                            x       y       z     vdW  Elec       q    Type
REMARK                         _______ _______ _______ _____ _____    ______ ____
ROOT
ATOM      1  C   UNL     1      -2.730   0.073  -4.456  0.00  0.00    +0.039 A 
ATOM      2  C   UNL     1      -1.411   0.140  -4.914  0.00  0.00    +0.014 A 
ATOM      3  C   UNL     1      -0.370  -0.067  -4.036  0.00  0.00    +0.017 A 
ATOM      4  C   UNL     1      -0.631  -0.341  -2.700  0.00  0.00    +0.028 A 
ATOM      5  C   UNL     1      -1.946  -0.416  -2.229  0.00  0.00    +0.048 A 
ATOM      6  C   UNL     1      -2.992  -0.206  -3.113  0.00  0.00    +0.037 A 
ATOM      7  N   UNL     1      -2.226  -0.697  -0.894  0.00  0.00    -0.285 N 
ATOM      8  C   UNL     1      -1.401  -0.528   0.136  0.00  0.00    +0.214 C 
ATOM      9  O   UNL     1      -1.803  -0.813   1.245  0.00  0.00    -0.276 OA
ATOM     10  C   UNL     1       0.002  -0.004   0.002  0.00  0.00    +0.084 C 
ATOM     11  S   UNL     1       0.700  -0.596  -1.569  0.00  0.00    -0.130 S 
ATOM     12  H   UNL     1      -3.108  -1.049  -0.696  0.00  0.00    +0.155 HD
ENDROOT
BRANCH  10  18
ATOM     13  C   UNL     1      -0.806   1.987  -1.113  0.00  0.00    -0.077 C 
ATOM     14  C   UNL     1      -0.927   3.507  -0.991  0.00  0.00    -0.019 C 
ATOM     15  C   UNL     1       0.473   4.127  -0.995  0.00  0.00    -0.004 C 
ATOM     16  C   UNL     1       1.290   3.531   0.155  0.00  0.00    -0.019 C 
ATOM     17  C   UNL     1       1.346   2.010   0.000  0.00  0.00    -0.077 C 
ATOM     18  N   UNL     1      -0.031   1.473   0.036  0.00  0.00    +0.394 N 
ATOM     19  H   UNL     1      -0.485   1.776   0.906  0.00  0.00    -0.079 HD
ENDBRANCH  10  18
BRANCH   1  21
ATOM     20  N   UNL     1      -3.595   0.566  -6.689  0.00  0.00    -0.308 N 
ATOM     21  C   UNL     1      -3.847   0.296  -5.393  0.00  0.00    +0.244 C 
ATOM     22  O   UNL     1      -4.995   0.237  -4.996  0.00  0.00    -0.270 OA
ATOM     23  H   UNL     1      -2.679   0.613  -7.006  0.00  0.00    +0.149 HD
BRANCH  20  30
ATOM     24  C   UNL     1      -3.725   2.994  -8.262  0.00  0.00    +0.009 C 
ATOM     25  C   UNL     1      -4.224   1.648  -8.790  0.00  0.00    +0.006 C 
ATOM     26  C   UNL     1      -3.084   0.931  -9.517  0.00  0.00    +0.005 C 
ATOM     27  C   UNL     1      -3.584  -0.415 -10.045  0.00  0.00    +0.000 C 
ATOM     28  C   UNL     1      -4.064  -1.276  -8.875  0.00  0.00    +0.002 C 
ATOM     29  C   UNL     1      -5.204  -0.559  -8.149  0.00  0.00    +0.022 C 
ATOM     30  C   UNL     1      -4.705   0.787  -7.620  0.00  0.00    +0.076 C 
ENDBRANCH  20  30
ENDBRANCH   1  21
TORSDOF 3
