REMARK  Name = ZINC01693079
REMARK  4 active torsions:
REMARK  status: ('A' for Active; 'I' for Inactive)
REMARK    1  A    between atoms: C_10  and  N_16
REMARK    2  A    between atoms: C_13  and  O_15
REMARK    3  A    between atoms: C_17  and  C_19
REMARK    4  A    between atoms: C_20  and  C_21
REMARK                            x       y       z     vdW  Elec       q    Type
REMARK                         _______ _______ _______ _____ _____    ______ ____
ROOT
ATOM      1  C   UNL     1      -1.270   2.706   3.719  0.00  0.00    +0.001 A 
ATOM      2  C   UNL     1      -2.208   1.943   3.047  0.00  0.00    +0.000 A 
ATOM      3  C   UNL     1      -1.889   1.362   1.833  0.00  0.00    +0.007 A 
ATOM      4  C   UNL     1      -0.635   1.541   1.290  0.00  0.00    -0.007 A 
ATOM      5  C   UNL     1       0.317   2.307   1.959  0.00  0.00    -0.012 A 
ATOM      6  C   UNL     1      -0.012   2.890   3.184  0.00  0.00    +0.009 A 
ATOM      7  C   UNL     1       1.570   2.340   1.166  0.00  0.00    -0.010 A 
ATOM      8  C   UNL     1       2.795   2.966   1.411  0.00  0.00    +0.026 A 
ATOM      9  C   UNL     1       3.826   2.844   0.505  0.00  0.00    +0.040 A 
ATOM     10  C   UNL     1       3.651   2.099  -0.657  0.00  0.00    +0.048 A 
ATOM     11  C   UNL     1       2.433   1.475  -0.904  0.00  0.00    +0.031 A 
ATOM     12  C   UNL     1       1.402   1.595   0.001  0.00  0.00    -0.005 A 
ATOM     13  C   UNL     1      -0.004   1.046   0.012  0.00  0.00    +0.176 C 
ATOM     14 BR   UNL     1       5.482   3.693   0.840  0.00  0.00    -0.048 Br
ENDROOT
BRANCH  10  15
ATOM     15  N   UNL     1       4.698   1.977  -1.574  0.00  0.00    -0.281 N 
ATOM     16  C   UNL     1       4.432   1.718  -2.869  0.00  0.00    +0.241 C 
ATOM     17  O   UNL     1       3.281   1.689  -3.260  0.00  0.00    -0.270 OA
ATOM     18  H   UNL     1       5.616   2.079  -1.278  0.00  0.00    +0.155 HD
BRANCH  16  19
ATOM     19  C   UNL     1       5.538   1.469  -3.814  0.00  0.00    +0.075 C 
ATOM     20  C   UNL     1       5.273   1.210  -5.106  0.00  0.00    +0.101 C 
BRANCH  20  21
ATOM     21  C   UNL     1       6.378   0.961  -6.050  0.00  0.00    +0.380 C 
ATOM     22  O   UNL     1       7.528   0.990  -5.660  0.00  0.00    -0.241 OA
ATOM     23  O   UNL     1       6.112   0.702  -7.345  0.00  0.00    -0.241 OA
ENDBRANCH  20  21
ENDBRANCH  16  19
ENDBRANCH  10  15
BRANCH  13  24
ATOM     24  O   UNL     1      -0.731   1.533  -1.118  0.00  0.00    -0.382 OA
ATOM     25  H   UNL     1      -1.647   1.226  -1.158  0.00  0.00    +0.211 HD
ENDBRANCH  13  24
TORSDOF 4
