REMARK  Name = ZINC09953915
REMARK  6 active torsions:
REMARK  status: ('A' for Active; 'I' for Inactive)
REMARK    1  A    between atoms: C_1  and  C_2
REMARK    2  A    between atoms: C_2  and  C_3
REMARK    3  A    between atoms: C_2  and  N_4
REMARK    4  A    between atoms: C_5  and  C_7
REMARK    5  A    between atoms: C_7  and  N_8
REMARK    6  A    between atoms: C_15  and  C_18
REMARK                            x       y       z     vdW  Elec       q    Type
REMARK                         _______ _______ _______ _____ _____    ______ ____
ROOT
ATOM      1  N   UNL     1       3.616  -0.584  -0.036  0.00  0.00    -0.319 N 
ATOM      2  C   UNL     1       2.398   0.087  -0.020  0.00  0.00    +0.140 A 
ATOM      3  C   UNL     1       1.198  -0.649  -0.013  0.00  0.00    +0.049 A 
ATOM      4  C   UNL     1       0.002  -0.004   0.002  0.00  0.00    +0.053 A 
ATOM      5  C   UNL     1      -0.017   1.404   0.010  0.00  0.00    +0.178 A 
ATOM      6  N   UNL     1      -0.985   2.306   0.019  0.00  0.00    -0.128 NA
ATOM      7  N   UNL     1      -0.466   3.485   0.025  0.00  0.00    -0.123 NA
ATOM      8  C   UNL     1       0.842   3.402   0.012  0.00  0.00    +0.258 A 
ATOM      9  N   UNL     1       1.170   2.093   0.002  0.00  0.00    -0.187 N 
ATOM     10  N   UNL     1       2.382   1.400  -0.014  0.00  0.00    -0.148 NA
ATOM     11  H   UNL     1       4.447  -0.082  -0.041  0.00  0.00    +0.148 HD
ENDROOT
BRANCH   8  12
ATOM     12  C   UNL     1       1.805   4.561   0.009  0.00  0.00    +0.454 C 
ATOM     13  F   UNL     1       1.127   5.732   0.363  0.00  0.00    -0.163 F 
ATOM     14  F   UNL     1       2.830   4.318   0.930  0.00  0.00    -0.163 F 
ATOM     15  F   UNL     1       2.353   4.708  -1.270  0.00  0.00    -0.163 F 
ENDBRANCH   8  12
BRANCH   1  16
ATOM     16  C   UNL     1       3.646  -2.049  -0.044  0.00  0.00    +0.198 C 
BRANCH  16  18
ATOM     17  N   UNL     1       5.348  -3.843  -0.070  0.00  0.00    -0.312 N 
ATOM     18  C   UNL     1       5.076  -2.523  -0.060  0.00  0.00    +0.230 C 
ATOM     19  O   UNL     1       5.982  -1.716  -0.064  0.00  0.00    -0.274 OA
ATOM     20  H   UNL     1       4.624  -4.487  -0.066  0.00  0.00    +0.149 HD
BRANCH  17  22
ATOM     21  C   UNL     1       7.276  -4.352   1.346  0.00  0.00    +0.027 C 
ATOM     22  C   UNL     1       6.739  -4.303  -0.086  0.00  0.00    +0.067 C 
ATOM     23  C   UNL     1       6.806  -5.702  -0.703  0.00  0.00    +0.027 C 
ENDBRANCH  17  22
ENDBRANCH  16  18
ENDBRANCH   1  16
TORSDOF 4
