REMARK  Name = ZINC17950006
REMARK  7 active torsions:
REMARK  status: ('A' for Active; 'I' for Inactive)
REMARK    1  A    between atoms: C_1  and  C_2
REMARK    2  A    between atoms: C_2  and  C_3
REMARK    3  A    between atoms: C_3  and  C_4
REMARK    4  A    between atoms: C_4  and  C_6
REMARK    5  A    between atoms: C_4  and  C_7
REMARK    6  A    between atoms: C_17  and  C_26
REMARK    7  A    between atoms: C_22  and  C_25
REMARK                            x       y       z     vdW  Elec       q    Type
REMARK                         _______ _______ _______ _____ _____    ______ ____
ROOT
ATOM      1  C   UNL     1      -4.726   9.237   0.097  0.00  0.00    +0.084 A 
ATOM      2  C   UNL     1      -3.514   9.917   0.090  0.00  0.00    +0.260 A 
ATOM      3  N   UNL     1      -2.381   9.221   0.075  0.00  0.00    -0.296 N 
ATOM      4  C   UNL     1      -2.399   7.897   0.068  0.00  0.00    +0.183 A 
ATOM      5  N   UNL     1      -3.535   7.217   0.069  0.00  0.00    -0.296 N 
ATOM      6  C   UNL     1      -4.706   7.846   0.089  0.00  0.00    +0.260 A 
ATOM      7  O   UNL     1      -5.864   7.143   0.096  0.00  0.00    -0.267 OA
ATOM      8  N   UNL     1      -1.198   7.205   0.053  0.00  0.00    -0.255 N 
ATOM      9  C   UNL     1      -1.196   5.819   0.045  0.00  0.00    +0.222 A 
ATOM     10  N   UNL     1      -2.364   5.179   0.052  0.00  0.00    -0.219 NA
ATOM     11  C   UNL     1      -2.428   3.864   0.045  0.00  0.00    +0.051 A 
ATOM     12  C   UNL     1      -1.226   3.133   0.031  0.00  0.00    +0.022 A 
ATOM     13  C   UNL     1      -1.207   1.731   0.017  0.00  0.00    +0.012 A 
ATOM     14  C   UNL     1      -0.013   1.076   0.008  0.00  0.00    +0.001 A 
ATOM     15  C   UNL     1       1.190   1.779   0.000  0.00  0.00    +0.005 A 
ATOM     16  C   UNL     1       1.209   3.141   0.008  0.00  0.00    -0.024 A 
ATOM     17  C   UNL     1      -0.002   3.850   0.023  0.00  0.00    +0.079 A 
ATOM     18  N   UNL     1      -0.039   5.188   0.031  0.00  0.00    -0.214 NA
ATOM     19  C   UNL     1       2.521   3.881   0.000  0.00  0.00    +0.046 C 
ATOM     20  C   UNL     1      -3.760   3.158   0.053  0.00  0.00    +0.066 C 
ATOM     21  O   UNL     1      -3.487  11.272   0.097  0.00  0.00    -0.267 OA
ATOM     22  H   UNL     1      -0.246   7.757   0.047  0.00  0.00    +0.158 HD
ATOM     23  H   UNL     1      -1.414   9.745   0.069  0.00  0.00    +0.172 HD
ATOM     24  H   UNL     1      -3.518   6.117   0.054  0.00  0.00    +0.172 HD
ENDROOT
BRANCH   1  25
ATOM     25  C   UNL     1      -6.032   9.989   0.113  0.00  0.00    +0.027 C 
ATOM     26  C   UNL     1      -6.845   9.625  -1.131  0.00  0.00    +0.013 C 
BRANCH  25  27
ATOM     27  C   UNL     1      -6.822   9.611   1.368  0.00  0.00    +0.008 C 
BRANCH  27  29
ATOM     28  C   UNL     1      -8.880  10.088   2.703  0.00  0.00    +0.004 C 
ATOM     29  C   UNL     1      -8.089  10.465   1.448  0.00  0.00    -0.003 C 
ENDBRANCH  27  29
ENDBRANCH  25  27
ENDBRANCH   1  25
TORSDOF 3
