REMARK  Name = ZINC40510891
REMARK  2 active torsions:
REMARK  status: ('A' for Active; 'I' for Inactive)
REMARK    1  A    between atoms: C_2  and  C_9
REMARK    2  A    between atoms: N_11  and  C_12
REMARK                            x       y       z     vdW  Elec       q    Type
REMARK                         _______ _______ _______ _____ _____    ______ ____
ROOT
ATOM      1  C   UNL     1       2.266   5.649  -0.083  0.00  0.00    +0.056 A 
ATOM      2  C   UNL     1       1.033   6.288  -0.054  0.00  0.00    +0.072 A 
ATOM      3  C   UNL     1       0.972   7.667  -0.138  0.00  0.00    +0.144 A 
ATOM      4  C   UNL     1       2.146   8.411  -0.251  0.00  0.00    +0.077 A 
ATOM      5  C   UNL     1       3.374   7.771  -0.278  0.00  0.00    +0.048 A 
ATOM      6  C   UNL     1       3.435   6.392  -0.190  0.00  0.00    +0.064 A 
ATOM      7 CL   UNL     1       4.974   5.589  -0.217  0.00  0.00    -0.082 Cl
ATOM      8  N   UNL     1       2.065   9.810  -0.336  0.00  0.00    -0.280 N 
ATOM      9  C   UNL     1       0.910  10.421   0.006  0.00  0.00    +0.255 C 
ATOM     10  O   UNL     1       0.808  11.626  -0.089  0.00  0.00    -0.272 OA
ATOM     11  C   UNL     1      -0.251   9.600   0.505  0.00  0.00    +0.325 C 
ATOM     12  O   UNL     1      -0.227   8.310  -0.110  0.00  0.00    -0.481 OA
ATOM     13  H   UNL     1       2.828  10.330  -0.636  0.00  0.00    +0.155 HD
ENDROOT
BRANCH   1  16
ATOM     14  C   UNL     1       1.333   3.566   0.594  0.00  0.00    +0.248 C 
ATOM     15  O   UNL     1       0.427   4.162   1.142  0.00  0.00    -0.270 OA
ATOM     16  N   UNL     1       2.331   4.252   0.002  0.00  0.00    -0.280 N 
ATOM     17  H   UNL     1       3.094   3.779  -0.365  0.00  0.00    +0.155 HD
BRANCH  14  19
ATOM     18  C   UNL     1       0.310   1.374   1.188  0.00  0.00    +0.051 A 
ATOM     19  C   UNL     1       1.341   2.088   0.576  0.00  0.00    +0.042 A 
ATOM     20  C   UNL     1       2.380   1.400  -0.053  0.00  0.00    +0.051 A 
ATOM     21  C   UNL     1       2.382   0.018  -0.068  0.00  0.00    +0.127 A 
ATOM     22  C   UNL     1       1.356  -0.684   0.541  0.00  0.00    +0.076 A 
ATOM     23  C   UNL     1       0.322  -0.007   1.167  0.00  0.00    +0.127 A 
ATOM     24  F   UNL     1      -0.676  -0.699   1.760  0.00  0.00    -0.205 F 
ATOM     25  F   UNL     1       3.387  -0.648  -0.677  0.00  0.00    -0.205 F 
ENDBRANCH  14  19
ENDBRANCH   1  16
TORSDOF 2
