REMARK  Name = ZINC01229894
REMARK  4 active torsions:
REMARK  status: ('A' for Active; 'I' for Inactive)
REMARK    1  A    between atoms: C_2  and  C_3
REMARK    2  A    between atoms: C_3  and  N_4
REMARK    3  A    between atoms: C_20  and  C_25
REMARK    4  A    between atoms: C_28  and  O_31
REMARK                            x       y       z     vdW  Elec       q    Type
REMARK                         _______ _______ _______ _____ _____    ______ ____
ROOT
ATOM      1  N   UNL     1       1.691  -1.538   1.705  0.00  0.00    -0.248 N 
ATOM      2  C   UNL     1       2.207  -1.496   2.950  0.00  0.00    +0.242 C 
ATOM      3  O   UNL     1       2.777  -0.563   3.474  0.00  0.00    -0.273 OA
ATOM      4  C   UNL     1       1.926  -2.854   3.561  0.00  0.00    +0.167 C 
ATOM      5  C   UNL     1       3.249  -3.551   3.898  0.00  0.00    +0.069 C 
ATOM      6  C   UNL     1       3.042  -5.045   3.895  0.00  0.00    -0.015 A 
ATOM      7  C   UNL     1       3.878  -6.053   4.521  0.00  0.00    +0.003 A 
ATOM      8  C   UNL     1       5.053  -5.970   5.275  0.00  0.00    +0.010 A 
ATOM      9  C   UNL     1       5.588  -7.154   5.720  0.00  0.00    +0.001 A 
ATOM     10  C   UNL     1       5.000  -8.377   5.443  0.00  0.00    +0.002 A 
ATOM     11  C   UNL     1       3.838  -8.488   4.699  0.00  0.00    +0.026 A 
ATOM     12  C   UNL     1       3.273  -7.302   4.233  0.00  0.00    +0.047 A 
ATOM     13  N   UNL     1       2.157  -7.050   3.489  0.00  0.00    -0.356 N 
ATOM     14  H   UNL     1       1.549  -7.724   3.148  0.00  0.00    +0.166 HD
ATOM     15  C   UNL     1       2.026  -5.701   3.295  0.00  0.00    +0.046 A 
ATOM     16  C   UNL     1       0.913  -5.008   2.534  0.00  0.00    +0.153 C 
ATOM     17  N   UNL     1       1.269  -3.584   2.455  0.00  0.00    -0.288 N 
ATOM     18  C   UNL     1       1.138  -2.730   1.438  0.00  0.00    +0.144 C 
ATOM     19  S   UNL     1       0.360  -3.113  -0.038  0.00  0.00    -0.018 S 
ENDROOT
BRANCH  16  20
ATOM     20  C   UNL     1      -0.390  -5.153   3.277  0.00  0.00    -0.021 A 
ATOM     21  C   UNL     1      -1.412  -5.911   2.737  0.00  0.00    +0.009 A 
ATOM     22  C   UNL     1      -2.608  -6.044   3.417  0.00  0.00    +0.046 A 
ATOM     23  C   UNL     1      -2.781  -5.418   4.643  0.00  0.00    +0.117 A 
ATOM     24  C   UNL     1      -1.754  -4.658   5.182  0.00  0.00    +0.046 A 
ATOM     25  C   UNL     1      -0.558  -4.532   4.501  0.00  0.00    +0.009 A 
BRANCH  23  26
ATOM     26  O   UNL     1      -3.957  -5.547   5.313  0.00  0.00    -0.507 OA
ATOM     27  H   UNL     1      -3.983  -6.301   5.918  0.00  0.00    +0.292 HD
ENDBRANCH  23  26
ENDBRANCH  16  20
BRANCH   1  28
ATOM     28  C   UNL     1       1.725  -0.417   0.762  0.00  0.00    +0.142 C 
BRANCH  28  30
ATOM     29  C   UNL     1       0.609   1.714   1.182  0.00  0.00    +0.005 C 
ATOM     30  C   UNL     1       0.492   0.430   0.945  0.00  0.00    -0.015 C 
ENDBRANCH  28  30
ENDBRANCH   1  28
TORSDOF 4
