REMARK  Name = ZINC66614013
REMARK  10 active torsions:
REMARK  status: ('A' for Active; 'I' for Inactive)
REMARK    1  A    between atoms: C_1  and  C_2
REMARK    2  A    between atoms: C_2  and  C_4
REMARK    3  A    between atoms: C_2  and  N_14
REMARK    4  A    between atoms: C_7  and  N_10
REMARK    5  A    between atoms: C_15  and  C_17
REMARK    6  A    between atoms: C_18  and  C_19
REMARK    7  A    between atoms: C_23  and  O_25
REMARK    8  A    between atoms: O_25  and  C_26
REMARK    9  A    between atoms: C_26  and  C_27
REMARK   10  A    between atoms: C_26  and  C_28
REMARK                            x       y       z     vdW  Elec       q    Type
REMARK                         _______ _______ _______ _____ _____    ______ ____
ROOT
ATOM      1  N   UNL     1      -0.104  -1.217  -2.086  0.00  0.00    -0.305 N 
ATOM      2  C   UNL     1       1.210  -1.459  -2.266  0.00  0.00    +0.237 C 
ATOM      3  O   UNL     1       1.945  -1.572  -1.303  0.00  0.00    -0.271 OA
ATOM      4  H   UNL     1      -0.690  -1.127  -2.853  0.00  0.00    +0.150 HD
ENDROOT
BRANCH   1   6
ATOM      5  C   UNL     1      -0.465   0.345  -0.239  0.00  0.00    +0.033 C 
ATOM      6  C   UNL     1      -0.647  -1.092  -0.731  0.00  0.00    +0.100 C 
BRANCH   6   7
ATOM      7  C   UNL     1      -2.114  -1.437  -0.743  0.00  0.00    -0.027 A 
ATOM      8  C   UNL     1      -2.912  -1.020  -1.793  0.00  0.00    +0.007 A 
ATOM      9  C   UNL     1      -4.256  -1.335  -1.807  0.00  0.00    +0.023 A 
ATOM     10  C   UNL     1      -4.807  -2.071  -0.767  0.00  0.00    +0.035 A 
ATOM     11  C   UNL     1      -4.003  -2.489   0.286  0.00  0.00    +0.023 A 
ATOM     12  C   UNL     1      -2.658  -2.176   0.291  0.00  0.00    +0.007 A 
BRANCH  10  13
ATOM     13  N   UNL     1      -6.169  -2.391  -0.778  0.00  0.00    -0.270 N 
ATOM     14  C   UNL     1      -6.799  -2.616  -1.948  0.00  0.00    +0.301 C 
ATOM     15  O   UNL     1      -6.165  -2.636  -2.986  0.00  0.00    -0.253 OA
ATOM     16  N   UNL     1      -8.131  -2.820  -1.969  0.00  0.00    -0.313 N 
ATOM     17  H   UNL     1      -6.660  -2.451   0.056  0.00  0.00    +0.156 HD
ATOM     18  H   UNL     1      -8.636  -2.804  -1.141  0.00  0.00    +0.146 HD
ATOM     19  H   UNL     1      -8.584  -2.982  -2.811  0.00  0.00    +0.146 HD
ENDBRANCH  10  13
ENDBRANCH   6   7
ENDBRANCH   1   6
BRANCH   2  20
ATOM     20  C   UNL     1       1.752  -1.584  -3.620  0.00  0.00    +0.068 C 
ATOM     21  C   UNL     1       3.066  -1.825  -3.800  0.00  0.00    +0.013 C 
BRANCH  21  22
ATOM     22  C   UNL     1       3.612  -1.951  -5.162  0.00  0.00    -0.021 A 
ATOM     23  C   UNL     1       2.771  -1.815  -6.271  0.00  0.00    +0.008 A 
ATOM     24  C   UNL     1       3.286  -1.933  -7.544  0.00  0.00    +0.004 A 
ATOM     25  C   UNL     1       4.633  -2.186  -7.729  0.00  0.00    +0.046 A 
ATOM     26  C   UNL     1       5.477  -2.323  -6.635  0.00  0.00    +0.121 A 
ATOM     27  C   UNL     1       4.973  -2.201  -5.352  0.00  0.00    +0.053 A 
BRANCH  26  28
ATOM     28  O   UNL     1       6.800  -2.572  -6.825  0.00  0.00    -0.489 OA
BRANCH  28  29
ATOM     29  C   UNL     1       7.231  -2.802  -8.168  0.00  0.00    +0.167 C 
ATOM     30  C   UNL     1       7.498  -1.460  -8.854  0.00  0.00    +0.051 C 
ATOM     31  C   UNL     1       8.515  -3.634  -8.156  0.00  0.00    +0.051 C 
ENDBRANCH  28  29
ENDBRANCH  26  28
ENDBRANCH  21  22
ENDBRANCH   2  20
TORSDOF 7
