REMARK  Name = ZINC06797396
REMARK  9 active torsions:
REMARK  status: ('A' for Active; 'I' for Inactive)
REMARK    1  A    between atoms: C_1  and  C_2
REMARK    2  A    between atoms: C_3  and  C_20
REMARK    3  A    between atoms: N_9  and  C_10
REMARK    4  A    between atoms: C_10  and  C_11
REMARK    5  A    between atoms: C_11  and  C_13
REMARK    6  A    between atoms: C_11  and  C_14
REMARK    7  A    between atoms: C_23  and  C_26
REMARK    8  A    between atoms: C_26  and  C_27
REMARK    9  A    between atoms: C_26  and  C_28
REMARK                            x       y       z     vdW  Elec       q    Type
REMARK                         _______ _______ _______ _____ _____    ______ ____
ROOT
ATOM      1  C   UNL     1      -2.308   5.402   4.456  0.00  0.00    +0.049 C 
ATOM      2  C   UNL     1      -2.860   4.206   5.189  0.00  0.00    +0.018 C 
ATOM      3  C   UNL     1      -2.755   2.946   4.710  0.00  0.00    +0.126 C 
ATOM      4  S   UNL     1      -3.564   1.998   5.982  0.00  0.00    +0.101 S 
ATOM      5  O   UNL     1      -4.761   1.466   5.430  0.00  0.00    -0.146 OA
ATOM      6  O   UNL     1      -2.577   1.204   6.626  0.00  0.00    -0.146 OA
ATOM      7  N   UNL     1      -3.990   3.232   7.028  0.00  0.00    -0.113 NA
ATOM      8  C   UNL     1      -3.549   4.319   6.459  0.00  0.00    +0.145 C 
ATOM      9  N   UNL     1      -3.729   5.551   7.057  0.00  0.00    -0.327 N 
ATOM     10  H   UNL     1      -3.396   6.353   6.624  0.00  0.00    +0.148 HD
ENDROOT
BRANCH   3  11
ATOM     11  C   UNL     1      -2.127   2.477   3.462  0.00  0.00    +0.002 A 
ATOM     12  C   UNL     1      -2.390   3.131   2.255  0.00  0.00    +0.010 A 
ATOM     13  C   UNL     1      -1.799   2.686   1.091  0.00  0.00    +0.004 A 
ATOM     14  C   UNL     1      -0.947   1.596   1.116  0.00  0.00    -0.045 A 
ATOM     15  C   UNL     1      -0.686   0.940   2.306  0.00  0.00    +0.004 A 
ATOM     16  C   UNL     1      -1.266   1.377   3.479  0.00  0.00    +0.010 A 
BRANCH  14  17
ATOM     17  C   UNL     1      -0.305   1.117  -0.160  0.00  0.00    +0.013 C 
ATOM     18  C   UNL     1      -0.721  -0.331  -0.428  0.00  0.00    +0.012 C 
ATOM     19  C   UNL     1       1.218   1.194  -0.025  0.00  0.00    +0.012 C 
ENDBRANCH  14  17
ENDBRANCH   3  11
BRANCH   9  20
ATOM     20  C   UNL     1      -4.422   5.646   8.344  0.00  0.00    +0.111 C 
BRANCH  20  21
ATOM     21  C   UNL     1      -4.486   7.111   8.781  0.00  0.00    +0.033 C 
ATOM     22  C   UNL     1      -5.352   7.899   7.796  0.00  0.00    +0.014 C 
BRANCH  21  23
ATOM     23  C   UNL     1      -5.089   7.198  10.159  0.00  0.00    -0.043 A 
ATOM     24  C   UNL     1      -6.370   6.730  10.385  0.00  0.00    +0.004 A 
ATOM     25  C   UNL     1      -6.921   6.806  11.650  0.00  0.00    +0.000 A 
ATOM     26  C   UNL     1      -6.194   7.357  12.689  0.00  0.00    +0.000 A 
ATOM     27  C   UNL     1      -4.915   7.830  12.462  0.00  0.00    +0.000 A 
ATOM     28  C   UNL     1      -4.362   7.750  11.198  0.00  0.00    +0.004 A 
ENDBRANCH  21  23
ENDBRANCH  20  21
ENDBRANCH   9  20
TORSDOF 5
