REMARK  Name = ZINC06760830
REMARK  11 active torsions:
REMARK  status: ('A' for Active; 'I' for Inactive)
REMARK    1  A    between atoms: C_1  and  C_2
REMARK    2  A    between atoms: C_2  and  N_3
REMARK    3  A    between atoms: C_11  and  C_13
REMARK    4  A    between atoms: C_11  and  C_14
REMARK    5  A    between atoms: N_17  and  C_20
REMARK    6  A    between atoms: C_20  and  C_21
REMARK    7  A    between atoms: N_23  and  C_24
REMARK    8  A    between atoms: C_24  and  C_25
REMARK    9  A    between atoms: C_25  and  C_26
REMARK   10  A    between atoms: C_26  and  C_27
REMARK   11  A    between atoms: C_27  and  N_56
REMARK                            x       y       z     vdW  Elec       q    Type
REMARK                         _______ _______ _______ _____ _____    ______ ____
ROOT
ATOM      1  N   UNL     1      -2.103   1.072   1.277  0.00  0.00    -0.287 N 
ATOM      2  C   UNL     1      -2.378  -0.132   1.868  0.00  0.00    +0.097 A 
ATOM      3  C   UNL     1      -3.675  -0.647   1.897  0.00  0.00    +0.074 A 
ATOM      4  C   UNL     1      -3.826  -1.940   2.558  0.00  0.00    -0.018 A 
ATOM      5  C   UNL     1      -2.697  -2.484   3.062  0.00  0.00    +0.021 A 
ATOM      6  S   UNL     1      -1.425  -1.317   2.681  0.00  0.00    -0.073 S 
ATOM      7  C   UNL     1      -2.593  -3.792   3.782  0.00  0.00    +0.203 C 
ATOM      8  O   UNL     1      -3.923  -4.214   4.125  0.00  0.00    -0.368 OA
ATOM      9  C   UNL     1      -4.846  -4.142   3.035  0.00  0.00    +0.068 C 
ATOM     10  C   UNL     1      -5.153  -2.678   2.699  0.00  0.00    +0.071 C 
ATOM     11  C   UNL     1      -6.143  -4.856   3.421  0.00  0.00    +0.041 C 
ATOM     12  C   UNL     1      -4.235  -4.825   1.810  0.00  0.00    +0.041 C 
ATOM     13  C   UNL     1      -4.711   0.190   1.254  0.00  0.00    +0.266 A 
ATOM     14  O   UNL     1      -5.872  -0.177   1.230  0.00  0.00    -0.267 OA
ATOM     15  N   UNL     1      -4.357   1.361   0.696  0.00  0.00    -0.251 N 
ATOM     16  C   UNL     1      -3.087   1.797   0.710  0.00  0.00    +0.333 A 
ATOM     17  O   UNL     1      -2.818   2.866   0.196  0.00  0.00    -0.246 OA
ENDROOT
BRANCH   1  19
ATOM     18  C   UNL     1      -0.013   1.086   0.008  0.00  0.00    +0.027 C 
ATOM     19  C   UNL     1      -0.729   1.579   1.267  0.00  0.00    +0.124 C 
ENDBRANCH   1  19
BRANCH  15  20
ATOM     20  C   UNL     1      -5.386   2.187   0.060  0.00  0.00    +0.225 C 
BRANCH  20  21
ATOM     21  C   UNL     1      -5.974   3.130   1.078  0.00  0.00    +0.233 C 
ATOM     22  O   UNL     1      -5.572   3.114   2.222  0.00  0.00    -0.274 OA
ATOM     23  N   UNL     1      -6.946   3.991   0.716  0.00  0.00    -0.314 N 
ATOM     24  H   UNL     1      -7.267   4.004  -0.199  0.00  0.00    +0.149 HD
BRANCH  23  25
ATOM     25  C   UNL     1      -7.517   4.908   1.706  0.00  0.00    +0.104 C 
BRANCH  25  26
ATOM     26  C   UNL     1      -8.592   5.771   1.041  0.00  0.00    +0.017 C 
BRANCH  26  27
ATOM     27  C   UNL     1      -9.188   6.728   2.075  0.00  0.00    -0.018 C 
BRANCH  27  28
ATOM     28  C   UNL     1     -10.263   7.590   1.410  0.00  0.00    -0.086 C 
BRANCH  28  31
ATOM     29  H   UNL     1     -11.549   9.091   1.988  0.00  0.00    -0.090 HD
ATOM     30  H   UNL     1     -11.198   8.005   3.197  0.00  0.00    -0.090 HD
ATOM     31  N   UNL     1     -10.815   8.523   2.409  0.00  0.00    +0.378 N 
ATOM     32  H   UNL     1     -10.066   9.140   2.745  0.00  0.00    -0.090 HD
ENDBRANCH  28  31
ENDBRANCH  27  28
ENDBRANCH  26  27
ENDBRANCH  25  26
ENDBRANCH  23  25
ENDBRANCH  20  21
ENDBRANCH  15  20
TORSDOF 8
