REMARK  Name = ZINC17097353
REMARK  3 active torsions:
REMARK  status: ('A' for Active; 'I' for Inactive)
REMARK    1  A    between atoms: C_5  and  C_7
REMARK    2  A    between atoms: C_12  and  C_18
REMARK    3  A    between atoms: C_22  and  N_24
REMARK                            x       y       z     vdW  Elec       q    Type
REMARK                         _______ _______ _______ _____ _____    ______ ____
ROOT
ATOM      1  C   UNL     1      -0.858   4.288   3.738  0.00  0.00    +0.033 C 
ATOM      2  C   UNL     1      -1.632   4.691   2.481  0.00  0.00    +0.060 C 
ATOM      3  C   UNL     1      -0.904   4.196   1.256  0.00  0.00    +0.018 C 
ATOM      4  C   UNL     1       0.441   4.080   1.251  0.00  0.00    +0.020 C 
ATOM      5  C   UNL     1       1.150   3.592   0.010  0.00  0.00    +0.063 C 
ATOM      6  C   UNL     1       0.410   4.099  -1.230  0.00  0.00    +0.109 C 
ATOM      7  C   UNL     1      -1.062   3.819  -1.074  0.00  0.00    +0.218 C 
ATOM      8  O   UNL     1      -1.733   3.549  -2.047  0.00  0.00    -0.275 OA
ATOM      9  N   UNL     1      -1.634   3.869   0.142  0.00  0.00    -0.289 N 
ATOM     10  C   UNL     1       1.207   4.402   2.384  0.00  0.00    +0.162 C 
ATOM     11  O   UNL     1       2.416   4.295   2.338  0.00  0.00    -0.292 OA
ATOM     12  C   UNL     1       0.553   4.879   3.653  0.00  0.00    +0.088 C 
ATOM     13  H   UNL     1      -2.579   3.669   0.233  0.00  0.00    +0.155 HD
ENDROOT
BRANCH   1  18
ATOM     14  C   UNL     1      -2.403   6.681   6.216  0.00  0.00    +0.000 A 
ATOM     15  C   UNL     1      -2.846   5.815   7.198  0.00  0.00    +0.001 A 
ATOM     16  C   UNL     1      -2.646   4.455   7.061  0.00  0.00    +0.020 A 
ATOM     17  C   UNL     1      -2.002   3.959   5.941  0.00  0.00    +0.044 A 
ATOM     18  C   UNL     1      -1.560   4.827   4.958  0.00  0.00    -0.025 A 
ATOM     19  C   UNL     1      -1.756   6.188   5.099  0.00  0.00    +0.005 A 
ATOM     20 CL   UNL     1      -1.751   2.251   5.768  0.00  0.00    -0.083 Cl
ENDBRANCH   1  18
BRANCH   5  21
ATOM     21  C   UNL     1       1.171   2.086   0.002  0.00  0.00    -0.037 A 
ATOM     22  C   UNL     1      -0.017   1.378   0.010  0.00  0.00    +0.006 A 
ATOM     23  C   UNL     1       0.002  -0.004   0.002  0.00  0.00    +0.022 A 
ATOM     24  C   UNL     1       1.210  -0.679  -0.013  0.00  0.00    +0.071 A 
ATOM     25  C   UNL     1       2.398   0.029  -0.021  0.00  0.00    +0.145 A 
ATOM     26  C   UNL     1       2.378   1.412  -0.013  0.00  0.00    +0.038 A 
ATOM     27 CL   UNL     1       1.234  -2.415  -0.023  0.00  0.00    -0.081 Cl
BRANCH  25  28
ATOM     28  N   UNL     1       3.690  -0.692  -0.036  0.00  0.00    +0.058 N 
ATOM     29  O   UNL     1       4.736  -0.068  -0.043  0.00  0.00    -0.126 OA
ATOM     30  O   UNL     1       3.708  -1.910  -0.043  0.00  0.00    -0.126 OA
ENDBRANCH  25  28
ENDBRANCH   5  21
TORSDOF 3
