REMARK  Name = ZINC04702264
REMARK  6 active torsions:
REMARK  status: ('A' for Active; 'I' for Inactive)
REMARK    1  A    between atoms: C_3  and  N_11
REMARK    2  A    between atoms: C_4  and  N_8
REMARK    3  A    between atoms: N_11  and  C_12
REMARK    4  A    between atoms: C_12  and  C_13
REMARK    5  A    between atoms: C_13  and  N_14
REMARK    6  A    between atoms: N_17  and  C_18
REMARK                            x       y       z     vdW  Elec       q    Type
REMARK                         _______ _______ _______ _____ _____    ______ ____
ROOT
ATOM      1  C   UNL     1       2.555   4.136   0.769  0.00  0.00    +0.120 C 
ENDROOT
BRANCH   1   2
ATOM      2  N   UNL     1       2.546   5.580   0.522  0.00  0.00    -0.341 N 
ATOM      3  H   UNL     1       1.709   6.070   0.543  0.00  0.00    +0.146 HD
BRANCH   2   6
ATOM      4  C   UNL     1       6.134   6.243   0.081  0.00  0.00    +0.022 A 
ATOM      5  C   UNL     1       4.953   5.577   0.345  0.00  0.00    +0.026 A 
ATOM      6  C   UNL     1       3.742   6.251   0.256  0.00  0.00    +0.058 A 
ATOM      7  C   UNL     1       3.722   7.593  -0.103  0.00  0.00    +0.148 A 
ATOM      8  C   UNL     1       4.906   8.255  -0.361  0.00  0.00    +0.054 A 
ATOM      9  C   UNL     1       6.111   7.580  -0.272  0.00  0.00    +0.043 A 
ATOM     10 CL   UNL     1       7.598   8.414  -0.602  0.00  0.00    -0.083 Cl
BRANCH   7  11
ATOM     11  N   UNL     1       2.433   8.313  -0.205  0.00  0.00    +0.058 N 
ATOM     12  O   UNL     1       1.452   7.747  -0.651  0.00  0.00    -0.126 OA
ATOM     13  O   UNL     1       2.354   9.473   0.158  0.00  0.00    -0.126 OA
ENDBRANCH   7  11
ENDBRANCH   2   6
ENDBRANCH   1   2
BRANCH   1  14
ATOM     14  C   UNL     1       1.127   3.654   1.032  0.00  0.00    +0.124 C 
BRANCH  14  15
ATOM     15  N   UNL     1       1.137   2.210   1.278  0.00  0.00    -0.298 N 
ATOM     16  C   UNL     1      -0.017   1.562   1.535  0.00  0.00    +0.300 C 
ATOM     17  O   UNL     1      -1.067   2.176   1.557  0.00  0.00    -0.253 OA
ATOM     18  N   UNL     1      -0.008   0.234   1.762  0.00  0.00    -0.297 N 
ATOM     19  H   UNL     1       1.974   1.720   1.257  0.00  0.00    +0.150 HD
ATOM     20  H   UNL     1       0.828  -0.256   1.741  0.00  0.00    +0.151 HD
BRANCH  18  21
ATOM     21  C   UNL     1      -1.263  -0.470   2.041  0.00  0.00    +0.074 C 
ATOM     22  C   UNL     1      -1.585  -0.365   3.533  0.00  0.00    +0.022 C 
ATOM     23  C   UNL     1      -2.895  -1.100   3.824  0.00  0.00    +0.002 C 
ATOM     24  C   UNL     1      -2.751  -2.573   3.436  0.00  0.00    +0.000 C 
ATOM     25  C   UNL     1      -2.428  -2.678   1.944  0.00  0.00    +0.002 C 
ATOM     26  C   UNL     1      -1.118  -1.943   1.652  0.00  0.00    +0.022 C 
ENDBRANCH  18  21
ENDBRANCH  14  15
ENDBRANCH   1  14
TORSDOF 6
