REMARK  Name = ZINC01573970
REMARK  5 active torsions:
REMARK  status: ('A' for Active; 'I' for Inactive)
REMARK    1  A    between atoms: C_4  and  O_23
REMARK    2  A    between atoms: C_5  and  C_7
REMARK    3  A    between atoms: N_8  and  N_9
REMARK    4  A    between atoms: C_10  and  C_12
REMARK    5  A    between atoms: C_17  and  N_18
REMARK                            x       y       z     vdW  Elec       q    Type
REMARK                         _______ _______ _______ _____ _____    ______ ____
ROOT
ATOM      1  N   UNL     1      -1.038   6.039   0.278  0.00  0.00    -0.203 N 
ATOM      2  C   UNL     1       0.090   5.321   0.114  0.00  0.00    +0.265 C 
ATOM      3  O   UNL     1       1.161   5.886   0.007  0.00  0.00    -0.268 OA
ATOM      4  H   UNL     1      -1.893   5.588   0.363  0.00  0.00    +0.178 HD
ENDROOT
BRANCH   2   5
ATOM      5  C   UNL     1       0.025   3.848   0.063  0.00  0.00    +0.062 A 
ATOM      6  C   UNL     1      -1.179   3.188   0.317  0.00  0.00    +0.015 A 
ATOM      7  C   UNL     1      -1.234   1.812   0.263  0.00  0.00    +0.001 A 
ATOM      8  C   UNL     1      -0.097   1.078  -0.032  0.00  0.00    +0.002 A 
ATOM      9  C   UNL     1       1.101   1.716  -0.285  0.00  0.00    +0.027 A 
ATOM     10  C   UNL     1       1.173   3.101  -0.240  0.00  0.00    +0.058 A 
BRANCH  10  11
ATOM     11  N   UNL     1       2.384   3.749  -0.495  0.00  0.00    -0.322 N 
ATOM     12  C   UNL     1       2.601   4.677  -1.474  0.00  0.00    +0.091 A 
ATOM     13  C   UNL     1       3.888   5.072  -1.402  0.00  0.00    +0.019 A 
ATOM     14  C   UNL     1       4.492   4.357  -0.347  0.00  0.00    +0.019 A 
ATOM     15  C   UNL     1       3.551   3.556   0.190  0.00  0.00    +0.091 A 
ENDBRANCH  10  11
ENDBRANCH   2   5
BRANCH   1  17
ATOM     16  C   UNL     1      -2.063   8.130   0.485  0.00  0.00    +0.142 C 
ATOM     17  N   UNL     1      -0.977   7.438   0.326  0.00  0.00    -0.187 NA
BRANCH  16  22
ATOM     18  C   UNL     1      -3.099  11.727   0.751  0.00  0.00    +0.001 A 
ATOM     19  C   UNL     1      -1.879  12.371   0.629  0.00  0.00    +0.004 A 
ATOM     20  C   UNL     1      -0.717  11.641   0.461  0.00  0.00    +0.046 A 
ATOM     21  C   UNL     1      -0.766  10.258   0.412  0.00  0.00    +0.125 A 
ATOM     22  C   UNL     1      -1.999   9.602   0.535  0.00  0.00    +0.036 A 
ATOM     23  C   UNL     1      -3.167  10.351   0.700  0.00  0.00    +0.013 A 
BRANCH  21  24
ATOM     24  O   UNL     1       0.374   9.540   0.247  0.00  0.00    -0.506 OA
ATOM     25  H   UNL     1       0.600   9.366  -0.677  0.00  0.00    +0.292 HD
ENDBRANCH  21  24
ENDBRANCH  16  22
ENDBRANCH   1  17
TORSDOF 5
