REMARK  Name = ZINC64808985
REMARK  8 active torsions:
REMARK  status: ('A' for Active; 'I' for Inactive)
REMARK    1  A    between atoms: C_1  and  C_2
REMARK    2  A    between atoms: C_2  and  C_3
REMARK    3  A    between atoms: C_3  and  C_23
REMARK    4  A    between atoms: N_6  and  N_10
REMARK    5  A    between atoms: C_11  and  C_13
REMARK    6  A    between atoms: C_13  and  N_14
REMARK    7  A    between atoms: N_14  and  C_15
REMARK    8  A    between atoms: N_14  and  C_20
REMARK                            x       y       z     vdW  Elec       q    Type
REMARK                         _______ _______ _______ _____ _____    ______ ____
ROOT
ATOM      1  C   UNL     1       0.368  -0.284  -1.682  0.00  0.00    +0.139 C 
ATOM      2  C   UNL     1       1.830   0.108  -1.603  0.00  0.00    +0.268 C 
ATOM      3  O   UNL     1       2.638  -0.240  -0.769  0.00  0.00    -0.271 OA
ATOM      4  N   UNL     1       2.046   0.924  -2.654  0.00  0.00    -0.137 N 
ATOM      5  C   UNL     1       0.935   1.100  -3.379  0.00  0.00    +0.327 C 
ATOM      6  O   UNL     1       0.881   1.793  -4.375  0.00  0.00    -0.251 OA
ATOM      7  N   UNL     1      -0.116   0.422  -2.881  0.00  0.00    -0.280 N 
ATOM      8  H   UNL     1      -1.016   0.403  -3.241  0.00  0.00    +0.152 HD
ENDROOT
BRANCH   1   9
ATOM      9  C   UNL     1       0.224  -1.774  -1.851  0.00  0.00    -0.015 A 
ATOM     10  C   UNL     1       0.063  -2.583  -0.741  0.00  0.00    +0.006 A 
ATOM     11  C   UNL     1      -0.070  -3.950  -0.896  0.00  0.00    +0.000 A 
ATOM     12  C   UNL     1      -0.041  -4.509  -2.160  0.00  0.00    +0.000 A 
ATOM     13  C   UNL     1       0.119  -3.700  -3.270  0.00  0.00    +0.000 A 
ATOM     14  C   UNL     1       0.247  -2.332  -3.115  0.00  0.00    +0.006 A 
ENDBRANCH   1   9
BRANCH   4  15
ATOM     15  N   UNL     1       3.281   1.515  -2.951  0.00  0.00    -0.225 N 
ATOM     16  C   UNL     1       4.026   1.043  -3.970  0.00  0.00    +0.213 C 
ATOM     17  O   UNL     1       3.628   0.107  -4.630  0.00  0.00    -0.276 OA
ATOM     18  H   UNL     1       3.599   2.264  -2.423  0.00  0.00    +0.173 HD
BRANCH  16  19
ATOM     19  C   UNL     1       5.355   1.679  -4.290  0.00  0.00    +0.021 C 
BRANCH  19  20
ATOM     20  N   UNL     1       6.025   0.909  -5.346  0.00  0.00    +0.389 N 
ATOM     21  H   UNL     1       6.899   1.354  -5.583  0.00  0.00    -0.080 HD
BRANCH  20  22
ATOM     22  C   UNL     1       6.284  -0.455  -4.868  0.00  0.00    -0.068 C 
ATOM     23  C   UNL     1       7.143  -0.413  -3.588  0.00  0.00    -0.015 C 
ATOM     24  C   UNL     1       8.088  -1.633  -3.724  0.00  0.00    -0.002 C 
ATOM     25  C   UNL     1       8.420  -1.641  -5.237  0.00  0.00    -0.002 C 
ATOM     26  C   UNL     1       7.095  -1.236  -5.917  0.00  0.00    -0.015 C 
ENDBRANCH  20  22
BRANCH  20  27
ATOM     27  C   UNL     1       5.163   0.857  -6.535  0.00  0.00    -0.068 C 
ATOM     28  C   UNL     1       5.749   1.363  -7.854  0.00  0.00    -0.017 C 
ATOM     29  C   UNL     1       4.688   2.187  -7.122  0.00  0.00    -0.017 C 
ENDBRANCH  20  27
ENDBRANCH  19  20
ENDBRANCH  16  19
ENDBRANCH   4  15
BRANCH   1  31
ATOM     30  C   UNL     1      -0.282   1.713  -0.329  0.00  0.00    +0.007 C 
ATOM     31  C   UNL     1      -0.384   0.191  -0.437  0.00  0.00    +0.037 C 
ENDBRANCH   1  31
TORSDOF 7
