REMARK  Name = ZINC66702911
REMARK  12 active torsions:
REMARK  status: ('A' for Active; 'I' for Inactive)
REMARK    1  A    between atoms: C_1  and  C_2
REMARK    2  A    between atoms: C_2  and  N_3
REMARK    3  A    between atoms: C_9  and  C_11
REMARK    4  A    between atoms: C_11  and  C_12
REMARK    5  A    between atoms: N_20  and  C_21
REMARK    6  A    between atoms: C_21  and  C_22
REMARK    7  A    between atoms: C_22  and  N_23
REMARK    8  A    between atoms: N_23  and  C_24
REMARK    9  A    between atoms: N_23  and  C_26
REMARK   10  A    between atoms: C_24  and  C_25
REMARK   11  A    between atoms: C_26  and  C_27
REMARK   12  A    between atoms: C_26  and  C_28
REMARK                            x       y       z     vdW  Elec       q    Type
REMARK                         _______ _______ _______ _____ _____    ______ ____
ROOT
ATOM      1  C   UNL     1       1.448  -5.194  -5.926  0.00  0.00    +0.001 C 
ATOM      2  C   UNL     1      -0.066  -4.987  -6.008  0.00  0.00    +0.023 C 
ATOM      3  C   UNL     1      -0.592  -5.605  -7.308  0.00  0.00    +0.109 C 
ATOM      4  N   UNL     1      -0.171  -7.011  -7.367  0.00  0.00    -0.286 N 
ATOM      5  C   UNL     1       1.255  -7.329  -7.208  0.00  0.00    +0.109 C 
ATOM      6  C   UNL     1       1.760  -6.692  -5.910  0.00  0.00    +0.023 C 
ATOM      7  C   UNL     1      -1.075  -7.991  -7.564  0.00  0.00    +0.302 C 
ATOM      8  O   UNL     1      -2.260  -7.724  -7.611  0.00  0.00    -0.253 OA
ATOM      9  N   UNL     1      -0.665  -9.267  -7.708  0.00  0.00    -0.301 N 
ATOM     10  H   UNL     1       0.272  -9.491  -7.598  0.00  0.00    +0.150 HD
ENDROOT
BRANCH   1  11
ATOM     11  C   UNL     1       1.982  -4.548  -4.646  0.00  0.00    +0.099 C 
BRANCH  11  18
ATOM     12  N   UNL     1       2.099  -0.846  -1.292  0.00  0.00    +0.382 N 
ATOM     13  C   UNL     1       1.320  -0.369  -2.442  0.00  0.00    -0.060 C 
ATOM     14  C   UNL     1       2.001  -0.816  -3.740  0.00  0.00    +0.089 C 
ATOM     15  N   UNL     1       2.183  -2.275  -3.693  0.00  0.00    -0.305 N 
ATOM     16  C   UNL     1       2.811  -2.857  -2.497  0.00  0.00    +0.089 C 
ATOM     17  C   UNL     1       2.092  -2.314  -1.258  0.00  0.00    -0.060 C 
ATOM     18  C   UNL     1       1.785  -3.056  -4.716  0.00  0.00    +0.216 C 
ATOM     19  O   UNL     1       1.269  -2.558  -5.694  0.00  0.00    -0.276 OA
ATOM     20  H   UNL     1       3.050  -0.517  -1.374  0.00  0.00    -0.082 HD
BRANCH  12  22
ATOM     21  C   UNL     1       1.627   1.199  -0.031  0.00  0.00    -0.017 C 
ATOM     22  C   UNL     1       1.508  -0.326  -0.052  0.00  0.00    -0.082 C 
ENDBRANCH  12  22
ENDBRANCH  11  18
ENDBRANCH   1  11
BRANCH   9  23
ATOM     23  C   UNL     1      -1.636 -10.316  -8.030  0.00  0.00    +0.087 C 
BRANCH  23  24
ATOM     24  C   UNL     1      -0.916 -11.662  -8.137  0.00  0.00    -0.059 C 
BRANCH  24  25
ATOM     25  N   UNL     1      -1.876 -12.701  -8.533  0.00  0.00    +0.382 N 
ATOM     26  H   UNL     1      -1.395 -13.581  -8.639  0.00  0.00    -0.081 HD
BRANCH  25  27
ATOM     27  C   UNL     1      -2.911 -12.831  -7.499  0.00  0.00    -0.075 C 
ATOM     28  C   UNL     1      -3.911 -13.913  -7.911  0.00  0.00    -0.014 C 
ATOM     29  C   UNL     1      -2.259 -13.219  -6.170  0.00  0.00    -0.014 C 
ENDBRANCH  25  27
BRANCH  25  30
ATOM     30  C   UNL     1      -2.503 -12.328  -9.809  0.00  0.00    -0.082 C 
ATOM     31  C   UNL     1      -1.437 -12.279 -10.905  0.00  0.00    -0.017 C 
ENDBRANCH  25  30
ENDBRANCH  24  25
ENDBRANCH  23  24
ENDBRANCH   9  23
TORSDOF 8
