REMARK  Name = ZINC06631801
REMARK  11 active torsions:
REMARK  status: ('A' for Active; 'I' for Inactive)
REMARK    1  A    between atoms: C_1  and  C_2
REMARK    2  A    between atoms: C_2  and  C_3
REMARK    3  A    between atoms: C_3  and  C_5
REMARK    4  A    between atoms: C_3  and  N_13
REMARK    5  A    between atoms: N_7  and  C_8
REMARK    6  A    between atoms: N_13  and  C_14
REMARK    7  A    between atoms: C_18  and  C_21
REMARK    8  A    between atoms: C_19  and  C_20
REMARK    9  A    between atoms: C_22  and  C_24
REMARK   10  A    between atoms: C_25  and  N_32
REMARK   11  A    between atoms: C_26  and  C_29
REMARK                            x       y       z     vdW  Elec       q    Type
REMARK                         _______ _______ _______ _____ _____    ______ ____
ROOT
ATOM      1  N   UNL     1      -1.710   2.767   1.259  0.00  0.00    -0.255 N 
ATOM      2  C   UNL     1      -3.004   3.024   0.983  0.00  0.00    +0.261 C 
ATOM      3  O   UNL     1      -3.758   2.112   0.699  0.00  0.00    -0.269 OA
ENDROOT
BRANCH   1   4
ATOM      4  C   UNL     1      -0.824   3.821   1.504  0.00  0.00    +0.041 A 
ATOM      5  C   UNL     1       0.089   4.203   0.529  0.00  0.00    +0.024 A 
ATOM      6  C   UNL     1       0.959   5.247   0.772  0.00  0.00    +0.002 A 
ATOM      7  C   UNL     1       0.929   5.906   1.988  0.00  0.00    +0.004 A 
ATOM      8  C   UNL     1       0.025   5.524   2.962  0.00  0.00    -0.046 A 
ATOM      9  C   UNL     1      -0.851   4.484   2.723  0.00  0.00    -0.026 A 
ATOM     10  C   UNL     1      -1.836   4.069   3.786  0.00  0.00    +0.046 C 
ATOM     11  C   UNL     1      -0.004   6.245   4.285  0.00  0.00    +0.044 C 
ENDBRANCH   1   4
BRANCH   2  12
ATOM     12  C   UNL     1      -3.501   4.401   1.023  0.00  0.00    +0.116 A 
ATOM     13  C   UNL     1      -4.812   4.871   0.922  0.00  0.00    +0.076 A 
ATOM     14  C   UNL     1      -4.888   6.261   1.007  0.00  0.00    +0.155 A 
ATOM     15  N   UNL     1      -3.784   6.958   1.164  0.00  0.00    -0.203 NA
ATOM     16  S   UNL     1      -2.597   5.922   1.222  0.00  0.00    +0.019 S 
BRANCH  14  17
ATOM     17  C   UNL     1      -6.192   6.943   0.920  0.00  0.00    +0.262 C 
ATOM     18  O   UNL     1      -7.209   6.293   0.774  0.00  0.00    -0.269 OA
ATOM     19  N   UNL     1      -6.258   8.287   1.003  0.00  0.00    -0.324 N 
ATOM     20  H   UNL     1      -5.446   8.805   1.119  0.00  0.00    +0.145 HD
ATOM     21  H   UNL     1      -7.116   8.735   0.946  0.00  0.00    +0.145 HD
ENDBRANCH  14  17
BRANCH  13  22
ATOM     22  N   UNL     1      -5.917   4.047   0.756  0.00  0.00    -0.355 N 
ATOM     23  H   UNL     1      -5.801   3.085   0.704  0.00  0.00    +0.142 HD
ATOM     24  H   UNL     1      -6.804   4.433   0.693  0.00  0.00    +0.142 HD
ENDBRANCH  13  22
ENDBRANCH   2  12
BRANCH   1  25
ATOM     25  C   UNL     1      -1.232   1.383   1.303  0.00  0.00    +0.167 C 
BRANCH  25  26
ATOM     26  C   UNL     1      -0.544   1.131   2.620  0.00  0.00    +0.234 C 
ATOM     27  O   UNL     1      -0.123   2.062   3.272  0.00  0.00    -0.274 OA
ATOM     28  N   UNL     1      -0.398  -0.130   3.074  0.00  0.00    -0.311 N 
ATOM     29  H   UNL     1      -0.735  -0.875   2.552  0.00  0.00    +0.149 HD
BRANCH  28  30
ATOM     30  C   UNL     1       0.270  -0.375   4.354  0.00  0.00    +0.073 C 
ATOM     31  C   UNL     1       1.792  -0.508   4.139  0.00  0.00    +0.022 C 
ATOM     32  C   UNL     1       2.223  -1.609   5.140  0.00  0.00    +0.002 C 
ATOM     33  C   UNL     1       1.041  -2.608   5.078  0.00  0.00    +0.002 C 
ATOM     34  C   UNL     1      -0.207  -1.711   4.951  0.00  0.00    +0.022 C 
ENDBRANCH  28  30
ENDBRANCH  25  26
BRANCH  25  36
ATOM     35  C   UNL     1      -0.985   1.218  -1.177  0.00  0.00    +0.006 C 
ATOM     36  C   UNL     1      -0.243   1.148   0.159  0.00  0.00    +0.029 C 
ENDBRANCH  25  36
ENDBRANCH   1  25
TORSDOF 8
