REMARK  Name = ZINC43284227
REMARK  8 active torsions:
REMARK  status: ('A' for Active; 'I' for Inactive)
REMARK    1  A    between atoms: C_1  and  C_2
REMARK    2  A    between atoms: C_2  and  C_3
REMARK    3  A    between atoms: C_3  and  C_5
REMARK    4  A    between atoms: C_3  and  N_23
REMARK    5  A    between atoms: C_5  and  C_7
REMARK    6  A    between atoms: C_5  and  S_13
REMARK    7  A    between atoms: S_13  and  C_14
REMARK    8  A    between atoms: C_20  and  N_22
REMARK                            x       y       z     vdW  Elec       q    Type
REMARK                         _______ _______ _______ _____ _____    ______ ____
ROOT
ATOM      1  C   UNL     1      -1.429  -2.041  -0.250  0.00  0.00    +0.076 C 
ENDROOT
BRANCH   1   2
ATOM      2  C   UNL     1      -2.892  -2.352  -0.436  0.00  0.00    +0.003 A 
ATOM      3  C   UNL     1      -3.668  -3.237   0.236  0.00  0.00    +0.013 A 
ATOM      4  C   UNL     1      -5.001  -3.357  -0.109  0.00  0.00    +0.023 A 
ATOM      5  C   UNL     1      -5.493  -2.585  -1.110  0.00  0.00    +0.055 A 
ATOM      6  S   UNL     1      -4.053  -1.645  -1.592  0.00  0.00    -0.085 S 
ATOM      7 BR   UNL     1      -7.249  -2.515  -1.808  0.00  0.00    -0.043 Br
ENDBRANCH   1   2
BRANCH   1   8
ATOM      8  C   UNL     1      -1.264  -0.565   0.117  0.00  0.00    -0.057 C 
BRANCH   8   9
ATOM      9  N   UNL     1      -2.049  -0.270   1.324  0.00  0.00    +0.381 N 
ATOM     10  H   UNL     1      -1.940   0.704   1.566  0.00  0.00    -0.090 HD
ATOM     11  H   UNL     1      -3.023  -0.466   1.148  0.00  0.00    -0.090 HD
ATOM     12  H   UNL     1      -1.722  -0.845   2.086  0.00  0.00    -0.090 HD
ENDBRANCH   8   9
BRANCH   8  14
ATOM     13  C   UNL     1       0.396   1.234   0.618  0.00  0.00    +0.002 C 
ATOM     14  C   UNL     1       0.212  -0.267   0.384  0.00  0.00    -0.018 C 
ENDBRANCH   8  14
ENDBRANCH   1   8
BRANCH   1  15
ATOM     15  S   UNL     1      -0.537  -2.384  -1.792  0.00  0.00    -0.081 S 
BRANCH  15  16
ATOM     16  C   UNL     1      -0.611  -4.137  -1.946  0.00  0.00    +0.171 A 
ATOM     17  N   UNL     1      -0.116  -4.730  -3.068  0.00  0.00    -0.302 N 
ATOM     18  H   UNL     1       0.274  -4.186  -3.771  0.00  0.00    +0.171 HD
ATOM     19  C   UNL     1      -0.164  -6.071  -3.204  0.00  0.00    +0.254 A 
ATOM     20  O   UNL     1       0.278  -6.611  -4.206  0.00  0.00    -0.268 OA
ATOM     21  C   UNL     1      -0.729  -6.834  -2.177  0.00  0.00    +0.113 A 
ATOM     22  C   UNL     1      -1.220  -6.182  -1.054  0.00  0.00    +0.124 A 
ATOM     23  N   UNL     1      -1.140  -4.849  -0.973  0.00  0.00    -0.209 NA
BRANCH  22  24
ATOM     24  N   UNL     1      -1.784  -6.907  -0.024  0.00  0.00    -0.343 N 
ATOM     25  H   UNL     1      -1.837  -7.873  -0.083  0.00  0.00    +0.144 HD
ATOM     26  H   UNL     1      -2.127  -6.449   0.760  0.00  0.00    +0.144 HD
ENDBRANCH  22  24
ENDBRANCH  15  16
ENDBRANCH   1  15
TORSDOF 7
