REMARK  Name = ZINC05208116
REMARK  8 active torsions:
REMARK  status: ('A' for Active; 'I' for Inactive)
REMARK    1  A    between atoms: C_2  and  C_23
REMARK    2  A    between atoms: N_9  and  C1*_10
REMARK    3  A    between atoms: C2*_12  and  O2*_22
REMARK    4  A    between atoms: C3*_14  and  O3*_21
REMARK    5  A    between atoms: C4*_16  and  C5*_19
REMARK    6  A    between atoms: C5*_19  and  O5*_20
REMARK    7  A    between atoms: C_23  and  C_24
REMARK    8  A    between atoms: C_24  and  C_25
REMARK                            x       y       z     vdW  Elec       q    Type
REMARK                         _______ _______ _______ _____ _____    ______ ____
ROOT
ATOM      1  C   UNL     1      -1.648   1.108   4.338  0.00  0.00    +0.102 A 
ATOM      2  C   UNL     1      -0.736   1.888   3.720  0.00  0.00    +0.034 A 
ATOM      3  C   UNL     1      -0.416   3.150   4.278  0.00  0.00    +0.257 A 
ATOM      4  O   UNL     1       0.399   3.873   3.735  0.00  0.00    -0.267 OA
ATOM      5  N   UNL     1      -1.024   3.543   5.415  0.00  0.00    -0.275 N 
ATOM      6  H   UNL     1      -0.804   4.433   5.815  0.00  0.00    +0.173 HD
ATOM      7  C   UNL     1      -1.926   2.743   6.014  0.00  0.00    +0.331 A 
ATOM      8  O   UNL     1      -2.466   3.111   7.039  0.00  0.00    -0.246 OA
ATOM      9  N   UNL     1      -2.238   1.542   5.494  0.00  0.00    -0.271 N 
ENDROOT
BRANCH   9  10
ATOM     10  C1* UNL     1      -3.224   0.694   6.168  0.00  0.00    +0.255 C 
ATOM     11  C2* UNL     1      -4.648   1.174   5.829  0.00  0.00    +0.195 C 
ATOM     12  C3* UNL     1      -5.285  -0.024   5.083  0.00  0.00    +0.178 C 
ATOM     13  C4* UNL     1      -4.037  -0.809   4.605  0.00  0.00    +0.177 C 
ATOM     14  O4* UNL     1      -3.106  -0.660   5.699  0.00  0.00    -0.346 OA
BRANCH  12  15
ATOM     15  O3* UNL     1      -6.077  -0.816   5.971  0.00  0.00    -0.386 OA
ATOM     16  H3* UNL     1      -6.423  -1.626   5.572  0.00  0.00    +0.210 HD
ENDBRANCH  12  15
BRANCH  11  17
ATOM     17  O2* UNL     1      -4.600   2.323   4.981  0.00  0.00    -0.385 OA
ATOM     18  H2* UNL     1      -5.470   2.668   4.736  0.00  0.00    +0.210 HD
ENDBRANCH  11  17
BRANCH  13  19
ATOM     19  C5* UNL     1      -4.379  -2.284   4.387  0.00  0.00    +0.190 C 
BRANCH  19  20
ATOM     20  O5* UNL     1      -3.216  -2.982   3.936  0.00  0.00    -0.392 OA
ATOM     21  H5* UNL     1      -3.360  -3.925   3.777  0.00  0.00    +0.210 HD
ENDBRANCH  19  20
ENDBRANCH  13  19
ENDBRANCH   9  10
BRANCH   2  22
ATOM     22  C   UNL     1      -0.071   1.425   2.449  0.00  0.00    +0.051 C 
BRANCH  22  23
ATOM     23  C   UNL     1      -0.831   1.982   1.244  0.00  0.00    +0.118 C 
BRANCH  23  24
ATOM     24  C   UNL     1      -0.156   1.511  -0.046  0.00  0.00    +0.390 C 
ATOM     25  F   UNL     1      -0.165   0.113  -0.095  0.00  0.00    -0.171 F 
ATOM     26  F   UNL     1       1.166   1.970  -0.075  0.00  0.00    -0.171 F 
ATOM     27  F   UNL     1      -0.850   2.021  -1.149  0.00  0.00    -0.171 F 
ENDBRANCH  23  24
ENDBRANCH  22  23
ENDBRANCH   2  22
TORSDOF 8
