REMARK  Name = ZINC13211775
REMARK  7 active torsions:
REMARK  status: ('A' for Active; 'I' for Inactive)
REMARK    1  A    between atoms: C_1  and  C_2
REMARK    2  A    between atoms: C_4  and  C_10
REMARK    3  A    between atoms: C_5  and  C_8
REMARK    4  A    between atoms: C_8  and  O_9
REMARK    5  A    between atoms: C_18  and  C_21
REMARK    6  A    between atoms: C_21  and  O_23
REMARK    7  A    between atoms: O_23  and  C_24
REMARK                            x       y       z     vdW  Elec       q    Type
REMARK                         _______ _______ _______ _____ _____    ______ ____
ROOT
ATOM      1  C   UNL     1      -4.273   2.398  -2.377  0.00  0.00    +0.138 C 
ATOM      2  C   UNL     1      -4.950   1.062  -2.536  0.00  0.00    +0.060 A 
ATOM      3  C   UNL     1      -5.561   0.404  -1.524  0.00  0.00    +0.066 A 
ATOM      4  N   UNL     1      -6.053  -0.736  -2.009  0.00  0.00    -0.240 NA
ATOM      5  C   UNL     1      -5.769  -0.815  -3.284  0.00  0.00    +0.197 A 
ATOM      6  N   UNL     1      -5.080   0.291  -3.648  0.00  0.00    -0.346 N 
ATOM      7  C   UNL     1      -5.626   0.941  -0.115  0.00  0.00    +0.087 C 
ATOM      8  C   UNL     1      -4.585   2.062   0.011  0.00  0.00    +0.170 C 
ATOM      9  N   UNL     1      -4.729   3.000  -1.112  0.00  0.00    -0.292 NA
ATOM     10  H   UNL     1      -4.242   3.864  -0.927  0.00  0.00    +0.124 HD
ATOM     11  H   UNL     1      -4.742   0.496  -4.534  0.00  0.00    +0.167 HD
ENDROOT
BRANCH   1  15
ATOM     12  C   UNL     1      -0.217  -0.564  -2.471  0.00  0.00    +0.067 C 
ATOM     13  C   UNL     1      -0.838   0.806  -2.384  0.00  0.00    +0.060 A 
ATOM     14  C   UNL     1      -2.218   0.938  -2.421  0.00  0.00    +0.203 A 
ATOM     15  C   UNL     1      -2.778   2.209  -2.340  0.00  0.00    +0.030 A 
ATOM     16  C   UNL     1      -1.928   3.297  -2.224  0.00  0.00    +0.002 A 
ATOM     17  C   UNL     1      -0.562   3.086  -2.194  0.00  0.00    +0.089 A 
ATOM     18  N   UNL     1      -0.064   1.867  -2.268  0.00  0.00    -0.361 N 
ATOM     19  O   UNL     1      -3.012  -0.159  -2.536  0.00  0.00    -0.286 OA
ATOM     20  H   UNL     1       0.899   1.749  -2.240  0.00  0.00    +0.165 HD
BRANCH  16  21
ATOM     21  C   UNL     1      -2.486   4.694  -2.133  0.00  0.00    +0.193 C 
BRANCH  21  22
ATOM     22  O   UNL     1      -1.414   5.638  -2.168  0.00  0.00    -0.390 OA
ATOM     23  H   UNL     1      -1.700   6.560  -2.113  0.00  0.00    +0.210 HD
ENDBRANCH  21  22
ENDBRANCH  16  21
ENDBRANCH   1  15
BRANCH   8  24
ATOM     24  C   UNL     1      -4.795   2.798   1.309  0.00  0.00    +0.324 C 
ATOM     25  O   UNL     1      -5.383   3.854   1.316  0.00  0.00    -0.249 OA
BRANCH  24  26
ATOM     26  O   UNL     1      -4.329   2.281   2.457  0.00  0.00    -0.467 OA
ATOM     27  C   UNL     1      -4.563   3.033   3.649  0.00  0.00    +0.280 C 
ENDBRANCH  24  26
ENDBRANCH   8  24
TORSDOF 5
