REMARK  Name = ZINC39664462
REMARK  10 active torsions:
REMARK  status: ('A' for Active; 'I' for Inactive)
REMARK    1  A    between atoms: C_1  and  C_2
REMARK    2  A    between atoms: C_2  and  C_3
REMARK    3  A    between atoms: C_3  and  C_5
REMARK    4  A    between atoms: C_3  and  C_6
REMARK    5  A    between atoms: C_6  and  C_7
REMARK    6  A    between atoms: C_11  and  C_20
REMARK    7  A    between atoms: N_22  and  C_23
REMARK    8  A    between atoms: C_23  and  C_24
REMARK    9  A    between atoms: C_24  and  C_26
REMARK   10  A    between atoms: C_24  and  N_32
REMARK                            x       y       z     vdW  Elec       q    Type
REMARK                         _______ _______ _______ _____ _____    ______ ____
ROOT
ATOM      1  C   UNL     1       1.329  -3.300  -0.201  0.00  0.00    +0.216 C 
ATOM      2  O   UNL     1       1.808  -2.284  -0.660  0.00  0.00    -0.276 OA
ATOM      3  N   UNL     1       1.630  -4.494  -0.750  0.00  0.00    -0.300 N 
ATOM      4  C   UNL     1       1.143  -5.831  -0.337  0.00  0.00    +0.121 C 
ATOM      5  C   UNL     1       0.901  -6.585  -1.664  0.00  0.00    +0.100 C 
ATOM      6  C   UNL     1       1.810  -5.882  -2.686  0.00  0.00    -0.004 C 
ATOM      7  C   UNL     1       2.518  -4.765  -1.905  0.00  0.00    +0.115 C 
ATOM      8  C   UNL     1       0.975  -5.282  -3.813  0.00  0.00    -0.010 C 
ATOM      9  C   UNL     1       1.905  -4.639  -4.845  0.00  0.00    -0.082 C 
ATOM     10  N   UNL     1       2.824  -5.653  -5.376  0.00  0.00    +0.379 N 
ATOM     11  C   UNL     1       3.688  -6.158  -4.303  0.00  0.00    -0.082 C 
ATOM     12  C   UNL     1       2.833  -6.865  -3.247  0.00  0.00    -0.010 C 
ATOM     13  H   UNL     1       2.292  -6.417  -5.766  0.00  0.00    -0.086 HD
ATOM     14  H   UNL     1       3.395  -5.241  -6.100  0.00  0.00    -0.086 HD
ENDROOT
BRANCH   5  15
ATOM     15  C   UNL     1      -0.544  -6.469  -2.077  0.00  0.00    +0.218 C 
ATOM     16  O   UNL     1      -1.198  -5.508  -1.733  0.00  0.00    -0.275 OA
ATOM     17  N   UNL     1      -1.109  -7.434  -2.829  0.00  0.00    -0.313 N 
ATOM     18  H   UNL     1      -0.586  -8.204  -3.104  0.00  0.00    +0.149 HD
BRANCH  17  19
ATOM     19  C   UNL     1      -2.513  -7.322  -3.231  0.00  0.00    +0.127 C 
BRANCH  19  20
ATOM     20  C   UNL     1      -2.902  -8.540  -4.071  0.00  0.00    +0.104 C 
BRANCH  20  21
ATOM     21  C   UNL     1      -4.308  -8.366  -4.587  0.00  0.00    -0.029 A 
ATOM     22  C   UNL     1      -5.227  -9.389  -4.444  0.00  0.00    +0.005 A 
ATOM     23  C   UNL     1      -6.516  -9.229  -4.917  0.00  0.00    +0.000 A 
ATOM     24  C   UNL     1      -6.886  -8.048  -5.532  0.00  0.00    +0.000 A 
ATOM     25  C   UNL     1      -5.967  -7.025  -5.673  0.00  0.00    +0.000 A 
ATOM     26  C   UNL     1      -4.679  -7.183  -5.197  0.00  0.00    +0.005 A 
ENDBRANCH  20  21
BRANCH  20  27
ATOM     27  N   UNL     1      -1.977  -8.668  -5.205  0.00  0.00    -0.290 NA
ATOM     28  C   UNL     1      -2.072  -7.503  -6.097  0.00  0.00    +0.113 C 
ATOM     29  C   UNL     1      -1.052  -7.648  -7.229  0.00  0.00    +0.175 C 
ATOM     30  O   UNL     1      -1.286  -8.879  -7.919  0.00  0.00    -0.377 OA
ATOM     31  C   UNL     1      -1.200 -10.034  -7.081  0.00  0.00    +0.175 C 
ATOM     32  C   UNL     1      -2.222  -9.913  -5.947  0.00  0.00    +0.113 C 
ENDBRANCH  20  27
ENDBRANCH  19  20
ENDBRANCH  17  19
ENDBRANCH   5  15
BRANCH   1  33
ATOM     33  C   UNL     1       0.398  -3.227   0.981  0.00  0.00    +0.099 C 
BRANCH  33  34
ATOM     34  C   UNL     1       0.225  -1.767   1.405  0.00  0.00    -0.006 C 
ATOM     35  C   UNL     1      -0.477  -0.991   0.289  0.00  0.00    +0.008 C 
BRANCH  34  37
ATOM     36  C   UNL     1      -0.688  -0.256   3.173  0.00  0.00    +0.004 C 
ATOM     37  C   UNL     1      -0.619  -1.702   2.679  0.00  0.00    +0.000 C 
ENDBRANCH  34  37
ENDBRANCH  33  34
ENDBRANCH   1  33
TORSDOF 8
