REMARK  Name = ZINC63824875
REMARK  6 active torsions:
REMARK  status: ('A' for Active; 'I' for Inactive)
REMARK    1  A    between atoms: C_1  and  C_2
REMARK    2  A    between atoms: C_4  and  C_33
REMARK    3  A    between atoms: C_7  and  N_10
REMARK    4  A    between atoms: C_11  and  C_13
REMARK    5  A    between atoms: C_16  and  C_19
REMARK    6  A    between atoms: C_19  and  N_20
REMARK                            x       y       z     vdW  Elec       q    Type
REMARK                         _______ _______ _______ _____ _____    ______ ____
ROOT
ATOM      1  C   UNL     1       0.504  -3.962   4.658  0.00  0.00    +0.075 C 
ATOM      2  C   UNL     1       1.716  -3.337   5.354  0.00  0.00    +0.013 C 
ATOM      3  C   UNL     1       3.001  -3.870   4.718  0.00  0.00    +0.006 C 
ATOM      4  C   UNL     1       3.052  -5.392   4.871  0.00  0.00    +0.009 C 
ATOM      5  C   UNL     1       1.841  -6.016   4.175  0.00  0.00    +0.006 C 
ATOM      6  C   UNL     1       0.556  -5.483   4.811  0.00  0.00    +0.013 C 
ENDROOT
BRANCH   1   8
ATOM      7  N   UNL     1       0.488  -2.310   2.817  0.00  0.00    -0.291 N 
ATOM      8  C   UNL     1       0.526  -3.603   3.195  0.00  0.00    +0.218 C 
ATOM      9  O   UNL     1       0.578  -4.478   2.357  0.00  0.00    -0.275 OA
ATOM     10  H   UNL     1       0.446  -1.610   3.487  0.00  0.00    +0.151 HD
BRANCH   7  15
ATOM     11  C   UNL     1      -0.019   1.526   0.010  0.00  0.00    +0.025 C 
ATOM     12  C   UNL     1       0.002  -0.004   0.002  0.00  0.00    +0.066 C 
ATOM     13  C   UNL     1      -1.458  -0.548   0.007  0.00  0.00    +0.063 C 
ATOM     14  S   UNL     1      -1.137  -2.257   0.624  0.00  0.00    -0.118 S 
ATOM     15  C   UNL     1       0.509  -1.961   1.395  0.00  0.00    +0.202 C 
ATOM     16  N   UNL     1       0.690  -0.498   1.209  0.00  0.00    -0.286 NA
ATOM     17  C   UNL     1      -2.054  -0.564  -1.402  0.00  0.00    +0.020 C 
ATOM     18  H   UNL     1       1.669  -0.255   1.192  0.00  0.00    +0.125 HD
ENDBRANCH   7  15
ENDBRANCH   1   8
BRANCH   4  19
ATOM     19  C   UNL     1       4.337  -5.925   4.234  0.00  0.00    +0.133 C 
BRANCH  19  20
ATOM     20  N   UNL     1       4.446  -7.364   4.484  0.00  0.00    -0.260 N 
ATOM     21  C   UNL     1       5.075  -7.797   5.598  0.00  0.00    +0.264 A 
ATOM     22  O   UNL     1       5.550  -7.009   6.393  0.00  0.00    -0.267 OA
ATOM     23  C   UNL     1       5.170  -9.250   5.827  0.00  0.00    +0.063 A 
ATOM     24  C   UNL     1       5.802  -9.775   6.951  0.00  0.00    +0.015 A 
ATOM     25  C   UNL     1       5.864 -11.143   7.119  0.00  0.00    +0.001 A 
ATOM     26  C   UNL     1       5.302 -11.992   6.178  0.00  0.00    +0.002 A 
ATOM     27  C   UNL     1       4.673 -11.484   5.059  0.00  0.00    +0.026 A 
ATOM     28  C   UNL     1       4.600 -10.112   4.873  0.00  0.00    +0.056 A 
ATOM     29  N   UNL     1       3.977  -9.560   3.763  0.00  0.00    -0.307 N 
ATOM     30  H   UNL     1       3.579 -10.143   3.097  0.00  0.00    +0.170 HD
ATOM     31  C   UNL     1       3.913  -8.227   3.605  0.00  0.00    +0.330 A 
ATOM     32  O   UNL     1       3.354  -7.784   2.621  0.00  0.00    -0.246 OA
ENDBRANCH  19  20
ENDBRANCH   4  19
TORSDOF 4
