REMARK  Name = ZINC45742977
REMARK  6 active torsions:
REMARK  status: ('A' for Active; 'I' for Inactive)
REMARK    1  A    between atoms: C_1  and  N_2
REMARK    2  A    between atoms: N_2  and  C_3
REMARK    3  A    between atoms: N_2  and  S_9
REMARK    4  A    between atoms: S_9  and  N_12
REMARK    5  A    between atoms: N_12  and  C_13
REMARK    6  A    between atoms: C_13  and  C_14
REMARK                            x       y       z     vdW  Elec       q    Type
REMARK                         _______ _______ _______ _____ _____    ______ ____
ROOT
ATOM      1  S   UNL     1      -0.000  -0.824  -1.437  0.00  0.00    +0.097 S 
ATOM      2  O   UNL     1      -0.531  -2.115  -1.167  0.00  0.00    -0.141 OA
ATOM      3  O   UNL     1      -0.572   0.049  -2.401  0.00  0.00    -0.141 OA
ENDROOT
BRANCH   1   5
ATOM      4  C   UNL     1      -0.018   1.461   0.010  0.00  0.00    +0.133 C 
ATOM      5  N   UNL     1       0.002  -0.004   0.002  0.00  0.00    -0.167 NA
BRANCH   5   6
ATOM      6  C   UNL     1       0.024  -0.743   1.267  0.00  0.00    +0.081 C 
ATOM      7  C   UNL     1      -1.222  -0.395   2.083  0.00  0.00    +0.020 C 
ATOM      8  C   UNL     1      -1.199  -1.167   3.404  0.00  0.00    +0.002 C 
ATOM      9  C   UNL     1       0.052  -0.785   4.196  0.00  0.00    +0.000 C 
ATOM     10  C   UNL     1       1.299  -1.133   3.380  0.00  0.00    +0.002 C 
ATOM     11  C   UNL     1       1.276  -0.361   2.059  0.00  0.00    +0.020 C 
ENDBRANCH   5   6
ENDBRANCH   1   5
BRANCH   1  12
ATOM     12  N   UNL     1       1.581  -1.045  -1.877  0.00  0.00    -0.179 NA
ATOM     13  H   UNL     1       1.926  -0.618  -2.676  0.00  0.00    +0.149 HD
BRANCH  12  14
ATOM     14  C   UNL     1       2.458  -1.886  -1.059  0.00  0.00    +0.112 C 
BRANCH  14  15
ATOM     15  C   UNL     1       3.720  -2.230  -1.853  0.00  0.00    +0.032 C 
ATOM     16  C   UNL     1       4.629  -3.183  -1.039  0.00  0.00    +0.035 C 
ATOM     17  C   UNL     1       6.041  -2.621  -1.340  0.00  0.00    +0.160 C 
ATOM     18  O   UNL     1       5.832  -1.193  -1.384  0.00  0.00    -0.379 OA
ATOM     19  C   UNL     1       4.583  -0.972  -2.066  0.00  0.00    +0.164 C 
ENDBRANCH  14  15
ENDBRANCH  12  14
ENDBRANCH   1  12
TORSDOF 5
