REMARK  Name = ZINC37700931
REMARK  6 active torsions:
REMARK  status: ('A' for Active; 'I' for Inactive)
REMARK    1  A    between atoms: C_5  and  C_7
REMARK    2  A    between atoms: C_7  and  O_8
REMARK    3  A    between atoms: O_8  and  C_9
REMARK    4  A    between atoms: C_12  and  C_18
REMARK    5  A    between atoms: C_14  and  N_15
REMARK    6  A    between atoms: C_18  and  N_19
REMARK                            x       y       z     vdW  Elec       q    Type
REMARK                         _______ _______ _______ _____ _____    ______ ____
ROOT
ATOM      1  C   UNL     1      -0.272  -4.030  -0.018  0.00  0.00    +0.151 A 
ATOM      2  C   UNL     1       0.839  -4.861  -0.028  0.00  0.00    +0.048 A 
ATOM      3  C   UNL     1       0.674  -6.233  -0.033  0.00  0.00    +0.005 A 
ATOM      4  C   UNL     1      -0.597  -6.777  -0.029  0.00  0.00    -0.062 A 
ATOM      5  C   UNL     1      -1.706  -5.951  -0.020  0.00  0.00    +0.038 A 
ATOM      6  C   UNL     1      -1.546  -4.579  -0.009  0.00  0.00    +0.168 A 
ENDROOT
BRANCH   6   7
ATOM      7  N   UNL     1      -2.733  -3.695   0.008  0.00  0.00    +0.060 N 
ATOM      8  O   UNL     1      -3.843  -4.174   0.016  0.00  0.00    -0.126 OA
ATOM      9  O   UNL     1      -2.592  -2.494   0.013  0.00  0.00    -0.126 OA
ENDBRANCH   6   7
BRANCH   1  10
ATOM     10  O   UNL     1      -0.112  -2.680  -0.012  0.00  0.00    -0.485 OA
BRANCH  10  11
ATOM     11  C   UNL     1       1.229  -2.186  -0.022  0.00  0.00    +0.265 C 
BRANCH  11  16
ATOM     12  C   UNL     1      -0.017   1.378   0.010  0.00  0.00    +0.000 A 
ATOM     13  C   UNL     1       1.171   2.086   0.002  0.00  0.00    +0.001 A 
ATOM     14  C   UNL     1       2.377   1.412  -0.013  0.00  0.00    +0.015 A 
ATOM     15  C   UNL     1       2.397   0.029  -0.021  0.00  0.00    +0.024 A 
ATOM     16  C   UNL     1       1.208  -0.679  -0.013  0.00  0.00    +0.004 A 
ATOM     17  C   UNL     1       0.002  -0.004   0.002  0.00  0.00    +0.008 A 
ATOM     18 BR   UNL     1       4.047  -0.894  -0.042  0.00  0.00    -0.050 Br
ENDBRANCH  11  16
ENDBRANCH  10  11
ENDBRANCH   1  10
BRANCH   4  19
ATOM     19  C   UNL     1      -0.775  -8.274  -0.036  0.00  0.00    -0.051 C 
BRANCH  19  20
ATOM     20  N   UNL     1      -0.825  -8.767   1.347  0.00  0.00    +0.381 N 
ATOM     21  H   UNL     1      -1.601  -8.338   1.829  0.00  0.00    -0.090 HD
ATOM     22  H   UNL     1      -0.944  -9.769   1.343  0.00  0.00    -0.090 HD
ATOM     23  H   UNL     1       0.035  -8.532   1.819  0.00  0.00    -0.090 HD
ENDBRANCH  19  20
ENDBRANCH   4  19
TORSDOF 6
