REMARK  Name = ZINC22822073
REMARK  4 active torsions:
REMARK  status: ('A' for Active; 'I' for Inactive)
REMARK    1  A    between atoms: C_1  and  O_2
REMARK    2  A    between atoms: O_2  and  C_3
REMARK    3  A    between atoms: C_6  and  C_9
REMARK    4  A    between atoms: C_14  and  C_29
REMARK                            x       y       z     vdW  Elec       q    Type
REMARK                         _______ _______ _______ _____ _____    ______ ____
ROOT
ATOM      1  C   UNL     1       2.372   0.081   0.704  0.00  0.00    +0.032 C 
ATOM      2  C   UNL     1       2.474   1.430  -0.013  0.00  0.00    +0.060 C 
ATOM      3  C   UNL     1       1.131   2.113   0.003  0.00  0.00    +0.020 C 
ATOM      4  C   UNL     1      -0.017   1.400   0.010  0.00  0.00    +0.041 C 
ATOM      5  C   UNL     1      -1.349   2.106   0.033  0.00  0.00    +0.173 C 
ATOM      6  N   UNL     1      -1.218   3.502  -0.360  0.00  0.00    -0.243 NA
ATOM      7  C   UNL     1      -0.083   4.123  -0.363  0.00  0.00    +0.188 C 
ATOM      8  N   UNL     1       1.079   3.482   0.004  0.00  0.00    -0.290 N 
ATOM      9  N   UNL     1      -0.036   5.448  -0.740  0.00  0.00    -0.241 N 
ATOM     10  C   UNL     1      -1.194   6.102  -1.110  0.00  0.00    +0.295 A 
ATOM     11  N   UNL     1      -2.383   5.559  -1.143  0.00  0.00    -0.195 NA
ATOM     12  C   UNL     1      -3.281   6.498  -1.550  0.00  0.00    +0.111 A 
ATOM     13  C   UNL     1      -4.660   6.484  -1.762  0.00  0.00    +0.031 A 
ATOM     14  C   UNL     1      -5.296   7.628  -2.192  0.00  0.00    +0.002 A 
ATOM     15  C   UNL     1      -4.575   8.790  -2.416  0.00  0.00    +0.004 A 
ATOM     16  C   UNL     1      -3.210   8.817  -2.211  0.00  0.00    +0.048 A 
ATOM     17  C   UNL     1      -2.554   7.676  -1.778  0.00  0.00    +0.157 A 
ATOM     18  O   UNL     1      -1.263   7.389  -1.493  0.00  0.00    -0.424 OA
ATOM     19  C   UNL     1       0.002  -0.004   0.002  0.00  0.00    +0.164 C 
ATOM     20  O   UNL     1      -1.048  -0.616  -0.006  0.00  0.00    -0.292 OA
ATOM     21  C   UNL     1       1.302  -0.763   0.004  0.00  0.00    +0.088 C 
ATOM     22  H   UNL     1       1.964   4.065   0.298  0.00  0.00    +0.154 HD
ATOM     23  H   UNL     1       0.924   5.985  -0.745  0.00  0.00    +0.159 HD
ENDROOT
BRANCH   5  24
ATOM     24  C   UNL     1      -2.290   1.412  -0.919  0.00  0.00    -0.013 A 
ATOM     25  C   UNL     1      -2.216   1.671  -2.274  0.00  0.00    +0.044 A 
ATOM     26  C   UNL     1      -3.077   1.031  -3.150  0.00  0.00    +0.126 A 
ATOM     27  C   UNL     1      -4.019   0.140  -2.666  0.00  0.00    +0.076 A 
ATOM     28  C   UNL     1      -4.096  -0.114  -1.308  0.00  0.00    +0.126 A 
ATOM     29  C   UNL     1      -3.231   0.523  -0.434  0.00  0.00    +0.044 A 
ATOM     30  F   UNL     1      -5.016  -0.983  -0.834  0.00  0.00    -0.205 F 
ATOM     31  F   UNL     1      -3.001   1.280  -4.476  0.00  0.00    -0.205 F 
ENDBRANCH   5  24
BRANCH   1  35
ATOM     32  C   UNL     1       6.137  -1.932   0.514  0.00  0.00    +0.120 A 
ATOM     33  C   UNL     1       5.571  -1.631   1.745  0.00  0.00    +0.046 A 
ATOM     34  C   UNL     1       4.354  -0.980   1.803  0.00  0.00    +0.007 A 
ATOM     35  C   UNL     1       3.700  -0.629   0.637  0.00  0.00    -0.043 A 
ATOM     36  C   UNL     1       4.259  -0.933  -0.591  0.00  0.00    +0.007 A 
ATOM     37  C   UNL     1       5.479  -1.578  -0.654  0.00  0.00    +0.046 A 
BRANCH  32  39
ATOM     38  C   UNL     1       7.856  -2.851  -0.847  0.00  0.00    +0.277 C 
ATOM     39  O   UNL     1       7.334  -2.573   0.454  0.00  0.00    -0.495 OA
ENDBRANCH  32  39
ENDBRANCH   1  35
TORSDOF 3
