REMARK  Name = ZINC63646760
REMARK  5 active torsions:
REMARK  status: ('A' for Active; 'I' for Inactive)
REMARK    1  A    between atoms: C_1  and  C_2
REMARK    2  A    between atoms: C_2  and  C_3
REMARK    3  A    between atoms: C_10  and  C_14
REMARK    4  A    between atoms: C_14  and  S_15
REMARK    5  A    between atoms: S_15  and  C_16
REMARK                            x       y       z     vdW  Elec       q    Type
REMARK                         _______ _______ _______ _____ _____    ______ ____
ROOT
ATOM      1  C   UNL     1      -1.412  -0.526   0.013  0.00  0.00    +0.095 C 
ATOM      2  N   UNL     1      -2.517   0.154   0.021  0.00  0.00    -0.172 NA
ATOM      3  N   UNL     1      -3.759  -0.447   0.091  0.00  0.00    -0.158 N 
ATOM      4  C   UNL     1      -3.738  -1.885  -0.324  0.00  0.00    +0.250 C 
ATOM      5  S   UNL     1      -1.962  -2.228   0.009  0.00  0.00    -0.065 S 
ATOM      6  N   UNL     1      -4.586  -2.601   0.639  0.00  0.00    -0.318 N 
ATOM      7  C   UNL     1      -5.818  -2.059   0.923  0.00  0.00    +0.021 C 
ATOM      8  C   UNL     1      -5.999  -0.724   0.849  0.00  0.00    +0.088 C 
ATOM      9  C   UNL     1      -4.921   0.122   0.503  0.00  0.00    +0.263 C 
ATOM     10  O   UNL     1      -5.047   1.333   0.543  0.00  0.00    -0.269 OA
ATOM     11  H   UNL     1      -4.289  -3.424   1.058  0.00  0.00    +0.148 HD
ENDROOT
BRANCH   1  13
ATOM     12  C   UNL     1      -0.019   1.526   0.010  0.00  0.00    +0.011 C 
ATOM     13  C   UNL     1       0.002  -0.004   0.002  0.00  0.00    +0.061 C 
ENDBRANCH   1  13
BRANCH   7  14
ATOM     14  C   UNL     1      -6.964  -2.955   1.317  0.00  0.00    +0.128 C 
BRANCH  14  15
ATOM     15  S   UNL     1      -7.592  -3.814  -0.153  0.00  0.00    -0.078 S 
BRANCH  15  16
ATOM     16  C   UNL     1      -8.909  -4.808   0.465  0.00  0.00    +0.210 A 
ATOM     17  H   UNL     1     -10.871  -6.032   2.558  0.00  0.00    +0.192 HD
ATOM     18  N   UNL     1      -9.676  -5.625  -0.267  0.00  0.00    -0.188 NA
ATOM     19  C   UNL     1     -10.561  -6.214   0.509  0.00  0.00    +0.209 A 
ATOM     20  N   UNL     1     -10.368  -5.773   1.770  0.00  0.00    -0.246 N 
ATOM     21  N   UNL     1      -9.294  -4.871   1.717  0.00  0.00    -0.144 NA
ATOM     22  N   UNL     1     -11.520  -7.124   0.103  0.00  0.00    -0.328 N 
ATOM     23  H   UNL     1     -11.581  -7.380  -0.830  0.00  0.00    +0.145 HD
ATOM     24  H   UNL     1     -12.131  -7.506   0.752  0.00  0.00    +0.145 HD
ENDBRANCH  15  16
ENDBRANCH  14  15
ENDBRANCH   7  14
TORSDOF 4
