REMARK  Name = ZINC02247392
REMARK  7 active torsions:
REMARK  status: ('A' for Active; 'I' for Inactive)
REMARK    1  A    between atoms: C_4  and  C_7
REMARK    2  A    between atoms: C_7  and  C_8
REMARK    3  A    between atoms: C_8  and  N_9
REMARK    4  A    between atoms: C_10  and  C_12
REMARK    5  A    between atoms: N_23  and  N_26
REMARK    6  A    between atoms: C_24  and  N_25
REMARK    7  A    between atoms: C_27  and  C_28
REMARK                            x       y       z     vdW  Elec       q    Type
REMARK                         _______ _______ _______ _____ _____    ______ ____
ROOT
ATOM      1  C   UNL     1       1.555  -2.055  -0.024  0.00  0.00    +0.105 A 
ATOM      2  C   UNL     1       1.157  -0.638  -0.012  0.00  0.00    +0.124 A 
ATOM      3  C   UNL     1       2.413   0.118  -0.020  0.00  0.00    +0.183 A 
ATOM      4  N   UNL     1       2.376   1.433  -0.012  0.00  0.00    -0.224 NA
ATOM      5  C   UNL     1       1.197   2.067   0.002  0.00  0.00    +0.092 A 
ATOM      6  C   UNL     1       1.149   3.474   0.010  0.00  0.00    +0.030 A 
ATOM      7  C   UNL     1      -0.053   4.110   0.025  0.00  0.00    +0.002 A 
ATOM      8  C   UNL     1      -1.246   3.389   0.032  0.00  0.00    +0.002 A 
ATOM      9  C   UNL     1      -1.240   2.029   0.031  0.00  0.00    +0.030 A 
ATOM     10  C   UNL     1      -0.016   1.334   0.009  0.00  0.00    +0.090 A 
ATOM     11  N   UNL     1       0.002  -0.004   0.002  0.00  0.00    -0.241 NA
ATOM     12  N   UNL     1       3.440  -0.805  -0.035  0.00  0.00    -0.198 N 
ATOM     13  C   UNL     1       2.947  -2.075  -0.038  0.00  0.00    +0.134 A 
ENDROOT
BRANCH   1  15
ATOM     14  N   UNL     1       0.292  -3.721   1.147  0.00  0.00    -0.311 N 
ATOM     15  C   UNL     1       0.691  -3.180  -0.021  0.00  0.00    +0.250 C 
ATOM     16  O   UNL     1       0.309  -3.657  -1.075  0.00  0.00    -0.270 OA
ATOM     17  H   UNL     1       0.597  -3.341   1.986  0.00  0.00    +0.149 HD
BRANCH  14  18
ATOM     18  C   UNL     1      -0.600  -4.882   1.150  0.00  0.00    +0.109 C 
BRANCH  18  19
ATOM     19  C   UNL     1      -0.896  -5.294   2.593  0.00  0.00    +0.054 C 
BRANCH  19  23
ATOM     20  C   UNL     1      -3.500  -8.681   2.601  0.00  0.00    +0.000 A 
ATOM     21  C   UNL     1      -2.129  -8.863   2.586  0.00  0.00    +0.000 A 
ATOM     22  C   UNL     1      -1.287  -7.767   2.583  0.00  0.00    +0.004 A 
ATOM     23  C   UNL     1      -1.815  -6.489   2.596  0.00  0.00    -0.046 A 
ATOM     24  C   UNL     1      -3.185  -6.308   2.616  0.00  0.00    +0.004 A 
ATOM     25  C   UNL     1      -4.028  -7.404   2.614  0.00  0.00    +0.000 A 
ENDBRANCH  19  23
ENDBRANCH  18  19
ENDBRANCH  14  18
ENDBRANCH   1  15
BRANCH  13  26
ATOM     26  N   UNL     1       3.714  -3.212  -0.052  0.00  0.00    -0.342 N 
ATOM     27  H   UNL     1       4.681  -3.145  -0.061  0.00  0.00    +0.144 HD
ATOM     28  H   UNL     1       3.288  -4.084  -0.053  0.00  0.00    +0.144 HD
ENDBRANCH  13  26
BRANCH  12  29
ATOM     29  N   UNL     1       4.803  -0.480  -0.046  0.00  0.00    -0.171 NA
ATOM     30  C   UNL     1       5.445  -0.336   1.074  0.00  0.00    +0.143 C 
BRANCH  30  31
ATOM     31  C   UNL     1       6.876   0.005   1.062  0.00  0.00    +0.020 A 
ATOM     32  C   UNL     1       7.676   0.193   2.147  0.00  0.00    +0.093 A 
ATOM     33  N   UNL     1       8.941   0.491   1.738  0.00  0.00    -0.360 N 
ATOM     34  H   UNL     1       9.689   0.665   2.331  0.00  0.00    +0.165 HD
ATOM     35  C   UNL     1       9.005   0.518   0.361  0.00  0.00    +0.047 A 
ATOM     36  C   UNL     1       7.722   0.216  -0.126  0.00  0.00    +0.008 A 
ATOM     37  C   UNL     1       7.489   0.172  -1.498  0.00  0.00    +0.010 A 
ATOM     38  C   UNL     1       8.522   0.427  -2.374  0.00  0.00    +0.001 A 
ATOM     39  C   UNL     1       9.789   0.725  -1.894  0.00  0.00    +0.002 A 
ATOM     40  C   UNL     1      10.034   0.772  -0.539  0.00  0.00    +0.026 A 
ENDBRANCH  30  31
ENDBRANCH  12  29
TORSDOF 7
