REMARK  Name = ZINC51750429
REMARK  8 active torsions:
REMARK  status: ('A' for Active; 'I' for Inactive)
REMARK    1  A    between atoms: C_1  and  C_2
REMARK    2  A    between atoms: C_2  and  C_3
REMARK    3  A    between atoms: C_3  and  C_4
REMARK    4  A    between atoms: C_4  and  C_6
REMARK    5  A    between atoms: C_4  and  C_10
REMARK    6  A    between atoms: N_7  and  O_8
REMARK    7  A    between atoms: C_15  and  C_21
REMARK    8  A    between atoms: C_18  and  C_20
REMARK                            x       y       z     vdW  Elec       q    Type
REMARK                         _______ _______ _______ _____ _____    ______ ____
ROOT
ATOM      1  C   UNL     1      -1.522  -2.134  -0.670  0.00  0.00    +0.141 C 
ENDROOT
BRANCH   1   2
ATOM      2  C   UNL     1      -2.887  -2.631  -0.268  0.00  0.00    +0.226 C 
ATOM      3  O   UNL     1      -3.799  -1.845  -0.119  0.00  0.00    -0.275 OA
ATOM      4  N   UNL     1      -3.095  -3.948  -0.074  0.00  0.00    -0.298 N 
ATOM      5  C   UNL     1      -2.022  -4.920  -0.323  0.00  0.00    +0.108 C 
ATOM      6  C   UNL     1      -2.541  -5.994  -1.284  0.00  0.00    +0.022 C 
ATOM      7  C   UNL     1      -3.823  -6.606  -0.713  0.00  0.00    -0.011 C 
ATOM      8  C   UNL     1      -4.893  -5.520  -0.579  0.00  0.00    +0.025 C 
ATOM      9  C   UNL     1      -4.398  -4.440   0.395  0.00  0.00    +0.073 C 
ATOM     10  C   UNL     1      -5.399  -3.283   0.433  0.00  0.00    +0.028 C 
ATOM     11  C   UNL     1      -4.326  -7.703  -1.653  0.00  0.00    +0.007 C 
ENDBRANCH   1   2
BRANCH   1  12
ATOM     12  C   UNL     1      -1.125  -2.762  -1.981  0.00  0.00    +0.144 C 
ATOM     13  N   UNL     1      -2.034  -3.175  -2.801  0.00  0.00    -0.076 NA
ATOM     14  N   UNL     1       0.206  -2.896  -2.305  0.00  0.00    -0.343 N 
ATOM     15  H   UNL     1       0.889  -2.586  -1.690  0.00  0.00    +0.144 HD
ATOM     16  H   UNL     1       0.462  -3.300  -3.149  0.00  0.00    +0.144 HD
BRANCH  13  17
ATOM     17  O   UNL     1      -1.661  -3.765  -4.033  0.00  0.00    -0.408 OA
ATOM     18  H   UNL     1      -2.410  -4.042  -4.579  0.00  0.00    +0.328 HD
ENDBRANCH  13  17
ENDBRANCH   1  12
BRANCH   1  19
ATOM     19  C   UNL     1      -1.558  -0.613  -0.823  0.00  0.00    +0.020 C 
BRANCH  19  21
ATOM     20  C   UNL     1      -0.182   1.426  -1.262  0.00  0.00    +0.004 C 
ATOM     21  C   UNL     1      -0.147  -0.096  -1.109  0.00  0.00    -0.002 C 
ENDBRANCH  19  21
ENDBRANCH   1  19
TORSDOF 5
