REMARK  Name = ZINC05742703
REMARK  7 active torsions:
REMARK  status: ('A' for Active; 'I' for Inactive)
REMARK    1  A    between atoms: C_1  and  O_2
REMARK    2  A    between atoms: O_2  and  C_3
REMARK    3  A    between atoms: C_3  and  C_5
REMARK    4  A    between atoms: C_9  and  N_10
REMARK    5  A    between atoms: N_13  and  N_14
REMARK    6  A    between atoms: C_15  and  C_16
REMARK    7  A    between atoms: C_19  and  O_22
REMARK                            x       y       z     vdW  Elec       q    Type
REMARK                         _______ _______ _______ _____ _____    ______ ____
ROOT
ATOM      1  N   UNL     1      -1.289   1.180   4.958  0.00  0.00    -0.262 N 
ATOM      2  C   UNL     1      -2.066   1.841   5.838  0.00  0.00    +0.324 C 
ATOM      3  O   UNL     1      -2.761   2.765   5.461  0.00  0.00    -0.251 OA
ATOM      4  N   UNL     1      -2.072   1.479   7.136  0.00  0.00    -0.191 N 
ATOM      5  H   UNL     1      -0.735   0.443   5.258  0.00  0.00    +0.157 HD
ATOM      6  H   UNL     1      -2.631   1.956   7.770  0.00  0.00    +0.179 HD
ENDROOT
BRANCH   1  11
ATOM      7  C   UNL     1      -0.558   0.998   2.576  0.00  0.00    +0.091 A 
ATOM      8  C   UNL     1      -0.732   1.580   1.257  0.00  0.00    -0.021 A 
ATOM      9  C   UNL     1      -1.601   2.614   1.194  0.00  0.00    -0.004 A 
ATOM     10  S   UNL     1      -2.178   2.821   2.855  0.00  0.00    -0.077 S 
ATOM     11  C   UNL     1      -1.283   1.552   3.623  0.00  0.00    +0.088 A 
ATOM     12  C   UNL     1      -1.979   3.404  -0.021  0.00  0.00    +0.043 C 
ATOM     13  C   UNL     1      -0.956   3.111  -1.127  0.00  0.00    +0.005 C 
ATOM     14  C   UNL     1      -0.758   1.595  -1.227  0.00  0.00    +0.005 C 
ATOM     15  C   UNL     1      -0.013   1.086   0.008  0.00  0.00    +0.037 C 
BRANCH   7  16
ATOM     16  C   UNL     1       0.350  -0.130   2.793  0.00  0.00    +0.342 C 
ATOM     17  O   UNL     1      -0.062  -1.270   2.693  0.00  0.00    -0.245 OA
BRANCH  16  19
ATOM     18  C   UNL     1       2.485  -1.070   3.307  0.00  0.00    +0.280 C 
ATOM     19  O   UNL     1       1.643   0.096   3.105  0.00  0.00    -0.464 OA
ENDBRANCH  16  19
ENDBRANCH   7  16
ENDBRANCH   1  11
BRANCH   4  20
ATOM     20  N   UNL     1      -1.271   0.415   7.571  0.00  0.00    -0.186 NA
ATOM     21  C   UNL     1      -1.277   0.067   8.820  0.00  0.00    +0.138 C 
BRANCH  21  22
ATOM     22  C   UNL     1      -0.434  -1.053   9.277  0.00  0.00    -0.005 A 
ATOM     23  C   UNL     1       0.368  -1.744   8.365  0.00  0.00    +0.013 A 
ATOM     24  C   UNL     1       1.157  -2.788   8.798  0.00  0.00    +0.046 A 
ATOM     25  C   UNL     1       1.150  -3.159  10.136  0.00  0.00    +0.117 A 
ATOM     26  C   UNL     1       0.351  -2.478  11.045  0.00  0.00    +0.046 A 
ATOM     27  C   UNL     1      -0.439  -1.430  10.623  0.00  0.00    +0.013 A 
BRANCH  25  28
ATOM     28  O   UNL     1       1.926  -4.191  10.557  0.00  0.00    -0.507 OA
ATOM     29  H   UNL     1       1.489  -5.053  10.519  0.00  0.00    +0.292 HD
ENDBRANCH  25  28
ENDBRANCH  21  22
ENDBRANCH   4  20
TORSDOF 6
