REMARK  Name = ZINC08580784
REMARK  11 active torsions:
REMARK  status: ('A' for Active; 'I' for Inactive)
REMARK    1  A    between atoms: C_1  and  C_2
REMARK    2  A    between atoms: C_5  and  C_17
REMARK    3  A    between atoms: C_7  and  S_8
REMARK    4  A    between atoms: S_8  and  N_11
REMARK    5  A    between atoms: C_17  and  O_19
REMARK    6  A    between atoms: O_19  and  C_20
REMARK    7  A    between atoms: C_20  and  C_21
REMARK    8  A    between atoms: C_21  and  C_23
REMARK    9  A    between atoms: C_23  and  C_27
REMARK   10  A    between atoms: C_24  and  C_25
REMARK   11  A    between atoms: C_24  and  N_26
REMARK                            x       y       z     vdW  Elec       q    Type
REMARK                         _______ _______ _______ _____ _____    ______ ____
ROOT
ATOM      1  C   UNL     1       3.108   1.568  -0.973  0.00  0.00    +0.046 C 
ATOM      2  C   UNL     1       2.811   0.094  -0.871  0.00  0.00    -0.024 A 
ATOM      3  C   UNL     1       2.473  -0.620  -2.007  0.00  0.00    +0.006 A 
ATOM      4  C   UNL     1       2.199  -1.969  -1.921  0.00  0.00    +0.015 A 
ATOM      5  C   UNL     1       2.265  -2.614  -0.684  0.00  0.00    +0.061 A 
ATOM      6  C   UNL     1       2.608  -1.888   0.458  0.00  0.00    +0.043 A 
ATOM      7  C   UNL     1       2.884  -0.540   0.357  0.00  0.00    +0.109 A 
ENDROOT
BRANCH   7   8
ATOM      8  S   UNL     1       3.323   0.378   1.795  0.00  0.00    +0.061 S 
ATOM      9  O   UNL     1       2.588   1.593   1.742  0.00  0.00    -0.153 OA
ATOM     10  O   UNL     1       3.233  -0.520   2.893  0.00  0.00    -0.153 OA
BRANCH   8  11
ATOM     11  N   UNL     1       4.921   0.785   1.647  0.00  0.00    -0.177 NA
ATOM     12  C   UNL     1       5.974  -0.146   2.075  0.00  0.00    +0.109 C 
ATOM     13  C   UNL     1       6.948  -0.359   0.912  0.00  0.00    +0.017 C 
ATOM     14  C   UNL     1       7.467   0.998   0.432  0.00  0.00    +0.003 C 
ATOM     15  C   UNL     1       6.295   1.847  -0.068  0.00  0.00    +0.017 C 
ATOM     16  C   UNL     1       5.314   2.082   1.079  0.00  0.00    +0.109 C 
ENDBRANCH   8  11
ENDBRANCH   7   8
BRANCH   5  17
ATOM     17  C   UNL     1       1.974  -4.059  -0.584  0.00  0.00    +0.340 C 
ATOM     18  O   UNL     1       2.032  -4.617   0.493  0.00  0.00    -0.245 OA
BRANCH  17  19
ATOM     19  O   UNL     1       1.643  -4.757  -1.688  0.00  0.00    -0.453 OA
BRANCH  19  20
ATOM     20  C   UNL     1       1.374  -6.150  -1.518  0.00  0.00    +0.312 C 
BRANCH  20  21
ATOM     21  C   UNL     1       1.024  -6.761  -2.850  0.00  0.00    +0.212 C 
ATOM     22  O   UNL     1       1.007  -6.070  -3.849  0.00  0.00    -0.288 OA
BRANCH  21  23
ATOM     23  C   UNL     1       0.715  -8.140  -2.938  0.00  0.00    +0.114 C 
ATOM     24  C   UNL     1       0.254  -8.671  -4.129  0.00  0.00    +0.019 C 
ATOM     25  C   UNL     1      -0.079  -7.759  -5.282  0.00  0.00    +0.061 C 
BRANCH  24  26
ATOM     26  N   UNL     1       0.102 -10.005  -4.259  0.00  0.00    -0.360 N 
ATOM     27  H   UNL     1       0.316 -10.592  -3.517  0.00  0.00    +0.142 HD
ATOM     28  H   UNL     1      -0.222 -10.377  -5.094  0.00  0.00    +0.142 HD
ENDBRANCH  24  26
BRANCH  23  29
ATOM     29  C   UNL     1       0.881  -8.985  -1.794  0.00  0.00    +0.104 C 
ATOM     30  N   UNL     1       1.012  -9.655  -0.886  0.00  0.00    -0.191 NA
ENDBRANCH  23  29
ENDBRANCH  21  23
ENDBRANCH  20  21
ENDBRANCH  19  20
ENDBRANCH  17  19
ENDBRANCH   5  17
TORSDOF 9
