REMARK  Name = ZINC15079519
REMARK  6 active torsions:
REMARK  status: ('A' for Active; 'I' for Inactive)
REMARK    1  A    between atoms: C_4  and  O_7
REMARK    2  A    between atoms: O_7  and  C_8
REMARK    3  A    between atoms: C_12  and  C_14
REMARK    4  A    between atoms: C_14  and  N_15
REMARK    5  A    between atoms: C_21  and  C_23
REMARK    6  A    between atoms: C_23  and  C_24
REMARK                            x       y       z     vdW  Elec       q    Type
REMARK                         _______ _______ _______ _____ _____    ______ ____
ROOT
ATOM      1  N   UNL     1       6.789  -4.906  -1.197  0.00  0.00    +0.391 N 
ATOM      2  C   UNL     1       5.830  -5.768  -1.906  0.00  0.00    -0.058 C 
ATOM      3  C   UNL     1       6.209  -5.812  -3.388  0.00  0.00    +0.085 C 
ATOM      4  N   UNL     1       7.625  -6.143  -3.529  0.00  0.00    -0.318 N 
ATOM      5  C   UNL     1       8.496  -6.033  -2.520  0.00  0.00    +0.200 C 
ATOM      6  O   UNL     1       9.660  -6.305  -2.723  0.00  0.00    -0.278 OA
ATOM      7  C   UNL     1       8.090  -5.585  -1.144  0.00  0.00    +0.028 C 
ATOM      8  H   UNL     1       7.946  -6.457  -4.389  0.00  0.00    +0.149 HD
ATOM      9  H   UNL     1       6.885  -4.030  -1.687  0.00  0.00    -0.080 HD
ENDROOT
BRANCH   1  10
ATOM     10  C   UNL     1       6.309  -4.656   0.169  0.00  0.00    -0.042 C 
BRANCH  10  15
ATOM     11  C   UNL     1       3.975  -1.685   0.090  0.00  0.00    +0.129 A 
ATOM     12  C   UNL     1       2.738  -2.310   0.017  0.00  0.00    +0.046 A 
ATOM     13  C   UNL     1       2.662  -3.689  -0.006  0.00  0.00    +0.004 A 
ATOM     14  C   UNL     1       3.818  -4.447   0.042  0.00  0.00    +0.002 A 
ATOM     15  C   UNL     1       5.052  -3.827   0.115  0.00  0.00    -0.060 A 
ATOM     16  C   UNL     1       5.133  -2.448   0.133  0.00  0.00    +0.048 A 
BRANCH  11  17
ATOM     17  O   UNL     1       4.052  -0.329   0.113  0.00  0.00    -0.456 OA
BRANCH  17  21
ATOM     18  C   UNL     1       3.162   1.602   3.648  0.00  0.00    +0.000 A 
ATOM     19  C   UNL     1       3.009   0.232   3.553  0.00  0.00    +0.004 A 
ATOM     20  C   UNL     1       3.306  -0.418   2.370  0.00  0.00    +0.046 A 
ATOM     21  C   UNL     1       3.759   0.307   1.277  0.00  0.00    +0.128 A 
ATOM     22  C   UNL     1       3.911   1.683   1.375  0.00  0.00    +0.046 A 
ATOM     23  C   UNL     1       3.612   2.327   2.560  0.00  0.00    +0.004 A 
ENDBRANCH  17  21
ENDBRANCH  11  17
ENDBRANCH  10  15
ENDBRANCH   1  10
BRANCH   7  24
ATOM     24  C   UNL     1       9.143  -4.621  -0.593  0.00  0.00    +0.090 C 
BRANCH  24  25
ATOM     25  C   UNL     1       9.325  -3.474  -1.554  0.00  0.00    +0.214 C 
ATOM     26  O   UNL     1       8.623  -3.391  -2.539  0.00  0.00    -0.276 OA
ATOM     27  N   UNL     1      10.269  -2.541  -1.318  0.00  0.00    -0.302 N 
ATOM     28  C   UNL     1      11.131  -2.632  -0.132  0.00  0.00    +0.108 C 
ATOM     29  C   UNL     1      12.595  -2.566  -0.580  0.00  0.00    +0.019 C 
ATOM     30  C   UNL     1      12.811  -1.305  -1.419  0.00  0.00    +0.003 C 
ATOM     31  C   UNL     1      11.926  -1.362  -2.666  0.00  0.00    +0.019 C 
ATOM     32  C   UNL     1      10.459  -1.417  -2.245  0.00  0.00    +0.108 C 
ENDBRANCH  24  25
ENDBRANCH   7  24
TORSDOF 6
