REMARK  Name = ZINC40233493
REMARK  6 active torsions:
REMARK  status: ('A' for Active; 'I' for Inactive)
REMARK    1  A    between atoms: C_3  and  N_8
REMARK    2  A    between atoms: C_9  and  C_11
REMARK    3  A    between atoms: C_14  and  C_16
REMARK    4  A    between atoms: C_17  and  C_18
REMARK    5  A    between atoms: C_18  and  C_19
REMARK    6  A    between atoms: C_19  and  O_20
REMARK                            x       y       z     vdW  Elec       q    Type
REMARK                         _______ _______ _______ _____ _____    ______ ____
ROOT
ATOM      1  N   UNL     1       3.596   2.002  -0.021  0.00  0.00    -0.266 N 
ATOM      2  C   UNL     1       3.628   3.346  -0.116  0.00  0.00    +0.256 C 
ATOM      3  O   UNL     1       2.590   3.981  -0.103  0.00  0.00    -0.269 OA
ATOM      4  H   UNL     1       4.424   1.500   0.042  0.00  0.00    +0.157 HD
ENDROOT
BRANCH   1   7
ATOM      5  C   UNL     1       1.130  -0.710  -0.018  0.00  0.00    +0.025 A 
ATOM      6  C   UNL     1       2.350  -0.058  -0.024  0.00  0.00    +0.045 A 
ATOM      7  C   UNL     1       2.374   1.332  -0.015  0.00  0.00    +0.125 A 
ATOM      8  N   UNL     1       1.247   2.026  -0.001  0.00  0.00    -0.239 NA
ATOM      9  C   UNL     1       0.069   1.433   0.006  0.00  0.00    +0.132 A 
ATOM     10  C   UNL     1      -0.030   0.054  -0.003  0.00  0.00    +0.059 A 
ATOM     11 CL   UNL     1      -1.587  -0.714   0.005  0.00  0.00    -0.082 Cl
ENDBRANCH   1   7
BRANCH   2  12
ATOM     12  C   UNL     1       4.911   4.041  -0.235  0.00  0.00    +0.075 A 
ATOM     13  C   UNL     1       5.159   5.403  -0.338  0.00  0.00    +0.022 A 
ATOM     14  C   UNL     1       6.452   5.829  -0.440  0.00  0.00    +0.025 A 
ATOM     15  C   UNL     1       7.468   4.883  -0.437  0.00  0.00    +0.063 A 
ATOM     16  S   UNL     1       6.559   3.355  -0.278  0.00  0.00    -0.075 S 
BRANCH  15  17
ATOM     17  C   UNL     1       8.883   5.082  -0.532  0.00  0.00    -0.059 C 
ATOM     18  C   UNL     1      10.043   5.245  -0.610  0.00  0.00    -0.094 C 
BRANCH  18  19
ATOM     19  C   UNL     1      11.497   5.450  -0.708  0.00  0.00    +0.117 C 
BRANCH  19  20
ATOM     20  C   UNL     1      12.207   4.096  -0.661  0.00  0.00    +0.168 C 
BRANCH  20  21
ATOM     21  O   UNL     1      13.619   4.295  -0.756  0.00  0.00    -0.394 OA
ATOM     22  H   UNL     1      14.134   3.477  -0.732  0.00  0.00    +0.209 HD
ENDBRANCH  20  21
ENDBRANCH  19  20
ENDBRANCH  18  19
ENDBRANCH  15  17
ENDBRANCH   2  12
TORSDOF 6
