REMARK  Name = ZINC35399013
REMARK  10 active torsions:
REMARK  status: ('A' for Active; 'I' for Inactive)
REMARK    1  A    between atoms: C_1  and  C_2
REMARK    2  A    between atoms: C_2  and  N_3
REMARK    3  A    between atoms: C_7  and  C_9
REMARK    4  A    between atoms: C_9  and  N_10
REMARK    5  A    between atoms: N_10  and  S_11
REMARK    6  A    between atoms: S_11  and  C_14
REMARK    7  A    between atoms: C_23  and  C_25
REMARK    8  A    between atoms: C_25  and  C_26
REMARK    9  A    between atoms: C_26  and  C_27
REMARK   10  A    between atoms: C_32  and  C_35
REMARK                            x       y       z     vdW  Elec       q    Type
REMARK                         _______ _______ _______ _____ _____    ______ ____
ROOT
ATOM      1  C   UNL     1      -2.562  -3.385   4.530  0.00  0.00    +0.106 A 
ATOM      2  C   UNL     1      -3.619  -4.183   4.133  0.00  0.00    +0.030 A 
ATOM      3  C   UNL     1      -3.709  -5.486   4.574  0.00  0.00    +0.026 A 
ATOM      4  C   UNL     1      -2.734  -6.010   5.424  0.00  0.00    +0.040 A 
ATOM      5  C   UNL     1      -1.678  -5.203   5.815  0.00  0.00    -0.023 A 
ATOM      6  C   UNL     1      -1.589  -3.899   5.366  0.00  0.00    +0.034 A 
ATOM      7  C   UNL     1      -0.772  -6.003   6.724  0.00  0.00    +0.056 C 
ATOM      8  C   UNL     1      -1.437  -7.386   6.814  0.00  0.00    +0.118 C 
ATOM      9  N   UNL     1      -2.638  -7.290   5.980  0.00  0.00    -0.271 N 
ATOM     10  C   UNL     1      -3.520  -8.288   5.778  0.00  0.00    +0.220 C 
ATOM     11  O   UNL     1      -4.487  -8.109   5.068  0.00  0.00    -0.275 OA
ENDROOT
BRANCH   1  12
ATOM     12  S   UNL     1      -2.451  -1.720   3.964  0.00  0.00    +0.058 S 
ATOM     13  O   UNL     1      -1.655  -1.022   4.912  0.00  0.00    -0.153 OA
ATOM     14  O   UNL     1      -3.772  -1.315   3.633  0.00  0.00    -0.153 OA
BRANCH  12  15
ATOM     15  N   UNL     1      -1.592  -1.740   2.548  0.00  0.00    -0.191 NA
ATOM     16  H   UNL     1      -0.727  -1.304   2.499  0.00  0.00    +0.148 HD
BRANCH  15  17
ATOM     17  C   UNL     1      -2.139  -2.417   1.369  0.00  0.00    +0.090 C 
BRANCH  17  22
ATOM     18  N   UNL     1      -1.376  -0.512   0.012  0.00  0.00    +0.382 N 
ATOM     19  C   UNL     1      -2.052  -0.144  -1.250  0.00  0.00    -0.078 C 
ATOM     20  C   UNL     1      -1.892  -1.386  -2.162  0.00  0.00    -0.020 C 
ATOM     21  C   UNL     1      -2.041  -2.545  -1.141  0.00  0.00    -0.016 C 
ATOM     22  C   UNL     1      -1.362  -1.983   0.125  0.00  0.00    -0.053 C 
ATOM     23  H   UNL     1      -1.879  -0.117   0.793  0.00  0.00    -0.081 HD
BRANCH  18  25
ATOM     24  C   UNL     1      -0.019   1.526   0.010  0.00  0.00    -0.017 C 
ATOM     25  C   UNL     1       0.002  -0.004   0.002  0.00  0.00    -0.082 C 
ENDBRANCH  18  25
ENDBRANCH  17  22
ENDBRANCH  15  17
ENDBRANCH  12  15
ENDBRANCH   1  12
BRANCH  10  26
ATOM     26  C   UNL     1      -3.306  -9.627   6.435  0.00  0.00    +0.105 C 
BRANCH  26  27
ATOM     27  C   UNL     1      -4.443 -10.575   6.045  0.00  0.00    +0.105 C 
BRANCH  27  28
ATOM     28  C   UNL     1      -4.229 -11.914   6.702  0.00  0.00    +0.216 C 
ATOM     29  O   UNL     1      -3.262 -12.093   7.412  0.00  0.00    -0.276 OA
ATOM     30  N   UNL     1      -5.111 -12.912   6.500  0.00  0.00    -0.301 N 
ATOM     31  C   UNL     1      -6.284 -12.712   5.638  0.00  0.00    +0.108 C 
ATOM     32  C   UNL     1      -6.308 -13.814   4.575  0.00  0.00    +0.022 C 
ATOM     33  C   UNL     1      -6.259 -15.181   5.262  0.00  0.00    -0.011 C 
ATOM     34  C   UNL     1      -4.959 -15.307   6.059  0.00  0.00    +0.022 C 
ATOM     35  C   UNL     1      -4.916 -14.223   7.134  0.00  0.00    +0.108 C 
ATOM     36  C   UNL     1      -6.318 -16.285   4.205  0.00  0.00    +0.007 C 
ENDBRANCH  27  28
ENDBRANCH  26  27
ENDBRANCH  10  26
TORSDOF 8
