REMARK  Name = ZINC15550120
REMARK  12 active torsions:
REMARK  status: ('A' for Active; 'I' for Inactive)
REMARK    1  A    between atoms: C_1  and  C_2
REMARK    2  A    between atoms: C_2  and  C_4
REMARK    3  A    between atoms: C_2  and  N_17
REMARK    4  A    between atoms: C_4  and  C_6
REMARK    5  A    between atoms: C_7  and  N_16
REMARK    6  A    between atoms: N_8  and  C_15
REMARK    7  A    between atoms: N_11  and  C_14
REMARK    8  A    between atoms: N_17  and  C_18
REMARK    9  A    between atoms: C_18  and  C_20
REMARK   10  A    between atoms: C_18  and  C_26
REMARK   11  A    between atoms: C_26  and  C_27
REMARK   12  A    between atoms: C_26  and  C_28
REMARK                            x       y       z     vdW  Elec       q    Type
REMARK                         _______ _______ _______ _____ _____    ______ ____
ROOT
ATOM      1  C   UNL     1       0.154   1.407  -0.064  0.00  0.00    -0.006 C 
ATOM      2  C   UNL     1      -0.109  -0.095   0.067  0.00  0.00    -0.001 C 
ENDROOT
BRANCH   2   3
ATOM      3  N   UNL     1      -1.557  -0.343   0.041  0.00  0.00    +0.390 N 
ATOM      4  H   UNL     1      -1.738  -1.306   0.280  0.00  0.00    -0.084 HD
ATOM      5  H   UNL     1      -2.013   0.261   0.708  0.00  0.00    -0.084 HD
BRANCH   3   6
ATOM      6  C   UNL     1      -2.077  -0.066  -1.305  0.00  0.00    -0.037 C 
BRANCH   6   7
ATOM      7  C   UNL     1      -2.043   1.419  -1.562  0.00  0.00    -0.061 A 
ATOM      8  C   UNL     1      -2.381   2.302  -0.553  0.00  0.00    +0.002 A 
ATOM      9  C   UNL     1      -2.349   3.664  -0.789  0.00  0.00    +0.000 A 
ATOM     10  C   UNL     1      -1.980   4.143  -2.032  0.00  0.00    +0.000 A 
ATOM     11  C   UNL     1      -1.641   3.259  -3.040  0.00  0.00    +0.000 A 
ATOM     12  C   UNL     1      -1.668   1.897  -2.803  0.00  0.00    +0.002 A 
ENDBRANCH   6   7
BRANCH   6  13
ATOM     13  C   UNL     1      -3.518  -0.568  -1.408  0.00  0.00    -0.027 C 
ATOM     14  C   UNL     1      -3.536  -2.094  -1.296  0.00  0.00    +0.006 C 
ATOM     15  C   UNL     1      -4.351   0.036  -0.276  0.00  0.00    +0.006 C 
ENDBRANCH   6  13
ENDBRANCH   3   6
ENDBRANCH   2   3
BRANCH   2  16
ATOM     16  C   UNL     1       0.463  -0.593   1.369  0.00  0.00    +0.158 C 
ATOM     17  O   UNL     1      -0.277  -0.851   2.297  0.00  0.00    -0.294 OA
BRANCH  16  18
ATOM     18  C   UNL     1       1.857  -0.761   1.509  0.00  0.00    +0.118 A 
ATOM     19  C   UNL     1       2.425  -1.098   2.750  0.00  0.00    +0.116 A 
ATOM     20  N   UNL     1       3.780  -1.250   2.836  0.00  0.00    -0.284 N 
ATOM     21  C   UNL     1       4.570  -1.083   1.764  0.00  0.00    +0.333 A 
ATOM     22  O   UNL     1       5.770  -1.230   1.893  0.00  0.00    -0.246 OA
ATOM     23  N   UNL     1       4.084  -0.761   0.554  0.00  0.00    -0.263 N 
ATOM     24  C   UNL     1       2.759  -0.594   0.363  0.00  0.00    +0.269 A 
ATOM     25  O   UNL     1       2.322  -0.307  -0.736  0.00  0.00    -0.267 OA
ATOM     26  C   UNL     1       5.004  -0.594  -0.573  0.00  0.00    +0.157 C 
ATOM     27  C   UNL     1       4.382  -1.602   4.124  0.00  0.00    +0.155 C 
BRANCH  19  28
ATOM     28  N   UNL     1       1.639  -1.270   3.847  0.00  0.00    -0.344 N 
ATOM     29  H   UNL     1       0.701  -1.028   3.814  0.00  0.00    +0.144 HD
ATOM     30  H   UNL     1       2.017  -1.636   4.662  0.00  0.00    +0.144 HD
ENDBRANCH  19  28
ENDBRANCH  16  18
ENDBRANCH   2  16
TORSDOF 7
