REMARK  Name = ZINC39951045
REMARK  7 active torsions:
REMARK  status: ('A' for Active; 'I' for Inactive)
REMARK    1  A    between atoms: C_1  and  C_2
REMARK    2  A    between atoms: C_2  and  C_3
REMARK    3  A    between atoms: C_8  and  C_25
REMARK    4  A    between atoms: C_9  and  O_11
REMARK    5  A    between atoms: C_15  and  C_17
REMARK    6  A    between atoms: C_21  and  O_24
REMARK    7  A    between atoms: C_22  and  O_23
REMARK                            x       y       z     vdW  Elec       q    Type
REMARK                         _______ _______ _______ _____ _____    ______ ____
ROOT
ATOM      1  C   UNL     1       0.704  -0.406   1.301  0.00  0.00    -0.017 C 
ATOM      2  C   UNL     1      -0.144   0.156   2.400  0.00  0.00    +0.023 C 
ATOM      3  C   UNL     1       0.592   0.398   3.675  0.00  0.00    +0.083 C 
ATOM      4  N   UNL     1       1.622  -0.563   3.986  0.00  0.00    -0.311 NA
ATOM      5  C   UNL     1       1.385  -1.944   3.661  0.00  0.00    +0.090 C 
ATOM      6  C   UNL     1       1.791  -2.404   2.276  0.00  0.00    -0.008 C 
ATOM      7  C   UNL     1       0.783  -1.912   1.260  0.00  0.00    +0.124 C 
ATOM      8  C   UNL     1       3.155  -1.821   1.890  0.00  0.00    -0.066 C 
ATOM      9  N   UNL     1       3.082  -0.368   2.083  0.00  0.00    +0.394 N 
ATOM     10  C   UNL     1       2.071   0.254   1.235  0.00  0.00    -0.067 C 
ATOM     11  C   UNL     1       2.924  -0.071   3.502  0.00  0.00    +0.037 C 
ATOM     12  C   UNL     1       1.857  -3.932   2.244  0.00  0.00    +0.013 C 
ATOM     13  H   UNL     1       3.975   0.011   1.807  0.00  0.00    -0.079 HD
ENDROOT
BRANCH  11  14
ATOM     14  C   UNL     1       4.030  -0.740   4.277  0.00  0.00    -0.002 A 
ATOM     15  C   UNL     1       5.224  -1.048   3.652  0.00  0.00    +0.007 A 
ATOM     16  C   UNL     1       6.240  -1.661   4.360  0.00  0.00    +0.004 A 
ATOM     17  C   UNL     1       6.067  -1.970   5.697  0.00  0.00    +0.049 A 
ATOM     18  C   UNL     1       4.873  -1.664   6.329  0.00  0.00    +0.158 A 
ATOM     19  C   UNL     1       3.852  -1.040   5.617  0.00  0.00    +0.161 A 
BRANCH  19  20
ATOM     20  O   UNL     1       2.680  -0.733   6.235  0.00  0.00    -0.503 OA
ATOM     21  H   UNL     1       2.017  -1.435   6.193  0.00  0.00    +0.292 HD
ENDBRANCH  19  20
BRANCH  18  22
ATOM     22  O   UNL     1       4.701  -1.966   7.644  0.00  0.00    -0.503 OA
ATOM     23  H   UNL     1       4.973  -1.262   8.248  0.00  0.00    +0.292 HD
ENDBRANCH  18  22
ENDBRANCH  11  14
BRANCH   1  25
ATOM     24  C   UNL     1      -1.388  -0.641  -0.045  0.00  0.00    +0.004 C 
ATOM     25  C   UNL     1       0.002  -0.004   0.002  0.00  0.00    +0.004 C 
ENDBRANCH   1  25
BRANCH   7  26
ATOM     26  O   UNL     1       1.198  -2.335  -0.040  0.00  0.00    -0.391 OA
ATOM     27  H   UNL     1       1.270  -3.295  -0.137  0.00  0.00    +0.210 HD
ENDBRANCH   7  26
TORSDOF 5
