REMARK  Name = ZINC39610143
REMARK  5 active torsions:
REMARK  status: ('A' for Active; 'I' for Inactive)
REMARK    1  A    between atoms: C_6  and  C_7
REMARK    2  A    between atoms: C_7  and  N_8
REMARK    3  A    between atoms: C_9  and  C_11
REMARK    4  A    between atoms: C_22  and  C_24
REMARK    5  A    between atoms: C_27  and  C_31
REMARK                            x       y       z     vdW  Elec       q    Type
REMARK                         _______ _______ _______ _____ _____    ______ ____
ROOT
ATOM      1  C   UNL     1      -3.377  -2.110  -2.451  0.00  0.00    +0.100 C 
ATOM      2  C   UNL     1      -2.292  -2.711  -3.372  0.00  0.00    +0.121 C 
ATOM      3  N   UNL     1      -2.655  -4.143  -3.492  0.00  0.00    -0.296 N 
ATOM      4  C   UNL     1      -4.134  -4.142  -3.588  0.00  0.00    +0.115 C 
ATOM      5  C   UNL     1      -4.586  -3.049  -2.599  0.00  0.00    -0.004 C 
ATOM      6  C   UNL     1      -5.782  -2.288  -3.163  0.00  0.00    -0.010 C 
ATOM      7  C   UNL     1      -6.987  -3.228  -3.245  0.00  0.00    -0.082 C 
ATOM      8  N   UNL     1      -7.298  -3.747  -1.908  0.00  0.00    +0.379 N 
ATOM      9  C   UNL     1      -6.178  -4.556  -1.412  0.00  0.00    -0.082 C 
ATOM     10  C   UNL     1      -4.939  -3.672  -1.251  0.00  0.00    -0.010 C 
ATOM     11  C   UNL     1      -1.827  -5.206  -3.510  0.00  0.00    +0.249 C 
ATOM     12  O   UNL     1      -2.271  -6.320  -3.709  0.00  0.00    -0.270 OA
ATOM     13  H   UNL     1      -7.459  -2.975  -1.278  0.00  0.00    -0.086 HD
ATOM     14  H   UNL     1      -8.129  -4.318  -1.955  0.00  0.00    -0.086 HD
ENDROOT
BRANCH  11  15
ATOM     15  C   UNL     1      -0.379  -5.018  -3.288  0.00  0.00    +0.072 A 
ATOM     16  C   UNL     1       0.261  -3.870  -3.761  0.00  0.00    +0.016 A 
ATOM     17  C   UNL     1       1.613  -3.701  -3.549  0.00  0.00    +0.013 A 
ATOM     18  C   UNL     1       2.338  -4.665  -2.870  0.00  0.00    +0.058 A 
ATOM     19  C   UNL     1       1.714  -5.804  -2.399  0.00  0.00    +0.051 A 
ATOM     20  C   UNL     1       0.358  -5.986  -2.597  0.00  0.00    +0.136 A 
ATOM     21  F   UNL     1      -0.253  -7.097  -2.131  0.00  0.00    -0.205 F 
BRANCH  18  22
ATOM     22  C   UNL     1       3.815  -4.471  -2.644  0.00  0.00    +0.418 C 
ATOM     23  F   UNL     1       4.018  -3.799  -1.434  0.00  0.00    -0.166 F 
ATOM     24  F   UNL     1       4.448  -5.718  -2.597  0.00  0.00    -0.166 F 
ATOM     25  F   UNL     1       4.352  -3.715  -3.693  0.00  0.00    -0.166 F 
ENDBRANCH  18  22
ENDBRANCH  11  15
BRANCH   1  27
ATOM     26  N   UNL     1      -3.378  -1.165  -0.165  0.00  0.00    -0.311 N 
ATOM     27  C   UNL     1      -2.900  -2.089  -1.022  0.00  0.00    +0.218 C 
ATOM     28  O   UNL     1      -2.087  -2.904  -0.642  0.00  0.00    -0.275 OA
ATOM     29  H   UNL     1      -4.029  -0.512  -0.469  0.00  0.00    +0.149 HD
BRANCH  26  30
ATOM     30  C   UNL     1      -2.914  -1.144   1.224  0.00  0.00    +0.139 C 
BRANCH  30  36
ATOM     31  C   UNL     1      -4.797  -0.254   2.612  0.00  0.00    +0.009 A 
ATOM     32  C   UNL     1      -5.426   0.771   3.293  0.00  0.00    +0.050 A 
ATOM     33  C   UNL     1      -4.856   2.033   3.329  0.00  0.00    +0.166 A 
ATOM     34  C   UNL     1      -3.646   2.265   2.678  0.00  0.00    +0.167 A 
ATOM     35  C   UNL     1      -3.021   1.233   1.997  0.00  0.00    +0.054 A 
ATOM     36  C   UNL     1      -3.597  -0.024   1.966  0.00  0.00    -0.027 A 
ATOM     37  O   UNL     1      -3.297   3.572   2.859  0.00  0.00    -0.453 OA
ATOM     38  C   UNL     1      -4.503   4.237   3.280  0.00  0.00    +0.466 C 
ATOM     39  O   UNL     1      -5.264   3.194   3.918  0.00  0.00    -0.453 OA
ENDBRANCH  30  36
ENDBRANCH  26  30
ENDBRANCH   1  27
TORSDOF 5
