REMARK  Name = ZINC64871198
REMARK  6 active torsions:
REMARK  status: ('A' for Active; 'I' for Inactive)
REMARK    1  A    between atoms: C_1  and  S_2
REMARK    2  A    between atoms: S_2  and  C_3
REMARK    3  A    between atoms: C_6  and  C_9
REMARK    4  A    between atoms: C_12  and  C_16
REMARK    5  A    between atoms: N_26  and  C_29
REMARK    6  A    between atoms: C_29  and  C_30
REMARK                            x       y       z     vdW  Elec       q    Type
REMARK                         _______ _______ _______ _____ _____    ______ ____
ROOT
ATOM      1  C   UNL     1      -7.393  -3.560  -2.582  0.00  0.00    -0.000 A 
ATOM      2  C   UNL     1      -6.242  -3.858  -3.296  0.00  0.00    +0.008 A 
ATOM      3  C   UNL     1      -6.295  -4.699  -4.388  0.00  0.00    +0.016 A 
ATOM      4  C   UNL     1      -7.516  -5.249  -4.771  0.00  0.00    +0.063 A 
ATOM      5  C   UNL     1      -8.682  -4.946  -4.046  0.00  0.00    +0.056 A 
ATOM      6  C   UNL     1      -8.608  -4.103  -2.948  0.00  0.00    +0.034 A 
ATOM      7  N   UNL     1      -9.884  -5.509  -4.450  0.00  0.00    -0.307 N 
ATOM      8  H   UNL     1     -10.697  -5.309  -3.961  0.00  0.00    +0.170 HD
ATOM      9  C   UNL     1      -9.933  -6.329  -5.515  0.00  0.00    +0.330 A 
ATOM     10  O   UNL     1     -11.007  -6.801  -5.837  0.00  0.00    -0.246 OA
ATOM     11  N   UNL     1      -8.848  -6.647  -6.238  0.00  0.00    -0.256 N 
ATOM     12  C   UNL     1      -7.630  -6.154  -5.929  0.00  0.00    +0.265 A 
ATOM     13  O   UNL     1      -6.652  -6.448  -6.588  0.00  0.00    -0.267 OA
ENDROOT
BRANCH   1  16
ATOM     14  C   UNL     1      -6.782  -0.462  -0.726  0.00  0.00    +0.180 C 
ATOM     15  N   UNL     1      -6.343  -1.543  -1.639  0.00  0.00    -0.265 NA
ATOM     16  C   UNL     1      -7.315  -2.639  -1.391  0.00  0.00    +0.242 C 
ATOM     17  O   UNL     1      -8.566  -1.940  -1.202  0.00  0.00    -0.274 OA
ATOM     18  N   UNL     1      -8.209  -0.725  -0.443  0.00  0.00    -0.177 NA
ATOM     19  H   UNL     1      -6.378  -1.240  -2.601  0.00  0.00    +0.127 HD
ATOM     20  H   UNL     1      -8.364  -0.856   0.545  0.00  0.00    +0.156 HD
BRANCH  14  24
ATOM     21  C   UNL     1      -6.330   3.343  -2.619  0.00  0.00    +0.008 A 
ATOM     22  C   UNL     1      -7.345   3.143  -1.691  0.00  0.00    +0.015 A 
ATOM     23  C   UNL     1      -7.488   1.912  -1.081  0.00  0.00    +0.007 A 
ATOM     24  C   UNL     1      -6.622   0.880  -1.393  0.00  0.00    -0.014 A 
ATOM     25  C   UNL     1      -5.611   1.076  -2.316  0.00  0.00    +0.007 A 
ATOM     26  C   UNL     1      -5.466   2.302  -2.934  0.00  0.00    +0.015 A 
BRANCH  21  28
ATOM     27  C   UNL     1      -7.471   5.920  -2.681  0.00  0.00    +0.090 C 
ATOM     28  S   UNL     1      -6.144   4.912  -3.400  0.00  0.00    -0.129 S 
ENDBRANCH  21  28
ENDBRANCH  14  24
ENDBRANCH   1  16
BRANCH  11  29
ATOM     29  C   UNL     1      -8.989  -7.549  -7.384  0.00  0.00    +0.165 C 
BRANCH  29  30
ATOM     30  C   UNL     1      -9.274  -6.742  -8.625  0.00  0.00    -0.027 A 
ATOM     31  C   UNL     1     -10.579  -6.456  -8.978  0.00  0.00    +0.007 A 
ATOM     32  C   UNL     1     -10.841  -5.717 -10.116  0.00  0.00    +0.020 A 
ATOM     33  C   UNL     1      -9.797  -5.263 -10.902  0.00  0.00    +0.041 A 
ATOM     34  C   UNL     1      -8.491  -5.550 -10.548  0.00  0.00    +0.020 A 
ATOM     35  C   UNL     1      -8.229  -6.285  -9.407  0.00  0.00    +0.007 A 
ATOM     36 CL   UNL     1     -10.125  -4.335 -12.332  0.00  0.00    -0.084 Cl
ENDBRANCH  29  30
ENDBRANCH  11  29
TORSDOF 5
