REMARK  Name = ZINC38934347
REMARK  5 active torsions:
REMARK  status: ('A' for Active; 'I' for Inactive)
REMARK    1  A    between atoms: C_1  and  C_2
REMARK    2  A    between atoms: C_7  and  O_8
REMARK    3  A    between atoms: O_8  and  C_9
REMARK    4  A    between atoms: C_9  and  C_10
REMARK    5  A    between atoms: C_16  and  C_18
REMARK                            x       y       z     vdW  Elec       q    Type
REMARK                         _______ _______ _______ _____ _____    ______ ____
ROOT
ATOM      1  C   UNL     1       0.047   0.090   4.775  0.00  0.00    +0.258 C 
ATOM      2  O   UNL     1       0.030   1.294   4.625  0.00  0.00    -0.272 OA
ATOM      3  N   UNL     1       0.066  -0.433   6.017  0.00  0.00    -0.236 N 
ATOM      4  C   UNL     1       0.066   0.404   7.122  0.00  0.00    +0.315 A 
ATOM      5  N   UNL     1       0.042   1.714   7.102  0.00  0.00    -0.092 NA
ATOM      6  N   UNL     1       0.050   2.163   8.307  0.00  0.00    -0.103 NA
ATOM      7  C   UNL     1       0.078   1.152   9.148  0.00  0.00    +0.285 A 
ATOM      8  O   UNL     1       0.083   0.018   8.413  0.00  0.00    -0.402 OA
ATOM      9  H   UNL     1       0.080  -1.396   6.137  0.00  0.00    +0.159 HD
ENDROOT
BRANCH   7  10
ATOM     10  C   UNL     1       0.095   1.240  10.614  0.00  0.00    +0.192 A 
ATOM     11  C   UNL     1       0.078   2.389  11.348  0.00  0.00    +0.056 A 
ATOM     12  C   UNL     1       0.103   2.005  12.702  0.00  0.00    +0.058 A 
ATOM     13  C   UNL     1       0.134   0.656  12.732  0.00  0.00    +0.171 A 
ATOM     14  O   UNL     1       0.124   0.197  11.469  0.00  0.00    -0.443 OA
ATOM     15 BR   UNL     1       0.178  -0.411  14.292  0.00  0.00    -0.008 Br
ENDBRANCH   7  10
BRANCH   1  16
ATOM     16  C   UNL     1       0.048  -0.820   3.574  0.00  0.00    +0.325 C 
BRANCH  16  17
ATOM     17  O   UNL     1       0.025  -0.033   2.381  0.00  0.00    -0.482 OA
BRANCH  17  24
ATOM     18  C   UNL     1      -0.018   1.503   0.010  0.00  0.00    +0.047 C 
ATOM     19  C   UNL     1       0.002  -0.004   0.002  0.00  0.00    -0.009 A 
ATOM     20  C   UNL     1       0.006  -0.689  -1.198  0.00  0.00    +0.007 A 
ATOM     21  C   UNL     1       0.024  -2.071  -1.206  0.00  0.00    +0.000 A 
ATOM     22  C   UNL     1       0.039  -2.772  -0.014  0.00  0.00    +0.004 A 
ATOM     23  C   UNL     1       0.036  -2.092   1.188  0.00  0.00    +0.046 A 
ATOM     24  C   UNL     1       0.023  -0.705   1.199  0.00  0.00    +0.124 A 
ENDBRANCH  17  24
ENDBRANCH  16  17
ENDBRANCH   1  16
TORSDOF 4
