REMARK  Name = ZINC18080805
REMARK  2 active torsions:
REMARK  status: ('A' for Active; 'I' for Inactive)
REMARK    1  A    between atoms: C_10  and  N_11
REMARK    2  A    between atoms: C_16  and  C_18
REMARK                            x       y       z     vdW  Elec       q    Type
REMARK                         _______ _______ _______ _____ _____    ______ ____
ROOT
ATOM      1  N   UNL     1       4.889   0.036  -0.046  0.00  0.00    -0.325 N 
ATOM      2  C   UNL     1       6.037  -0.622   0.040  0.00  0.00    +0.210 A 
ATOM      3  N   UNL     1       7.196   0.045   0.139  0.00  0.00    -0.181 NA
ATOM      4  C   UNL     1       8.336  -0.622   0.224  0.00  0.00    +0.217 A 
ATOM      5  N   UNL     1       8.351  -1.963   0.213  0.00  0.00    -0.201 NA
ATOM      6  C   UNL     1       7.239  -2.646   0.118  0.00  0.00    +0.123 A 
ATOM      7  N   UNL     1       6.054  -2.001   0.034  0.00  0.00    -0.313 N 
ATOM      8  N   UNL     1       9.519   0.069   0.324  0.00  0.00    -0.327 N 
ATOM      9  H   UNL     1       9.515   1.039   0.332  0.00  0.00    +0.145 HD
ATOM     10  H   UNL     1      10.358  -0.413   0.387  0.00  0.00    +0.145 HD
ATOM     11  H   UNL     1       5.226  -2.502  -0.032  0.00  0.00    +0.170 HD
ATOM     12  H   UNL     1       4.889   1.003  -0.120  0.00  0.00    +0.169 HD
ENDROOT
BRANCH   1  22
ATOM     13  C   UNL     1       2.244  -2.458   3.503  0.00  0.00    +0.001 A 
ATOM     14  C   UNL     1       3.454  -1.770   3.526  0.00  0.00    +0.001 A 
ATOM     15  C   UNL     1       3.945  -1.179   2.400  0.00  0.00    +0.010 A 
ATOM     16  C   UNL     1       3.224  -1.264   1.203  0.00  0.00    +0.006 A 
ATOM     17  C   UNL     1       1.992  -1.964   1.176  0.00  0.00    -0.016 A 
ATOM     18  C   UNL     1       1.517  -2.561   2.357  0.00  0.00    +0.008 A 
ATOM     19  C   UNL     1       1.272  -2.048  -0.027  0.00  0.00    +0.008 A 
ATOM     20  C   UNL     1       1.745  -1.465  -1.163  0.00  0.00    +0.003 A 
ATOM     21  C   UNL     1       2.946  -0.770  -1.184  0.00  0.00    +0.026 A 
ATOM     22  C   UNL     1       3.711  -0.646  -0.029  0.00  0.00    +0.050 A 
ENDBRANCH   1  22
BRANCH   6  23
ATOM     23  C   UNL     1       7.279  -4.152   0.108  0.00  0.00    +0.121 C 
ATOM     24  C   UNL     1       8.657  -4.640  -0.388  0.00  0.00    +0.019 C 
ATOM     25  C   UNL     1       8.943  -5.886   0.487  0.00  0.00    +0.009 C 
ATOM     26  C   UNL     1       8.360  -5.468   1.860  0.00  0.00    +0.075 C 
ATOM     27  C   UNL     1       7.105  -4.684   1.515  0.00  0.00    +0.144 C 
ATOM     28  O   UNL     1       6.146  -4.516   2.230  0.00  0.00    -0.297 OA
ENDBRANCH   6  23
TORSDOF 2
