REMARK  Name = ZINC05045070
REMARK  6 active torsions:
REMARK  status: ('A' for Active; 'I' for Inactive)
REMARK    1  A    between atoms: C_1  and  C_2
REMARK    2  A    between atoms: C_5  and  S_8
REMARK    3  A    between atoms: S_8  and  C_9
REMARK    4  A    between atoms: C_9  and  C_10
REMARK    5  A    between atoms: C_20  and  C_29
REMARK    6  A    between atoms: C_24  and  C_28
REMARK                            x       y       z     vdW  Elec       q    Type
REMARK                         _______ _______ _______ _____ _____    ______ ____
ROOT
ATOM      1  C   UNL     1       0.097  -6.482   1.870  0.00  0.00    +0.060 A 
ATOM      2  C   UNL     1       1.248  -7.117   2.236  0.00  0.00    +0.094 A 
ATOM      3  C   UNL     1       1.241  -8.519   2.355  0.00  0.00    +0.253 A 
ATOM      4  O   UNL     1       2.252  -9.120   2.681  0.00  0.00    -0.268 OA
ATOM      5  N   UNL     1       0.095  -9.186   2.104  0.00  0.00    -0.295 N 
ATOM      6  C   UNL     1      -1.022  -8.498   1.743  0.00  0.00    +0.202 A 
ATOM      7  N   UNL     1      -1.010  -7.185   1.638  0.00  0.00    -0.220 NA
ATOM      8  N   UNL     1      -2.184  -9.184   1.489  0.00  0.00    -0.254 N 
ATOM      9  C   UNL     1      -3.330  -8.495   1.120  0.00  0.00    +0.222 A 
ATOM     10  N   UNL     1      -3.271  -7.168   1.015  0.00  0.00    -0.219 NA
ATOM     11  C   UNL     1      -4.324  -6.458   0.669  0.00  0.00    +0.051 A 
ATOM     12  C   UNL     1      -5.532  -7.131   0.406  0.00  0.00    +0.022 A 
ATOM     13  C   UNL     1      -6.698  -6.449   0.032  0.00  0.00    +0.012 A 
ATOM     14  C   UNL     1      -7.839  -7.153  -0.210  0.00  0.00    +0.004 A 
ATOM     15  C   UNL     1      -7.863  -8.541  -0.090  0.00  0.00    -0.048 A 
ATOM     16  C   UNL     1      -6.749  -9.235   0.272  0.00  0.00    +0.032 A 
ATOM     17  C   UNL     1      -5.555  -8.544   0.529  0.00  0.00    +0.077 A 
ATOM     18  N   UNL     1      -4.431  -9.179   0.882  0.00  0.00    -0.214 NA
ATOM     19  C   UNL     1      -9.144  -9.287  -0.365  0.00  0.00    +0.044 C 
ATOM     20  C   UNL     1      -4.238  -4.957   0.556  0.00  0.00    +0.066 C 
ATOM     21  H   UNL     1      -2.204 -10.151   1.567  0.00  0.00    +0.158 HD
ATOM     22  H   UNL     1       0.067 -10.153   2.180  0.00  0.00    +0.172 HD
ENDROOT
BRANCH   1  23
ATOM     23  C   UNL     1       0.077  -4.981   1.735  0.00  0.00    +0.130 C 
BRANCH  23  24
ATOM     24  S   UNL     1       0.062  -4.533  -0.023  0.00  0.00    -0.119 S 
BRANCH  24  29
ATOM     25  C   UNL     1      -0.018   1.503   0.010  0.00  0.00    +0.044 C 
ATOM     26  C   UNL     1       0.002  -0.004   0.002  0.00  0.00    -0.050 A 
ATOM     27  C   UNL     1       0.006  -0.687  -1.200  0.00  0.00    +0.004 A 
ATOM     28  C   UNL     1       0.024  -2.068  -1.212  0.00  0.00    +0.015 A 
ATOM     29  C   UNL     1       0.039  -2.771  -0.013  0.00  0.00    +0.008 A 
ATOM     30  C   UNL     1       0.036  -2.081   1.193  0.00  0.00    +0.015 A 
ATOM     31  C   UNL     1       0.023  -0.700   1.197  0.00  0.00    +0.004 A 
ENDBRANCH  24  29
ENDBRANCH  23  24
ENDBRANCH   1  23
TORSDOF 3
