REMARK  Name = ZINC39627581
REMARK  10 active torsions:
REMARK  status: ('A' for Active; 'I' for Inactive)
REMARK    1  A    between atoms: C_1  and  N_2
REMARK    2  A    between atoms: N_2  and  C_3
REMARK    3  A    between atoms: N_2  and  C_4
REMARK    4  A    between atoms: C_4  and  C_5
REMARK    5  A    between atoms: C_5  and  C_6
REMARK    6  A    between atoms: C_6  and  N_7
REMARK    7  A    between atoms: C_8  and  C_10
REMARK    8  A    between atoms: C_21  and  C_23
REMARK    9  A    between atoms: C_27  and  O_28
REMARK   10  A    between atoms: O_28  and  C_29
REMARK                            x       y       z     vdW  Elec       q    Type
REMARK                         _______ _______ _______ _____ _____    ______ ____
ROOT
ATOM      1  C   UNL     1      -3.918  -6.202  -0.401  0.00  0.00    +0.100 C 
ATOM      2  C   UNL     1      -3.425  -6.619  -1.804  0.00  0.00    +0.121 C 
ATOM      3  N   UNL     1      -4.244  -7.804  -2.151  0.00  0.00    -0.296 N 
ATOM      4  C   UNL     1      -5.598  -7.479  -1.643  0.00  0.00    +0.115 C 
ATOM      5  C   UNL     1      -5.344  -6.767  -0.299  0.00  0.00    -0.004 C 
ATOM      6  C   UNL     1      -6.349  -5.635  -0.105  0.00  0.00    -0.010 C 
ATOM      7  C   UNL     1      -7.753  -6.226   0.052  0.00  0.00    -0.082 C 
ATOM      8  N   UNL     1      -7.778  -7.132   1.206  0.00  0.00    +0.379 N 
ATOM      9  C   UNL     1      -6.878  -8.268   0.971  0.00  0.00    -0.082 C 
ATOM     10  C   UNL     1      -5.437  -7.764   0.853  0.00  0.00    -0.010 C 
ATOM     11  C   UNL     1      -3.847  -8.925  -2.786  0.00  0.00    +0.251 C 
ATOM     12  O   UNL     1      -2.672  -9.088  -3.057  0.00  0.00    -0.270 OA
ATOM     13  H   UNL     1      -7.479  -6.633   2.031  0.00  0.00    -0.086 HD
ATOM     14  H   UNL     1      -8.718  -7.473   1.344  0.00  0.00    -0.086 HD
ENDROOT
BRANCH  11  15
ATOM     15  C   UNL     1      -4.835  -9.952  -3.151  0.00  0.00    +0.087 A 
ATOM     16  C   UNL     1      -6.115  -9.618  -3.534  0.00  0.00    +0.063 A 
ATOM     17  S   UNL     1      -6.853 -11.092  -3.845  0.00  0.00    -0.081 S 
ATOM     18  C   UNL     1      -5.506 -12.198  -3.484  0.00  0.00    +0.120 A 
ATOM     19  C   UNL     1      -4.506 -11.359  -3.132  0.00  0.00    +0.158 A 
ATOM     20 CL   UNL     1      -5.481 -13.932  -3.571  0.00  0.00    -0.072 Cl
BRANCH  19  21
ATOM     21  O   UNL     1      -3.272 -11.811  -2.777  0.00  0.00    -0.492 OA
ATOM     22  C   UNL     1      -3.058 -12.097  -1.393  0.00  0.00    +0.277 C 
ENDBRANCH  19  21
ENDBRANCH  11  15
BRANCH   1  24
ATOM     23  N   UNL     1      -3.925  -4.124   0.941  0.00  0.00    -0.315 N 
ATOM     24  C   UNL     1      -3.938  -4.700  -0.277  0.00  0.00    +0.218 C 
ATOM     25  O   UNL     1      -3.966  -4.010  -1.274  0.00  0.00    -0.275 OA
ATOM     26  H   UNL     1      -3.903  -4.676   1.739  0.00  0.00    +0.149 HD
BRANCH  23  27
ATOM     27  C   UNL     1      -3.945  -2.664   1.062  0.00  0.00    +0.102 C 
BRANCH  27  28
ATOM     28  C   UNL     1      -3.925  -2.274   2.541  0.00  0.00    +0.000 C 
BRANCH  28  29
ATOM     29  C   UNL     1      -3.946  -0.749   2.666  0.00  0.00    -0.078 C 
BRANCH  29  31
ATOM     30  C   UNL     1      -3.825   1.087   4.206  0.00  0.00    -0.097 C 
ATOM     31  N   UNL     1      -3.926  -0.374   4.087  0.00  0.00    +0.376 N 
ATOM     32  C   UNL     1      -5.163  -0.834   4.731  0.00  0.00    -0.097 C 
ATOM     33  H   UNL     1      -3.132  -0.804   4.537  0.00  0.00    -0.083 HD
ENDBRANCH  29  31
ENDBRANCH  28  29
ENDBRANCH  27  28
ENDBRANCH  23  27
ENDBRANCH   1  24
TORSDOF 7
