REMARK  Name = ZINC02242780
REMARK  7 active torsions:
REMARK  status: ('A' for Active; 'I' for Inactive)
REMARK    1  A    between atoms: C_1  and  O_2
REMARK    2  A    between atoms: O_2  and  C_3
REMARK    3  A    between atoms: C_5  and  C_11
REMARK    4  A    between atoms: C_8  and  O_9
REMARK    5  A    between atoms: N_12  and  N_13
REMARK    6  A    between atoms: C_14  and  C_16
REMARK    7  A    between atoms: C_17  and  C_27
REMARK                            x       y       z     vdW  Elec       q    Type
REMARK                         _______ _______ _______ _____ _____    ______ ____
ROOT
ATOM      1  C   UNL     1      -0.506   5.415   0.168  0.00  0.00    +0.160 A 
ATOM      2  C   UNL     1       0.778   5.927  -0.007  0.00  0.00    +0.125 A 
ATOM      3  N   UNL     1       1.588   4.861  -0.104  0.00  0.00    -0.128 NA
ATOM      4  N   UNL     1       0.894   3.785   0.002  0.00  0.00    -0.058 NA
ATOM      5  N   UNL     1      -0.355   4.050   0.160  0.00  0.00    -0.183 N 
ATOM      6  C   UNL     1      -1.380   3.111   0.305  0.00  0.00    +0.241 A 
ATOM      7  C   UNL     1      -1.235   1.657   0.188  0.00  0.00    +0.206 A 
ATOM      8  N   UNL     1      -2.402   1.110   0.391  0.00  0.00    -0.032 NA
ATOM      9  O   UNL     1      -3.332   2.150   0.635  0.00  0.00    -0.239 OA
ATOM     10  N   UNL     1      -2.629   3.378   0.563  0.00  0.00    -0.027 NA
ATOM     11  N   UNL     1      -0.054   0.976  -0.086  0.00  0.00    -0.337 N 
ATOM     12  H   UNL     1      -0.054  -0.122  -0.153  0.00  0.00    +0.144 HD
ATOM     13  H   UNL     1       0.881   1.536  -0.237  0.00  0.00    +0.144 HD
ENDROOT
BRANCH   2  14
ATOM     14  C   UNL     1       1.170   7.354  -0.071  0.00  0.00    +0.004 A 
ATOM     15  C   UNL     1       0.384   8.264  -0.778  0.00  0.00    +0.010 A 
ATOM     16  C   UNL     1       0.751   9.594  -0.830  0.00  0.00    +0.001 A 
ATOM     17  C   UNL     1       1.901  10.022  -0.192  0.00  0.00    +0.000 A 
ATOM     18  C   UNL     1       2.687   9.123   0.506  0.00  0.00    +0.001 A 
ATOM     19  C   UNL     1       2.328   7.793   0.570  0.00  0.00    +0.010 A 
ENDBRANCH   2  14
BRANCH   1  21
ATOM     20  N   UNL     1      -2.576   6.345  -0.727  0.00  0.00    -0.202 N 
ATOM     21  C   UNL     1      -1.753   6.173   0.327  0.00  0.00    +0.284 C 
ATOM     22  O   UNL     1      -2.044   6.647   1.409  0.00  0.00    -0.267 OA
ATOM     23  H   UNL     1      -2.276   5.987  -1.723  0.00  0.00    +0.178 HD
BRANCH  20  25
ATOM     24  C   UNL     1      -4.606   7.143  -1.569  0.00  0.00    +0.138 C 
ATOM     25  N   UNL     1      -3.813   6.978  -0.554  0.00  0.00    -0.187 NA
BRANCH  24  28
ATOM     26  C   UNL     1      -7.983   8.612  -2.301  0.00  0.00    +0.163 A 
ATOM     27  C   UNL     1      -6.760   7.992  -2.478  0.00  0.00    +0.059 A 
ATOM     28  C   UNL     1      -5.908   7.809  -1.386  0.00  0.00    -0.001 A 
ATOM     29  C   UNL     1      -6.291   8.264  -0.122  0.00  0.00    +0.028 A 
ATOM     30  C   UNL     1      -7.510   8.887   0.047  0.00  0.00    +0.063 A 
ATOM     31  C   UNL     1      -8.358   9.064  -1.038  0.00  0.00    +0.173 A 
ATOM     32 BR   UNL     1      -8.027   9.502   1.759  0.00  0.00    -0.046 Br
BRANCH  26  34
ATOM     33  C   UNL     1      -8.367   8.300  -4.627  0.00  0.00    +0.277 C 
ATOM     34  O   UNL     1      -8.817   8.787  -3.361  0.00  0.00    -0.491 OA
ENDBRANCH  26  34
BRANCH  31  35
ATOM     35  O   UNL     1      -9.559   9.679  -0.867  0.00  0.00    -0.503 OA
ATOM     36  H   UNL     1      -9.857  10.036   0.130  0.00  0.00    +0.292 HD
ENDBRANCH  31  35
ENDBRANCH  24  28
ENDBRANCH  20  25
ENDBRANCH   1  21
TORSDOF 6
