REMARK  Name = ZINC18198207
REMARK  9 active torsions:
REMARK  status: ('A' for Active; 'I' for Inactive)
REMARK    1  A    between atoms: C_1  and  O_2
REMARK    2  A    between atoms: O_2  and  C_3
REMARK    3  A    between atoms: C_5  and  C_13
REMARK    4  A    between atoms: C_7  and  O_11
REMARK    5  A    between atoms: C_8  and  O_9
REMARK    6  A    between atoms: O_9  and  C_10
REMARK    7  A    between atoms: O_11  and  C_12
REMARK    8  A    between atoms: C_18  and  C_26
REMARK    9  A    between atoms: C_31  and  C_32
REMARK                            x       y       z     vdW  Elec       q    Type
REMARK                         _______ _______ _______ _____ _____    ______ ____
ROOT
ATOM      1  C   UNL     1      -6.050  -0.046   1.866  0.00  0.00    +0.032 C 
ATOM      2  C   UNL     1      -6.712  -0.222   0.498  0.00  0.00    +0.060 C 
ATOM      3  C   UNL     1      -8.162  -0.606   0.682  0.00  0.00    +0.020 C 
ATOM      4  C   UNL     1      -8.862  -0.180   1.754  0.00  0.00    +0.041 C 
ATOM      5  C   UNL     1     -10.313  -0.552   1.968  0.00  0.00    +0.176 C 
ATOM      6  N   UNL     1     -10.871  -1.106   0.741  0.00  0.00    -0.221 N 
ATOM      7  C   UNL     1     -10.113  -1.504  -0.311  0.00  0.00    +0.218 A 
ATOM      8  N   UNL     1     -10.913  -1.954  -1.238  0.00  0.00    -0.201 NA
ATOM      9  C   UNL     1     -12.179  -1.857  -0.821  0.00  0.00    +0.247 A 
ATOM     10  N   UNL     1     -12.198  -1.342   0.384  0.00  0.00    -0.156 NA
ATOM     11  N   UNL     1      -8.732  -1.395  -0.288  0.00  0.00    -0.287 N 
ATOM     12  C   UNL     1      -8.261   0.634   2.732  0.00  0.00    +0.164 C 
ATOM     13  O   UNL     1      -8.925   1.021   3.673  0.00  0.00    -0.292 OA
ATOM     14  C   UNL     1      -6.815   1.034   2.638  0.00  0.00    +0.088 C 
ATOM     15  H   UNL     1      -8.183  -1.863  -0.938  0.00  0.00    +0.155 HD
ENDROOT
BRANCH   1  18
ATOM     16  C   UNL     1      -3.006   1.949   0.845  0.00  0.00    +0.165 A 
ATOM     17  C   UNL     1      -4.324   1.551   1.010  0.00  0.00    +0.053 A 
ATOM     18  C   UNL     1      -4.615   0.380   1.684  0.00  0.00    -0.036 A 
ATOM     19  C   UNL     1      -3.595  -0.402   2.191  0.00  0.00    +0.053 A 
ATOM     20  C   UNL     1      -2.274  -0.015   2.025  0.00  0.00    +0.165 A 
ATOM     21  C   UNL     1      -1.977   1.163   1.349  0.00  0.00    +0.204 A 
BRANCH  16  23
ATOM     22  C   UNL     1      -3.829   3.862  -0.303  0.00  0.00    +0.277 C 
ATOM     23  O   UNL     1      -2.721   3.104   0.187  0.00  0.00    -0.491 OA
ENDBRANCH  16  23
BRANCH  21  24
ATOM     24  O   UNL     1      -0.682   1.547   1.184  0.00  0.00    -0.488 OA
ATOM     25  C   UNL     1      -0.013   1.086   0.008  0.00  0.00    +0.277 C 
ENDBRANCH  21  24
BRANCH  20  26
ATOM     26  O   UNL     1      -1.270  -0.784   2.525  0.00  0.00    -0.491 OA
ATOM     27  C   UNL     1      -1.649  -1.980   3.209  0.00  0.00    +0.277 C 
ENDBRANCH  20  26
ENDBRANCH   1  18
BRANCH   5  28
ATOM     28  C   UNL     1     -10.410  -1.579   3.067  0.00  0.00    -0.007 A 
ATOM     29  C   UNL     1      -9.772  -2.798   2.932  0.00  0.00    +0.006 A 
ATOM     30  C   UNL     1      -9.857  -3.738   3.942  0.00  0.00    +0.000 A 
ATOM     31  C   UNL     1     -10.588  -3.462   5.082  0.00  0.00    +0.001 A 
ATOM     32  C   UNL     1     -11.230  -2.245   5.215  0.00  0.00    +0.013 A 
ATOM     33  C   UNL     1     -11.141  -1.303   4.207  0.00  0.00    +0.060 A 
BRANCH  33  34
ATOM     34  C   UNL     1     -11.841   0.024   4.351  0.00  0.00    +0.418 C 
ATOM     35  F   UNL     1     -12.509   0.067   5.579  0.00  0.00    -0.166 F 
ATOM     36  F   UNL     1     -10.899   1.056   4.296  0.00  0.00    -0.166 F 
ATOM     37  F   UNL     1     -12.764   0.179   3.312  0.00  0.00    -0.166 F 
ENDBRANCH  33  34
ENDBRANCH   5  28
TORSDOF 6
