REMARK  Name = ZINC58172730
REMARK  5 active torsions:
REMARK  status: ('A' for Active; 'I' for Inactive)
REMARK    1  A    between atoms: C_1  and  N_2
REMARK    2  A    between atoms: N_7  and  S_8
REMARK    3  A    between atoms: S_8  and  C_11
REMARK    4  A    between atoms: C_14  and  S_17
REMARK    5  A    between atoms: S_17  and  C_18
REMARK                            x       y       z     vdW  Elec       q    Type
REMARK                         _______ _______ _______ _____ _____    ______ ____
ROOT
ATOM      1  S   UNL     1       0.060  -3.043   3.191  0.00  0.00    +0.074 S 
ATOM      2  O   UNL     1       0.054  -4.356   3.735  0.00  0.00    -0.150 OA
ATOM      3  O   UNL     1       1.074  -2.096   3.498  0.00  0.00    -0.150 OA
ENDROOT
BRANCH   1  10
ATOM      4  C   UNL     1      -0.018   1.461   0.010  0.00  0.00    +0.172 C 
ATOM      5  N   UNL     1       0.002  -0.004   0.002  0.00  0.00    -0.273 N 
ATOM      6  C   UNL     1       0.008  -0.791  -1.095  0.00  0.00    +0.110 A 
ATOM      7  C   UNL     1       0.028  -2.078  -0.681  0.00  0.00    +0.066 A 
ATOM      8  C   UNL     1       0.035  -2.080   0.723  0.00  0.00    +0.160 A 
ATOM      9  N   UNL     1       0.025  -0.833   1.131  0.00  0.00    -0.155 NA
ATOM     10  N   UNL     1       0.055  -3.214   1.544  0.00  0.00    -0.198 N 
ATOM     11  H   UNL     1       0.065  -4.099   1.148  0.00  0.00    +0.175 HD
ENDBRANCH   1  10
BRANCH   1  12
ATOM     12  C   UNL     1      -1.474  -2.304   3.644  0.00  0.00    +0.109 A 
ATOM     13  C   UNL     1      -1.585  -0.926   3.701  0.00  0.00    +0.030 A 
ATOM     14  C   UNL     1      -2.785  -0.343   4.056  0.00  0.00    +0.017 A 
ATOM     15  C   UNL     1      -3.882  -1.142   4.354  0.00  0.00    +0.016 A 
ATOM     16  C   UNL     1      -3.767  -2.526   4.295  0.00  0.00    +0.017 A 
ATOM     17  C   UNL     1      -2.565  -3.102   3.935  0.00  0.00    +0.030 A 
BRANCH  15  18
ATOM     18  S   UNL     1      -5.416  -0.402   4.808  0.00  0.00    -0.016 S 
BRANCH  18  19
ATOM     19  C   UNL     1      -6.516  -1.815   5.096  0.00  0.00    +0.448 C 
ATOM     20  F   UNL     1      -5.993  -2.613   6.119  0.00  0.00    -0.160 F 
ATOM     21  F   UNL     1      -7.783  -1.352   5.468  0.00  0.00    -0.160 F 
ATOM     22  F   UNL     1      -6.622  -2.571   3.924  0.00  0.00    -0.160 F 
ENDBRANCH  18  19
ENDBRANCH  15  18
ENDBRANCH   1  12
TORSDOF 4
