REMARK  Name = ZINC16972868
REMARK  4 active torsions:
REMARK  status: ('A' for Active; 'I' for Inactive)
REMARK    1  A    between atoms: C_1  and  C_2
REMARK    2  A    between atoms: C_5  and  N_9
REMARK    3  A    between atoms: C_12  and  C_19
REMARK    4  A    between atoms: N_33  and  C_34
REMARK                            x       y       z     vdW  Elec       q    Type
REMARK                         _______ _______ _______ _____ _____    ______ ____
ROOT
ATOM      1  N   UNL     1       0.057  -4.173  -0.022  0.00  0.00    -0.229 N 
ATOM      2  C   UNL     1       0.168  -4.847   1.139  0.00  0.00    +0.267 A 
ATOM      3  O   UNL     1       0.253  -4.243   2.195  0.00  0.00    -0.267 OA
ATOM      4  C   UNL     1       0.186  -6.253   1.126  0.00  0.00    +0.074 A 
ATOM      5  C   UNL     1       0.090  -6.905  -0.068  0.00  0.00    +0.260 A 
ATOM      6  N   UNL     1      -0.022  -6.179  -1.227  0.00  0.00    -0.274 N 
ATOM      7  H   UNL     1      -0.091  -6.639  -2.078  0.00  0.00    +0.173 HD
ATOM      8  C   UNL     1      -0.042  -4.834  -1.189  0.00  0.00    +0.337 A 
ATOM      9  O   UNL     1      -0.147  -4.208  -2.226  0.00  0.00    -0.246 OA
ATOM     10  O   UNL     1       0.105  -8.254  -0.109  0.00  0.00    -0.267 OA
ENDROOT
BRANCH   4  11
ATOM     11  C   UNL     1       0.310  -7.028   2.412  0.00  0.00    +0.021 C 
ATOM     12  C   UNL     1      -0.908  -6.784   3.270  0.00  0.00    +0.011 A 
ATOM     13  C   UNL     1      -0.837  -6.570   4.604  0.00  0.00    -0.022 A 
ATOM     14  C   UNL     1      -2.187  -6.374   5.080  0.00  0.00    +0.003 A 
ATOM     15  C   UNL     1      -2.724  -6.117   6.345  0.00  0.00    +0.010 A 
ATOM     16  C   UNL     1      -4.088  -5.985   6.428  0.00  0.00    +0.001 A 
ATOM     17  C   UNL     1      -4.907  -6.099   5.316  0.00  0.00    +0.002 A 
ATOM     18  C   UNL     1      -4.404  -6.353   4.052  0.00  0.00    +0.026 A 
ATOM     19  C   UNL     1      -3.022  -6.491   3.938  0.00  0.00    +0.047 A 
ATOM     20  N   UNL     1      -2.214  -6.740   2.865  0.00  0.00    -0.359 N 
ATOM     21  H   UNL     1      -2.520  -6.866   1.953  0.00  0.00    +0.166 HD
ATOM     22  C   UNL     1       0.462  -6.560   5.371  0.00  0.00    +0.019 C 
ATOM     23  C   UNL     1       1.538  -7.196   4.480  0.00  0.00    -0.073 C 
ATOM     24  N   UNL     1       1.504  -6.579   3.146  0.00  0.00    +0.387 N 
ATOM     25  C   UNL     1       2.708  -6.962   2.397  0.00  0.00    -0.095 C 
ATOM     26  H   UNL     1       1.478  -5.575   3.244  0.00  0.00    -0.081 HD
ENDBRANCH   4  11
BRANCH   1  31
ATOM     27  C   UNL     1      -0.018   1.503   0.016  0.00  0.00    +0.045 C 
ATOM     28  C   UNL     1       0.002  -0.004   0.005  0.00  0.00    -0.032 A 
ATOM     29  C   UNL     1      -1.182  -0.711   0.108  0.00  0.00    +0.007 A 
ATOM     30  C   UNL     1      -1.167  -2.092   0.099  0.00  0.00    +0.027 A 
ATOM     31  C   UNL     1       0.039  -2.771  -0.013  0.00  0.00    +0.056 A 
ATOM     32  C   UNL     1       1.226  -2.060  -0.117  0.00  0.00    +0.046 A 
ATOM     33  C   UNL     1       1.205  -0.678  -0.113  0.00  0.00    +0.046 A 
ATOM     34 CL   UNL     1       2.688   0.213  -0.249  0.00  0.00    -0.083 Cl
ENDBRANCH   1  31
TORSDOF 2
