REMARK  Name = ZINC39659287
REMARK  10 active torsions:
REMARK  status: ('A' for Active; 'I' for Inactive)
REMARK    1  A    between atoms: C_1  and  C_2
REMARK    2  A    between atoms: C_2  and  C_3
REMARK    3  A    between atoms: C_3  and  C_4
REMARK    4  A    between atoms: C_3  and  C_6
REMARK    5  A    between atoms: C_4  and  C_5
REMARK    6  A    between atoms: C_10  and  C_19
REMARK    7  A    between atoms: N_21  and  C_22
REMARK    8  A    between atoms: C_22  and  C_23
REMARK    9  A    between atoms: C_27  and  C_29
REMARK   10  A    between atoms: C_27  and  C_30
REMARK                            x       y       z     vdW  Elec       q    Type
REMARK                         _______ _______ _______ _____ _____    ______ ____
ROOT
ATOM      1  C   UNL     1       1.065  -2.353   0.750  0.00  0.00    +0.219 C 
ATOM      2  O   UNL     1       0.736  -3.163   1.589  0.00  0.00    -0.275 OA
ATOM      3  N   UNL     1       1.833  -2.734  -0.290  0.00  0.00    -0.300 N 
ATOM      4  C   UNL     1       2.339  -1.895  -1.402  0.00  0.00    +0.121 C 
ATOM      5  C   UNL     1       3.778  -2.399  -1.649  0.00  0.00    +0.100 C 
ATOM      6  C   UNL     1       3.788  -3.839  -1.109  0.00  0.00    -0.004 C 
ATOM      7  C   UNL     1       2.369  -4.087  -0.576  0.00  0.00    +0.115 C 
ATOM      8  C   UNL     1       4.801  -3.972   0.025  0.00  0.00    -0.010 C 
ATOM      9  C   UNL     1       4.832  -5.425   0.506  0.00  0.00    -0.082 C 
ATOM     10  N   UNL     1       5.199  -6.305  -0.610  0.00  0.00    +0.379 N 
ATOM     11  C   UNL     1       4.172  -6.241  -1.656  0.00  0.00    -0.082 C 
ATOM     12  C   UNL     1       4.112  -4.822  -2.230  0.00  0.00    -0.010 C 
ATOM     13  H   UNL     1       6.085  -6.010  -0.992  0.00  0.00    -0.086 HD
ATOM     14  H   UNL     1       5.279  -7.254  -0.277  0.00  0.00    -0.086 HD
ENDROOT
BRANCH   5  15
ATOM     15  C   UNL     1       4.769  -1.548  -0.897  0.00  0.00    +0.218 C 
ATOM     16  O   UNL     1       4.470  -1.080   0.182  0.00  0.00    -0.275 OA
ATOM     17  N   UNL     1       5.986  -1.306  -1.423  0.00  0.00    -0.312 N 
ATOM     18  H   UNL     1       6.225  -1.681  -2.285  0.00  0.00    +0.149 HD
BRANCH  17  19
ATOM     19  C   UNL     1       6.949  -0.479  -0.691  0.00  0.00    +0.138 C 
BRANCH  19  20
ATOM     20  C   UNL     1       8.241  -0.363  -1.502  0.00  0.00    +0.164 C 
ATOM     21  C   UNL     1       9.302   0.459  -0.727  0.00  0.00    +0.196 C 
ATOM     22  O   UNL     1      10.536  -0.060  -1.279  0.00  0.00    -0.347 OA
ATOM     23  C   UNL     1      10.281  -1.457  -1.499  0.00  0.00    +0.165 C 
ATOM     24  O   UNL     1       8.867  -1.653  -1.651  0.00  0.00    -0.342 OA
ATOM     25  C   UNL     1      11.000  -1.917  -2.769  0.00  0.00    +0.074 C 
ATOM     26  C   UNL     1      10.789  -2.266  -0.303  0.00  0.00    +0.074 C 
ENDBRANCH  19  20
ENDBRANCH  17  19
ENDBRANCH   5  15
BRANCH   1  27
ATOM     27  C   UNL     1       0.617  -0.919   0.869  0.00  0.00    +0.075 C 
BRANCH  27  29
ATOM     28  C   UNL     1      -0.550   0.951  -0.308  0.00  0.00    +0.004 C 
ATOM     29  C   UNL     1      -0.211  -0.540  -0.361  0.00  0.00    +0.009 C 
ENDBRANCH  27  29
BRANCH  27  30
ATOM     30  C   UNL     1      -0.236  -0.754   2.128  0.00  0.00    +0.009 C 
ATOM     31  C   UNL     1       0.635  -0.972   3.366  0.00  0.00    +0.004 C 
ENDBRANCH  27  30
ENDBRANCH   1  27
TORSDOF 6
