REMARK  Name = ZINC12500087
REMARK  10 active torsions:
REMARK  status: ('A' for Active; 'I' for Inactive)
REMARK    1  A    between atoms: C_1  and  C_2
REMARK    2  A    between atoms: C_3  and  C_26
REMARK    3  A    between atoms: C_5  and  N_10
REMARK    4  A    between atoms: C_6  and  C_7
REMARK    5  A    between atoms: N_10  and  C_11
REMARK    6  A    between atoms: C_11  and  N_13
REMARK    7  A    between atoms: C_14  and  C_16
REMARK    8  A    between atoms: C_17  and  C_18
REMARK    9  A    between atoms: C_21  and  O_24
REMARK   10  A    between atoms: O_24  and  C_25
REMARK                            x       y       z     vdW  Elec       q    Type
REMARK                         _______ _______ _______ _____ _____    ______ ____
ROOT
ATOM      1  C   UNL     1       1.196  -2.010  -0.020  0.00  0.00    +0.141 C 
ATOM      2  S   UNL     1      -0.274  -2.886  -0.011  0.00  0.00    -0.018 S 
ENDROOT
BRANCH   1   3
ATOM      3  N   UNL     1       1.178  -0.662  -0.013  0.00  0.00    -0.264 N 
ATOM      4  C   UNL     1       0.002  -0.004   0.002  0.00  0.00    +0.242 C 
ATOM      5  O   UNL     1      -1.044  -0.627   0.009  0.00  0.00    -0.270 OA
ATOM      6  H   UNL     1       2.012  -0.166  -0.018  0.00  0.00    +0.157 HD
BRANCH   4   7
ATOM      7  C   UNL     1      -0.018   1.457   0.010  0.00  0.00    +0.068 C 
ATOM      8  C   UNL     1      -1.196   2.116   0.019  0.00  0.00    +0.013 C 
BRANCH   8   9
ATOM      9  C   UNL     1      -1.216   3.586   0.027  0.00  0.00    -0.025 A 
ATOM     10  C   UNL     1      -0.015   4.305   0.031  0.00  0.00    +0.011 A 
ATOM     11  C   UNL     1      -0.039   5.681   0.033  0.00  0.00    +0.046 A 
ATOM     12  C   UNL     1      -1.254   6.357   0.042  0.00  0.00    +0.120 A 
ATOM     13  C   UNL     1      -2.450   5.648   0.044  0.00  0.00    +0.046 A 
ATOM     14  C   UNL     1      -2.437   4.272   0.037  0.00  0.00    +0.011 A 
BRANCH  12  15
ATOM     15  O   UNL     1      -1.272   7.715   0.049  0.00  0.00    -0.495 OA
ATOM     16  C   UNL     1      -0.008   8.380   0.046  0.00  0.00    +0.277 C 
ENDBRANCH  12  15
ENDBRANCH   8   9
ENDBRANCH   4   7
ENDBRANCH   1   3
BRANCH   1  17
ATOM     17  N   UNL     1       2.373  -2.667  -0.035  0.00  0.00    -0.291 N 
ATOM     18  H   UNL     1       3.206  -2.171  -0.040  0.00  0.00    +0.154 HD
BRANCH  17  23
ATOM     19  C   UNL     1       4.333  -7.334  -0.078  0.00  0.00    +0.045 C 
ATOM     20  C   UNL     1       3.219  -6.319  -0.062  0.00  0.00    -0.027 A 
ATOM     21  C   UNL     1       1.928  -6.696  -0.051  0.00  0.00    -0.008 A 
ATOM     22  S   UNL     1       1.049  -5.147  -0.028  0.00  0.00    -0.078 S 
ATOM     23  C   UNL     1       2.392  -4.053  -0.043  0.00  0.00    +0.084 A 
ATOM     24  C   UNL     1       3.493  -4.902  -0.058  0.00  0.00    +0.068 A 
ATOM     25  C   UNL     1       1.361  -8.092  -0.051  0.00  0.00    +0.052 C 
BRANCH  24  26
ATOM     26  C   UNL     1       4.863  -4.383  -0.069  0.00  0.00    +0.244 C 
ATOM     27  O   UNL     1       5.443  -4.173   0.980  0.00  0.00    -0.270 OA
ATOM     28  N   UNL     1       5.481  -4.138  -1.242  0.00  0.00    -0.325 N 
ATOM     29  H   UNL     1       5.019  -4.306  -2.078  0.00  0.00    +0.145 HD
ATOM     30  H   UNL     1       6.389  -3.795  -1.249  0.00  0.00    +0.145 HD
ENDBRANCH  24  26
ENDBRANCH  17  23
ENDBRANCH   1  17
TORSDOF 7
