REMARK  Name = ZINC04335765
REMARK  12 active torsions:
REMARK  status: ('A' for Active; 'I' for Inactive)
REMARK    1  A    between atoms: C_1  and  O_2
REMARK    2  A    between atoms: O_2  and  C_3
REMARK    3  A    between atoms: C_6  and  C_11
REMARK    4  A    between atoms: C_8  and  O_9
REMARK    5  A    between atoms: O_9  and  C_10
REMARK    6  A    between atoms: C_11  and  O_13
REMARK    7  A    between atoms: O_13  and  C_14
REMARK    8  A    between atoms: C_19  and  C_20
REMARK    9  A    between atoms: N_21  and  N_22
REMARK   10  A    between atoms: C_23  and  C_25
REMARK   11  A    between atoms: C_25  and  C_27
REMARK   12  A    between atoms: C_25  and  O_33
REMARK                            x       y       z     vdW  Elec       q    Type
REMARK                         _______ _______ _______ _____ _____    ______ ____
ROOT
ATOM      1  C   UNL     1       3.619   3.293   0.078  0.00  0.00    +0.141 A 
ATOM      2  C   UNL     1       4.699   4.140  -0.108  0.00  0.00    +0.048 A 
ATOM      3  C   UNL     1       5.987   3.670   0.063  0.00  0.00    +0.019 A 
ATOM      4  C   UNL     1       6.209   2.352   0.427  0.00  0.00    +0.019 A 
ATOM      5  C   UNL     1       5.144   1.496   0.622  0.00  0.00    +0.028 A 
ATOM      6  C   UNL     1       3.838   1.960   0.452  0.00  0.00    +0.038 A 
ATOM      7 BR   UNL     1       7.977   1.723   0.658  0.00  0.00    -0.050 Br
ENDROOT
BRANCH   6   8
ATOM      8  C   UNL     1       2.696   1.051   0.659  0.00  0.00    +0.142 C 
ATOM      9  N   UNL     1       1.483   1.507   0.586  0.00  0.00    -0.188 NA
BRANCH   9  10
ATOM     10  N   UNL     1       0.400   0.665   0.874  0.00  0.00    -0.205 N 
ATOM     11  C   UNL     1      -0.853   1.162   0.892  0.00  0.00    +0.265 C 
ATOM     12  O   UNL     1      -1.053   2.316   0.575  0.00  0.00    -0.271 OA
ATOM     13  H   UNL     1       0.552  -0.275   1.056  0.00  0.00    +0.177 HD
BRANCH  11  14
ATOM     14  C   UNL     1      -2.005   0.284   1.308  0.00  0.00    +0.232 C 
BRANCH  14  15
ATOM     15  C   UNL     1      -2.172  -0.831   0.308  0.00  0.00    -0.010 A 
ATOM     16  C   UNL     1      -2.832  -0.598  -0.884  0.00  0.00    +0.006 A 
ATOM     17  C   UNL     1      -2.982  -1.619  -1.803  0.00  0.00    +0.000 A 
ATOM     18  C   UNL     1      -2.480  -2.877  -1.526  0.00  0.00    +0.000 A 
ATOM     19  C   UNL     1      -1.825  -3.112  -0.332  0.00  0.00    +0.000 A 
ATOM     20  C   UNL     1      -1.671  -2.089   0.586  0.00  0.00    +0.006 A 
ENDBRANCH  14  15
BRANCH  14  21
ATOM     21  O   UNL     1      -3.203   1.062   1.358  0.00  0.00    -0.378 OA
ATOM     22  H   UNL     1      -3.443   1.469   0.514  0.00  0.00    +0.211 HD
ENDBRANCH  14  21
ENDBRANCH  11  14
ENDBRANCH   9  10
ENDBRANCH   6   8
BRANCH   1  23
ATOM     23  O   UNL     1       2.353   3.753  -0.096  0.00  0.00    -0.422 OA
BRANCH  23  24
ATOM     24  C   UNL     1       1.719   4.226   0.995  0.00  0.00    +0.345 C 
ATOM     25  O   UNL     1       2.242   4.137   2.088  0.00  0.00    -0.245 OA
BRANCH  24  29
ATOM     26  C   UNL     1      -2.110   6.026   0.607  0.00  0.00    +0.162 A 
ATOM     27  C   UNL     1      -1.453   5.542  -0.516  0.00  0.00    +0.050 A 
ATOM     28  C   UNL     1      -0.209   4.963  -0.395  0.00  0.00    +0.019 A 
ATOM     29  C   UNL     1       0.390   4.851   0.863  0.00  0.00    +0.063 A 
ATOM     30  C   UNL     1      -0.271   5.339   1.994  0.00  0.00    +0.064 A 
ATOM     31  C   UNL     1      -1.515   5.924   1.864  0.00  0.00    +0.162 A 
BRANCH  26  33
ATOM     32  C   UNL     1      -3.884   6.673  -0.835  0.00  0.00    +0.277 C 
ATOM     33  O   UNL     1      -3.333   6.601   0.481  0.00  0.00    -0.491 OA
ENDBRANCH  26  33
BRANCH  31  34
ATOM     34  O   UNL     1      -2.161   6.400   2.962  0.00  0.00    -0.491 OA
ATOM     35  C   UNL     1      -1.493   6.262   4.218  0.00  0.00    +0.277 C 
ENDBRANCH  31  34
ENDBRANCH  24  29
ENDBRANCH  23  24
ENDBRANCH   1  23
TORSDOF 10
