REMARK  Name = ZINC37291238
REMARK  3 active torsions:
REMARK  status: ('A' for Active; 'I' for Inactive)
REMARK    1  A    between atoms: C_3  and  N_9
REMARK    2  A    between atoms: C_10  and  N_20
REMARK    3  A    between atoms: C_12  and  C_14
REMARK                            x       y       z     vdW  Elec       q    Type
REMARK                         _______ _______ _______ _____ _____    ______ ____
ROOT
ATOM      1  N   UNL     1       3.585   2.132  -0.002  0.00  0.00    -0.215 N 
ATOM      2  C   UNL     1       4.836   1.597   0.054  0.00  0.00    +0.121 A 
ATOM      3  C   UNL     1       5.727   2.620  -0.004  0.00  0.00    +0.076 A 
ATOM      4  C   UNL     1       4.997   3.822  -0.100  0.00  0.00    +0.130 A 
ATOM      5  N   UNL     1       3.713   3.523  -0.103  0.00  0.00    -0.161 NA
ENDROOT
BRANCH   1   8
ATOM      6  C   UNL     1       0.994  -0.273   1.016  0.00  0.00    +0.040 A 
ATOM      7  C   UNL     1       2.182   0.431   0.987  0.00  0.00    +0.033 A 
ATOM      8  C   UNL     1       2.380   1.416   0.029  0.00  0.00    +0.103 A 
ATOM      9  C   UNL     1       1.381   1.692  -0.898  0.00  0.00    +0.151 A 
ATOM     10  C   UNL     1       0.194   0.984  -0.864  0.00  0.00    +0.078 A 
ATOM     11  C   UNL     1      -0.000   0.002   0.092  0.00  0.00    +0.126 A 
ATOM     12  F   UNL     1      -1.161  -0.689   0.124  0.00  0.00    -0.205 F 
ATOM     13  F   UNL     1       1.571   2.651  -1.831  0.00  0.00    -0.203 F 
ENDBRANCH   1   8
BRANCH   4  14
ATOM     14  C   UNL     1       5.572   5.181  -0.186  0.00  0.00    +0.156 A 
ATOM     15  C   UNL     1       4.867   6.341  -0.273  0.00  0.00    +0.052 A 
ATOM     16  C   UNL     1       5.811   7.386  -0.334  0.00  0.00    +0.057 A 
ATOM     17  C   UNL     1       7.033   6.818  -0.283  0.00  0.00    +0.171 A 
ATOM     18  O   UNL     1       6.884   5.487  -0.187  0.00  0.00    -0.447 OA
ATOM     19 BR   UNL     1       8.682   7.743  -0.330  0.00  0.00    -0.008 Br
ENDBRANCH   4  14
BRANCH   2  20
ATOM     20  N   UNL     1       5.145   0.243   0.155  0.00  0.00    -0.343 N 
ATOM     21  H   UNL     1       4.440  -0.421   0.103  0.00  0.00    +0.144 HD
ATOM     22  H   UNL     1       6.066  -0.036   0.277  0.00  0.00    +0.144 HD
ENDBRANCH   2  20
TORSDOF 3
