REMARK  Name = ZINC01247512
REMARK  9 active torsions:
REMARK  status: ('A' for Active; 'I' for Inactive)
REMARK    1  A    between atoms: C_1  and  O_2
REMARK    2  A    between atoms: O_2  and  C_3
REMARK    3  A    between atoms: C_3  and  C_5
REMARK    4  A    between atoms: C_5  and  C_6
REMARK    5  A    between atoms: C_7  and  C_25
REMARK    6  A    between atoms: C_19  and  C_23
REMARK    7  A    between atoms: C_20  and  N_22
REMARK    8  A    between atoms: C_25  and  O_27
REMARK    9  A    between atoms: O_27  and  C_28
REMARK                            x       y       z     vdW  Elec       q    Type
REMARK                         _______ _______ _______ _____ _____    ______ ____
ROOT
ATOM      1  C   UNL     1       0.179  -3.781   1.123  0.00  0.00    +0.130 C 
ATOM      2  C   UNL     1       0.955  -2.693   1.228  0.00  0.00    +0.100 C 
ATOM      3  C   UNL     1       1.256  -1.847   0.025  0.00  0.00    +0.148 C 
ATOM      4  C   UNL     1       0.484  -0.552   0.083  0.00  0.00    -0.000 A 
ATOM      5  C   UNL     1      -0.861  -0.261   0.105  0.00  0.00    +0.022 A 
ATOM      6  C   UNL     1      -1.282   1.057   0.162  0.00  0.00    +0.018 A 
ATOM      7  C   UNL     1      -0.346   2.077   0.197  0.00  0.00    +0.017 A 
ATOM      8  C   UNL     1       1.002   1.787   0.176  0.00  0.00    +0.025 A 
ATOM      9  C   UNL     1       1.433   0.463   0.117  0.00  0.00    +0.038 A 
ATOM     10  N   UNL     1       2.720  -0.077   0.085  0.00  0.00    -0.284 N 
ATOM     11  C   UNL     1       2.705  -1.421   0.029  0.00  0.00    +0.238 C 
ATOM     12  O   UNL     1       3.672  -2.152  -0.010  0.00  0.00    -0.274 OA
ATOM     13 BR   UNL     1      -3.128   1.464   0.183  0.00  0.00    -0.050 Br
ATOM     14  C   UNL     1       0.933  -2.594  -1.237  0.00  0.00    +0.110 C 
ATOM     15  C   UNL     1       0.150  -3.701  -1.197  0.00  0.00    +0.199 C 
ATOM     16  O   UNL     1      -0.362  -4.163  -0.043  0.00  0.00    -0.444 OA
ATOM     17  H   UNL     1       3.531   0.455   0.100  0.00  0.00    +0.155 HD
ENDROOT
BRANCH  15  18
ATOM     18  N   UNL     1      -0.127  -4.367  -2.365  0.00  0.00    -0.328 N 
ATOM     19  H   UNL     1       0.236  -4.045  -3.205  0.00  0.00    +0.145 HD
ATOM     20  H   UNL     1      -0.685  -5.160  -2.350  0.00  0.00    +0.145 HD
ENDBRANCH  15  18
BRANCH  14  21
ATOM     21  C   UNL     1       1.454  -2.136  -2.490  0.00  0.00    +0.102 C 
ATOM     22  N   UNL     1       1.867  -1.772  -3.483  0.00  0.00    -0.191 NA
ENDBRANCH  14  21
BRANCH   2  23
ATOM     23  C   UNL     1       1.497  -2.337   2.487  0.00  0.00    +0.340 C 
ATOM     24  O   UNL     1       1.159  -2.942   3.487  0.00  0.00    -0.245 OA
BRANCH  23  25
ATOM     25  O   UNL     1       2.389  -1.329   2.577  0.00  0.00    -0.465 OA
ATOM     26  C   UNL     1       2.895  -1.025   3.879  0.00  0.00    +0.280 C 
ENDBRANCH  23  25
ENDBRANCH   2  23
BRANCH   1  27
ATOM     27  C   UNL     1      -0.095  -4.601   2.357  0.00  0.00    +0.195 C 
BRANCH  27  28
ATOM     28  C   UNL     1      -1.216  -3.970   3.142  0.00  0.00    +0.314 C 
ATOM     29  O   UNL     1      -1.739  -2.957   2.741  0.00  0.00    -0.250 OA
BRANCH  28  31
ATOM     30  C   UNL     1      -2.717  -3.870   4.990  0.00  0.00    +0.280 C 
ATOM     31  O   UNL     1      -1.633  -4.533   4.287  0.00  0.00    -0.468 OA
ENDBRANCH  28  31
ENDBRANCH  27  28
ENDBRANCH   1  27
TORSDOF 7
