REMARK  Name = ZINC08699027
REMARK  3 active torsions:
REMARK  status: ('A' for Active; 'I' for Inactive)
REMARK    1  A    between atoms: C_5  and  C_7
REMARK    2  A    between atoms: C_7  and  C_9
REMARK    3  A    between atoms: C_7  and  N_30
REMARK                            x       y       z     vdW  Elec       q    Type
REMARK                         _______ _______ _______ _____ _____    ______ ____
ROOT
ATOM      1  C   UNL     1      -0.013   1.086   0.008  0.00  0.00    +0.079 C 
ENDROOT
BRANCH   1   6
ATOM      2  C   UNL     1      -2.784   3.590  -0.545  0.00  0.00    +0.000 A 
ATOM      3  C   UNL     1      -3.213   3.251  -1.815  0.00  0.00    +0.001 A 
ATOM      4  C   UNL     1      -2.607   2.212  -2.496  0.00  0.00    +0.020 A 
ATOM      5  C   UNL     1      -1.571   1.510  -1.906  0.00  0.00    +0.043 A 
ATOM      6  C   UNL     1      -1.141   1.850  -0.635  0.00  0.00    -0.032 A 
ATOM      7  C   UNL     1      -1.752   2.886   0.046  0.00  0.00    +0.004 A 
ATOM      8 CL   UNL     1      -0.809   0.204  -2.760  0.00  0.00    -0.083 Cl
ENDBRANCH   1   6
BRANCH   1  14
ATOM      9  C   UNL     1       1.011   0.542   2.135  0.00  0.00    -0.049 C 
ATOM     10  C   UNL     1       0.850   0.673   3.651  0.00  0.00    +0.141 C 
ATOM     11  O   UNL     1      -0.377   0.055   4.050  0.00  0.00    -0.383 OA
ATOM     12  C   UNL     1      -1.534   0.613   3.421  0.00  0.00    +0.141 C 
ATOM     13  C   UNL     1      -1.396   0.482   1.902  0.00  0.00    -0.049 C 
ATOM     14  N   UNL     1      -0.157   1.166   1.478  0.00  0.00    +0.394 N 
ATOM     15  H   UNL     1      -0.208   2.153   1.755  0.00  0.00    -0.080 HD
ENDBRANCH   1  14
BRANCH   1  16
ATOM     16  C   UNL     1       1.303   1.702  -0.392  0.00  0.00    +0.347 C 
ATOM     17  O   UNL     1       1.789   2.579   0.283  0.00  0.00    -0.248 OA
ATOM     18  O   UNL     1       1.935   1.277  -1.497  0.00  0.00    -0.248 OA
ENDBRANCH   1  16
TORSDOF 3
