REMARK  Name = ZINC65917056
REMARK  6 active torsions:
REMARK  status: ('A' for Active; 'I' for Inactive)
REMARK    1  A    between atoms: C_4  and  C_7
REMARK    2  A    between atoms: C_7  and  N_8
REMARK    3  A    between atoms: C_11  and  N_14
REMARK    4  A    between atoms: C_15  and  C_17
REMARK    5  A    between atoms: C_17  and  C_18
REMARK    6  A    between atoms: C_18  and  C_19
REMARK                            x       y       z     vdW  Elec       q    Type
REMARK                         _______ _______ _______ _____ _____    ______ ____
ROOT
ATOM      1  N   UNL     1       3.279  -6.047  -3.199  0.00  0.00    -0.313 N 
ATOM      2  C   UNL     1       3.645  -6.829  -4.234  0.00  0.00    +0.213 C 
ATOM      3  O   UNL     1       3.741  -6.357  -5.347  0.00  0.00    -0.276 OA
ATOM      4  H   UNL     1       3.201  -6.424  -2.309  0.00  0.00    +0.149 HD
ENDROOT
BRANCH   1   8
ATOM      5  N   UNL     1       3.102  -1.908  -2.422  0.00  0.00    +0.380 N 
ATOM      6  C   UNL     1       1.820  -2.616  -2.519  0.00  0.00    -0.077 C 
ATOM      7  C   UNL     1       2.047  -4.118  -2.330  0.00  0.00    +0.003 C 
ATOM      8  C   UNL     1       2.997  -4.626  -3.419  0.00  0.00    +0.069 C 
ATOM      9  C   UNL     1       4.303  -3.829  -3.356  0.00  0.00    +0.003 C 
ATOM     10  C   UNL     1       3.992  -2.338  -3.507  0.00  0.00    -0.077 C 
ATOM     11  H   UNL     1       3.532  -2.115  -1.533  0.00  0.00    -0.082 HD
BRANCH   5  12
ATOM     12  C   UNL     1       2.870  -0.461  -2.526  0.00  0.00    -0.075 C 
BRANCH  12  16
ATOM     13  C   UNL     1       1.752   1.793   0.994  0.00  0.00    +0.000 C 
ATOM     14  C   UNL     1       2.109   0.315   1.167  0.00  0.00    +0.000 C 
ATOM     15  C   UNL     1       2.909  -0.162  -0.046  0.00  0.00    +0.002 C 
ATOM     16  C   UNL     1       2.069   0.015  -1.313  0.00  0.00    -0.028 C 
ATOM     17  C   UNL     1       1.712   1.493  -1.486  0.00  0.00    +0.002 C 
ATOM     18  C   UNL     1       0.912   1.970  -0.272  0.00  0.00    +0.000 C 
ENDBRANCH  12  16
ENDBRANCH   5  12
ENDBRANCH   1   8
BRANCH   2  19
ATOM     19  C   UNL     1       3.935  -8.290  -4.008  0.00  0.00    +0.098 C 
BRANCH  19  20
ATOM     20  C   UNL     1       4.325  -8.944  -5.335  0.00  0.00    +0.041 C 
BRANCH  20  21
ATOM     21  C   UNL     1       4.620 -10.428  -5.105  0.00  0.00    +0.161 C 
ATOM     22  C   UNL     1       5.030 -11.097  -6.402  0.00  0.00    +0.241 C 
ATOM     23  O   UNL     1       4.368 -11.205  -7.412  0.00  0.00    -0.273 OA
ATOM     24  N   UNL     1       6.284 -11.547  -6.199  0.00  0.00    -0.239 N 
ATOM     25  C   UNL     1       6.718 -11.259  -4.967  0.00  0.00    +0.307 C 
ATOM     26  O   UNL     1       7.819 -11.563  -4.550  0.00  0.00    -0.252 OA
ATOM     27  N   UNL     1       5.801 -10.594  -4.241  0.00  0.00    -0.288 N 
ATOM     28  H   UNL     1       6.806 -12.023  -6.864  0.00  0.00    +0.159 HD
ATOM     29  H   UNL     1       5.899 -10.285  -3.327  0.00  0.00    +0.151 HD
ENDBRANCH  20  21
ENDBRANCH  19  20
ENDBRANCH   2  19
TORSDOF 6
