REMARK  Name = ZINC09251046
REMARK  7 active torsions:
REMARK  status: ('A' for Active; 'I' for Inactive)
REMARK    1  A    between atoms: C_1  and  C_2
REMARK    2  A    between atoms: C_4  and  O_10
REMARK    3  A    between atoms: C_6  and  C_9
REMARK    4  A    between atoms: O_10  and  C_11
REMARK    5  A    between atoms: C_11  and  C_12
REMARK    6  A    between atoms: N_14  and  C_15
REMARK    7  A    between atoms: C_18  and  C_21
REMARK                            x       y       z     vdW  Elec       q    Type
REMARK                         _______ _______ _______ _____ _____    ______ ____
ROOT
ATOM      1  C   UNL     1      -4.796   0.885   0.200  0.00  0.00    +0.255 C 
ATOM      2  O   UNL     1      -4.641  -0.309   0.349  0.00  0.00    -0.272 OA
ATOM      3  N   UNL     1      -6.035   1.389   0.038  0.00  0.00    -0.283 N 
ATOM      4  H   UNL     1      -6.166   2.349  -0.005  0.00  0.00    +0.155 HD
ENDROOT
BRANCH   3   5
ATOM      5  C   UNL     1      -7.130   0.530  -0.067  0.00  0.00    +0.034 A 
ATOM      6  C   UNL     1      -6.985  -0.707  -0.687  0.00  0.00    +0.024 A 
ATOM      7  C   UNL     1      -8.062  -1.559  -0.787  0.00  0.00    +0.015 A 
ATOM      8  C   UNL     1      -9.304  -1.176  -0.275  0.00  0.00    +0.037 A 
ATOM      9  C   UNL     1      -9.448   0.069   0.343  0.00  0.00    +0.015 A 
ATOM     10  C   UNL     1      -8.365   0.914   0.444  0.00  0.00    +0.024 A 
BRANCH   8  11
ATOM     11  C   UNL     1     -10.463  -2.086  -0.385  0.00  0.00    +0.228 A 
ATOM     12  N   UNL     1     -10.437  -3.270  -0.942  0.00  0.00    -0.209 NA
ATOM     13  C   UNL     1     -11.677  -3.818  -0.861  0.00  0.00    +0.110 A 
ATOM     14  C   UNL     1     -12.223  -5.034  -1.278  0.00  0.00    +0.031 A 
ATOM     15  C   UNL     1     -13.553  -5.302  -1.042  0.00  0.00    +0.002 A 
ATOM     16  C   UNL     1     -14.353  -4.372  -0.394  0.00  0.00    +0.004 A 
ATOM     17  C   UNL     1     -13.827  -3.166   0.023  0.00  0.00    +0.048 A 
ATOM     18  C   UNL     1     -12.490  -2.879  -0.205  0.00  0.00    +0.156 A 
ATOM     19  O   UNL     1     -11.699  -1.821   0.079  0.00  0.00    -0.435 OA
ENDBRANCH   8  11
ENDBRANCH   3   5
BRANCH   1  20
ATOM     20  C   UNL     1      -3.601   1.804   0.194  0.00  0.00    +0.324 C 
BRANCH  20  21
ATOM     21  O   UNL     1      -2.410   1.038   0.381  0.00  0.00    -0.483 OA
BRANCH  21  25
ATOM     22  C   UNL     1       2.455   0.993   0.779  0.00  0.00    +0.045 C 
ATOM     23  C   UNL     1       1.155   1.733   0.593  0.00  0.00    -0.028 A 
ATOM     24  C   UNL     1      -0.039   1.038   0.579  0.00  0.00    +0.050 A 
ATOM     25  C   UNL     1      -1.234   1.720   0.401  0.00  0.00    +0.122 A 
ATOM     26  C   UNL     1      -1.229   3.099   0.249  0.00  0.00    +0.050 A 
ATOM     27  C   UNL     1      -0.032   3.789   0.264  0.00  0.00    -0.028 A 
ATOM     28  C   UNL     1       1.159   3.107   0.435  0.00  0.00    +0.047 A 
ATOM     29 CL   UNL     1       2.661   3.978   0.453  0.00  0.00    -0.083 Cl
ATOM     30  C   UNL     1      -0.025   5.287   0.093  0.00  0.00    +0.045 C 
ENDBRANCH  21  25
ENDBRANCH  20  21
ENDBRANCH   1  20
TORSDOF 5
