REMARK  Name = ZINC54419520
REMARK  5 active torsions:
REMARK  status: ('A' for Active; 'I' for Inactive)
REMARK    1  A    between atoms: C_1  and  N_2
REMARK    2  A    between atoms: N_2  and  C_3
REMARK    3  A    between atoms: C_3  and  C_4
REMARK    4  A    between atoms: C_4  and  N_5
REMARK    5  A    between atoms: C_11  and  N_16
REMARK                            x       y       z     vdW  Elec       q    Type
REMARK                         _______ _______ _______ _____ _____    ______ ____
ROOT
ATOM      1  C   UNL     1      -0.018   1.461   0.010  0.00  0.00    +0.130 C 
ATOM      2  N   UNL     1       0.002  -0.004   0.002  0.00  0.00    -0.320 N 
ATOM      3  C   UNL     1       0.000  -0.691  -1.203  0.00  0.00    +0.122 A 
ATOM      4  C   UNL     1       0.091   0.030  -2.402  0.00  0.00    +0.044 A 
ATOM      5  C   UNL     1       0.090  -0.631  -3.593  0.00  0.00    +0.013 A 
ATOM      6  C   UNL     1      -0.004  -2.038  -3.576  0.00  0.00    +0.003 A 
ATOM      7  C   UNL     1      -0.009  -2.782  -4.766  0.00  0.00    +0.042 A 
ATOM      8  C   UNL     1      -0.101  -4.140  -4.712  0.00  0.00    +0.127 A 
ATOM      9  C   UNL     1      -0.190  -4.801  -3.489  0.00  0.00    +0.035 A 
ATOM     10  C   UNL     1      -0.187  -4.110  -2.316  0.00  0.00    +0.030 A 
ATOM     11  C   UNL     1      -0.093  -2.708  -2.332  0.00  0.00    +0.073 A 
ATOM     12  N   UNL     1      -0.082  -2.006  -1.194  0.00  0.00    -0.232 NA
ENDROOT
BRANCH   8  13
ATOM     13  N   UNL     1      -0.107  -4.922  -5.968  0.00  0.00    +0.056 N 
ATOM     14  O   UNL     1      -0.031  -4.356  -7.034  0.00  0.00    -0.126 OA
ATOM     15  O   UNL     1      -0.188  -6.128  -5.929  0.00  0.00    -0.126 OA
ENDBRANCH   8  13
BRANCH   2  16
ATOM     16  C   UNL     1       0.024  -0.743   1.267  0.00  0.00    +0.087 C 
BRANCH  16  17
ATOM     17  C   UNL     1      -1.411  -1.020   1.720  0.00  0.00    -0.067 C 
BRANCH  17  18
ATOM     18  N   UNL     1      -1.388  -1.762   2.989  0.00  0.00    +0.379 N 
ATOM     19  H   UNL     1      -0.902  -2.636   2.859  0.00  0.00    -0.090 HD
ATOM     20  H   UNL     1      -0.913  -1.214   3.690  0.00  0.00    -0.090 HD
ATOM     21  H   UNL     1      -2.334  -1.944   3.288  0.00  0.00    -0.090 HD
ENDBRANCH  17  18
ENDBRANCH  16  17
ENDBRANCH   2  16
TORSDOF 4
