REMARK  Name = ZINC38979487
REMARK  6 active torsions:
REMARK  status: ('A' for Active; 'I' for Inactive)
REMARK    1  A    between atoms: C_2  and  C_3
REMARK    2  A    between atoms: C_3  and  C_4
REMARK    3  A    between atoms: C_8  and  C_11
REMARK    4  A    between atoms: C_9  and  O_10
REMARK    5  A    between atoms: N_12  and  N_13
REMARK    6  A    between atoms: C_14  and  C_20
REMARK                            x       y       z     vdW  Elec       q    Type
REMARK                         _______ _______ _______ _____ _____    ______ ____
ROOT
ATOM      1  N   UNL     1      -0.741  -6.884   0.709  0.00  0.00    -0.172 N 
ATOM      2  C   UNL     1      -1.302  -7.507  -0.503  0.00  0.00    +0.265 C 
ATOM      3  N   UNL     1      -1.610  -8.883  -0.082  0.00  0.00    -0.189 NA
ATOM      4  N   UNL     1      -1.290  -9.001   1.103  0.00  0.00    -0.219 N 
ATOM      5  C   UNL     1      -0.765  -7.866   1.637  0.00  0.00    +0.174 C 
ATOM      6  S   UNL     1      -0.217  -7.703   3.251  0.00  0.00    -0.015 S 
ATOM      7  H   UNL     1      -1.399  -9.824   1.605  0.00  0.00    +0.176 HD
ENDROOT
BRANCH   2   8
ATOM      8  C   UNL     1      -2.556  -6.790  -0.934  0.00  0.00    +0.016 A 
ATOM      9  C   UNL     1      -2.748  -5.466  -0.588  0.00  0.00    +0.009 A 
ATOM     10  C   UNL     1      -3.898  -4.808  -0.984  0.00  0.00    +0.000 A 
ATOM     11  C   UNL     1      -4.856  -5.474  -1.725  0.00  0.00    +0.001 A 
ATOM     12  C   UNL     1      -4.665  -6.798  -2.072  0.00  0.00    +0.020 A 
ATOM     13  C   UNL     1      -3.512  -7.456  -1.681  0.00  0.00    +0.048 A 
ATOM     14 CL   UNL     1      -3.268  -9.117  -2.121  0.00  0.00    -0.083 Cl
ENDBRANCH   2   8
BRANCH   1  16
ATOM     15  C   UNL     1       0.090  -5.144   2.033  0.00  0.00    +0.142 C 
ATOM     16  N   UNL     1      -0.280  -5.570   0.863  0.00  0.00    -0.183 NA
BRANCH  15  21
ATOM     17  C   UNL     1       1.360  -1.703   1.204  0.00  0.00    -0.002 A 
ATOM     18  C   UNL     1       1.750  -1.258   2.453  0.00  0.00    +0.007 A 
ATOM     19  C   UNL     1       1.604  -2.071   3.564  0.00  0.00    +0.001 A 
ATOM     20  C   UNL     1       1.065  -3.334   3.435  0.00  0.00    +0.013 A 
ATOM     21  C   UNL     1       0.666  -3.796   2.179  0.00  0.00    +0.036 A 
ATOM     22  C   UNL     1       0.812  -2.967   1.057  0.00  0.00    +0.129 A 
BRANCH  22  23
ATOM     23  O   UNL     1       0.423  -3.403  -0.169  0.00  0.00    -0.506 OA
ATOM     24  H   UNL     1       1.117  -3.863  -0.661  0.00  0.00    +0.292 HD
ENDBRANCH  22  23
BRANCH  17  25
ATOM     25  C   UNL     1       1.524  -0.810   0.001  0.00  0.00    +0.065 C 
BRANCH  25  27
ATOM     26  C   UNL     1       0.241   1.242  -0.322  0.00  0.00    +0.004 C 
ATOM     27  C   UNL     1       0.238  -0.066  -0.252  0.00  0.00    -0.030 C 
ENDBRANCH  25  27
ENDBRANCH  17  25
ENDBRANCH  15  21
ENDBRANCH   1  16
TORSDOF 6
