REMARK  Name = ZINC61672527
REMARK  4 active torsions:
REMARK  status: ('A' for Active; 'I' for Inactive)
REMARK    1  A    between atoms: C_1  and  N_2
REMARK    2  A    between atoms: C_3  and  N_20
REMARK    3  A    between atoms: C_4  and  C_13
REMARK    4  A    between atoms: C_5  and  C_7
REMARK                            x       y       z     vdW  Elec       q    Type
REMARK                         _______ _______ _______ _____ _____    ______ ____
ROOT
ATOM      1  C   UNL     1      -0.018   1.461   0.010  0.00  0.00    +0.172 C 
ATOM      2  N   UNL     1       0.002  -0.004   0.002  0.00  0.00    -0.276 N 
ATOM      3  C   UNL     1       0.008  -0.790  -1.098  0.00  0.00    +0.120 A 
ATOM      4  C   UNL     1       0.028  -2.104  -0.663  0.00  0.00    +0.042 A 
ATOM      5  C   UNL     1       0.034  -2.077   0.745  0.00  0.00    +0.047 A 
ATOM      6  N   UNL     1       0.025  -0.830   1.132  0.00  0.00    -0.299 N 
ATOM      7  H   UNL     1       0.029  -0.525   2.053  0.00  0.00    +0.187 HD
ENDROOT
BRANCH   4   8
ATOM      8  C   UNL     1       0.040  -3.314  -1.520  0.00  0.00    -0.013 A 
ATOM      9  C   UNL     1      -1.043  -4.191  -1.508  0.00  0.00    +0.010 A 
ATOM     10  C   UNL     1      -1.027  -5.315  -2.308  0.00  0.00    +0.016 A 
ATOM     11  C   UNL     1       0.063  -5.573  -3.121  0.00  0.00    +0.018 A 
ATOM     12  C   UNL     1       1.142  -4.705  -3.137  0.00  0.00    +0.016 A 
ATOM     13  C   UNL     1       1.133  -3.575  -2.345  0.00  0.00    +0.010 A 
ATOM     14 BR   UNL     1       0.079  -7.115  -4.215  0.00  0.00    -0.050 Br
ENDBRANCH   4   8
BRANCH   5  15
ATOM     15  C   UNL     1       0.055  -3.282   1.651  0.00  0.00    +0.042 C 
ATOM     16  C   UNL     1      -1.186  -3.269   2.549  0.00  0.00    +0.038 C 
ATOM     17  C   UNL     1      -1.117  -4.452   3.518  0.00  0.00    +0.160 C 
ATOM     18  O   UNL     1       0.088  -4.370   4.283  0.00  0.00    -0.380 OA
ATOM     19  C   UNL     1       1.282  -4.425   3.499  0.00  0.00    +0.160 C 
ATOM     20  C   UNL     1       1.309  -3.241   2.530  0.00  0.00    +0.038 C 
ENDBRANCH   5  15
BRANCH   3  21
ATOM     21  N   UNL     1      -0.005  -0.359  -2.418  0.00  0.00    -0.343 N 
ATOM     22  H   UNL     1      -0.019   0.590  -2.618  0.00  0.00    +0.144 HD
ATOM     23  H   UNL     1       0.000  -1.008  -3.139  0.00  0.00    +0.144 HD
ENDBRANCH   3  21
TORSDOF 3
