REMARK  Name = ZINC67242958
REMARK  6 active torsions:
REMARK  status: ('A' for Active; 'I' for Inactive)
REMARK    1  A    between atoms: C_1  and  C_2
REMARK    2  A    between atoms: C_2  and  N_3
REMARK    3  A    between atoms: C_4  and  C_6
REMARK    4  A    between atoms: C_6  and  N_7
REMARK    5  A    between atoms: C_13  and  C_15
REMARK    6  A    between atoms: N_20  and  C_22
REMARK                            x       y       z     vdW  Elec       q    Type
REMARK                         _______ _______ _______ _____ _____    ______ ____
ROOT
ATOM      1  N   UNL     1      -2.994  -3.826   0.010  0.00  0.00    -0.261 N 
ATOM      2  C   UNL     1      -3.606  -4.632   0.903  0.00  0.00    +0.111 A 
ATOM      3  C   UNL     1      -3.350  -5.912   0.550  0.00  0.00    +0.065 A 
ATOM      4  C   UNL     1      -2.550  -5.889  -0.604  0.00  0.00    +0.147 A 
ATOM      5  N   UNL     1      -2.342  -4.635  -0.929  0.00  0.00    -0.156 NA
ATOM      6  N   UNL     1      -2.063  -7.009  -1.291  0.00  0.00    -0.269 N 
ATOM      7  C   UNL     1      -2.356  -8.249  -0.851  0.00  0.00    +0.223 C 
ATOM      8  O   UNL     1      -3.041  -8.395   0.139  0.00  0.00    -0.275 OA
ATOM      9  H   UNL     1      -1.516  -6.893  -2.083  0.00  0.00    +0.156 HD
ENDROOT
BRANCH   7  10
ATOM     10  C   UNL     1      -1.833  -9.454  -1.590  0.00  0.00    +0.101 C 
ATOM     11  C   UNL     1      -2.431  -9.533  -3.013  0.00  0.00    +0.110 C 
ATOM     12  C   UNL     1      -2.639 -11.013  -3.247  0.00  0.00    +0.217 C 
ATOM     13  O   UNL     1      -2.826 -11.526  -4.330  0.00  0.00    -0.276 OA
ATOM     14  N   UNL     1      -2.587 -11.677  -2.079  0.00  0.00    -0.298 N 
ATOM     15  C   UNL     1      -2.355 -10.762  -0.955  0.00  0.00    +0.121 C 
BRANCH  14  16
ATOM     16  C   UNL     1      -2.741 -13.128  -1.945  0.00  0.00    +0.076 C 
ATOM     17  C   UNL     1      -1.589 -13.824  -2.699  0.00  0.00    +0.022 C 
ATOM     18  C   UNL     1      -1.441 -15.221  -2.161  0.00  0.00    +0.002 C 
ATOM     19  C   UNL     1      -2.226 -16.258  -2.986  0.00  0.00    +0.000 C 
ATOM     20  C   UNL     1      -3.623 -15.757  -3.400  0.00  0.00    +0.000 C 
ATOM     21  C   UNL     1      -4.324 -15.021  -2.290  0.00  0.00    +0.002 C 
ATOM     22  C   UNL     1      -4.049 -13.512  -2.454  0.00  0.00    +0.022 C 
ENDBRANCH  14  16
ENDBRANCH   7  10
BRANCH   1  23
ATOM     23  C   UNL     1      -3.014  -2.361   0.018  0.00  0.00    +0.239 C 
BRANCH  23  25
ATOM     24  N   UNL     1      -1.372  -0.511   0.012  0.00  0.00    -0.314 N 
ATOM     25  C   UNL     1      -1.601  -1.839   0.007  0.00  0.00    +0.234 C 
ATOM     26  O   UNL     1      -0.668  -2.615  -0.006  0.00  0.00    -0.274 OA
ATOM     27  H   UNL     1      -2.118   0.109   0.023  0.00  0.00    +0.149 HD
BRANCH  24  29
ATOM     28  C   UNL     1      -0.019   1.526   0.010  0.00  0.00    +0.024 C 
ATOM     29  C   UNL     1       0.002  -0.004   0.002  0.00  0.00    +0.101 C 
ENDBRANCH  24  29
ENDBRANCH  23  25
ENDBRANCH   1  23
TORSDOF 5
