REMARK  Name = ZINC12704095
REMARK  9 active torsions:
REMARK  status: ('A' for Active; 'I' for Inactive)
REMARK    1  A    between atoms: C_1  and  C_2
REMARK    2  A    between atoms: C_5  and  C_7
REMARK    3  A    between atoms: C_7  and  C_9
REMARK    4  A    between atoms: C_7  and  N_17
REMARK    5  A    between atoms: N_11  and  C_12
REMARK    6  A    between atoms: N_17  and  C_18
REMARK    7  A    between atoms: C_28  and  C_30
REMARK    8  A    between atoms: C_31  and  N_38
REMARK    9  A    between atoms: C_32  and  C_35
REMARK                            x       y       z     vdW  Elec       q    Type
REMARK                         _______ _______ _______ _____ _____    ______ ____
ROOT
ATOM      1  N   UNL     1      -3.313  -0.094   4.070  0.00  0.00    -0.247 N 
ATOM      2  C   UNL     1      -4.644  -0.062   4.276  0.00  0.00    +0.262 C 
ATOM      3  O   UNL     1      -5.165   0.937   4.737  0.00  0.00    -0.269 OA
ENDROOT
BRANCH   1   4
ATOM      4  C   UNL     1      -2.716  -1.239   3.541  0.00  0.00    +0.046 A 
ATOM      5  C   UNL     1      -2.258  -2.234   4.379  0.00  0.00    +0.024 A 
ATOM      6  C   UNL     1      -1.661  -3.380   3.862  0.00  0.00    +0.002 A 
ATOM      7  C   UNL     1      -1.512  -3.550   2.519  0.00  0.00    +0.008 A 
ATOM      8  C   UNL     1      -1.966  -2.560   1.631  0.00  0.00    -0.016 A 
ATOM      9  C   UNL     1      -2.580  -1.391   2.145  0.00  0.00    +0.004 A 
ATOM     10  C   UNL     1      -3.027  -0.400   1.257  0.00  0.00    +0.010 A 
ATOM     11  C   UNL     1      -2.874  -0.578  -0.084  0.00  0.00    +0.001 A 
ATOM     12  C   UNL     1      -2.275  -1.730  -0.591  0.00  0.00    +0.001 A 
ATOM     13  C   UNL     1      -1.825  -2.709   0.240  0.00  0.00    +0.008 A 
ENDBRANCH   1   4
BRANCH   2  14
ATOM     14  C   UNL     1      -5.464  -1.229   3.945  0.00  0.00    +0.116 A 
ATOM     15  C   UNL     1      -6.842  -1.410   4.082  0.00  0.00    +0.076 A 
ATOM     16  C   UNL     1      -7.260  -2.669   3.652  0.00  0.00    +0.155 A 
ATOM     17  N   UNL     1      -6.370  -3.521   3.195  0.00  0.00    -0.203 NA
ATOM     18  S   UNL     1      -4.970  -2.800   3.268  0.00  0.00    +0.019 S 
BRANCH  16  19
ATOM     19  C   UNL     1      -8.685  -3.043   3.716  0.00  0.00    +0.262 C 
ATOM     20  O   UNL     1      -9.503  -2.250   4.141  0.00  0.00    -0.269 OA
ATOM     21  N   UNL     1      -9.081  -4.263   3.303  0.00  0.00    -0.324 N 
ATOM     22  H   UNL     1      -8.428  -4.896   2.964  0.00  0.00    +0.145 HD
ATOM     23  H   UNL     1     -10.018  -4.509   3.345  0.00  0.00    +0.145 HD
ENDBRANCH  16  19
BRANCH  15  24
ATOM     24  N   UNL     1      -7.700  -0.443   4.588  0.00  0.00    -0.355 N 
ATOM     25  H   UNL     1      -7.351   0.417   4.870  0.00  0.00    +0.142 HD
ATOM     26  H   UNL     1      -8.650  -0.627   4.659  0.00  0.00    +0.142 HD
ENDBRANCH  15  24
ENDBRANCH   2  14
BRANCH   1  27
ATOM     27  C   UNL     1      -2.492   1.074   4.400  0.00  0.00    +0.233 C 
BRANCH  27  32
ATOM     28  C   UNL     1      -0.013   1.086   0.008  0.00  0.00    +0.086 C 
ATOM     29  C   UNL     1      -0.718   1.572   1.248  0.00  0.00    +0.102 A 
ATOM     30  C   UNL     1      -0.917   2.858   1.587  0.00  0.00    +0.045 A 
ATOM     31  C   UNL     1      -1.616   2.855   2.815  0.00  0.00    +0.047 A 
ATOM     32  C   UNL     1      -1.796   1.567   3.158  0.00  0.00    +0.135 A 
ATOM     33  O   UNL     1      -1.250   0.794   2.205  0.00  0.00    -0.462 OA
ENDBRANCH  27  32
BRANCH  27  34
ATOM     34  C   UNL     1      -1.465   0.690   5.433  0.00  0.00    +0.242 C 
ATOM     35  O   UNL     1      -1.422  -0.448   5.852  0.00  0.00    -0.273 OA
ATOM     36  N   UNL     1      -0.593   1.610   5.892  0.00  0.00    -0.311 N 
ATOM     37  H   UNL     1      -0.627   2.520   5.557  0.00  0.00    +0.149 HD
BRANCH  36  38
ATOM     38  C   UNL     1       0.406   1.236   6.896  0.00  0.00    +0.073 C 
ATOM     39  C   UNL     1      -0.181   1.403   8.313  0.00  0.00    +0.022 C 
ATOM     40  C   UNL     1       1.008   1.928   9.157  0.00  0.00    +0.002 C 
ATOM     41  C   UNL     1       1.727   2.886   8.175  0.00  0.00    +0.002 C 
ATOM     42  C   UNL     1       1.619   2.179   6.809  0.00  0.00    +0.022 C 
ENDBRANCH  36  38
ENDBRANCH  27  34
ENDBRANCH   1  27
TORSDOF 8
