REMARK  Name = ZINC38989478
REMARK  9 active torsions:
REMARK  status: ('A' for Active; 'I' for Inactive)
REMARK    1  A    between atoms: C_1  and  C_2
REMARK    2  A    between atoms: C_4  and  C_8
REMARK    3  A    between atoms: C_12  and  S_16
REMARK    4  A    between atoms: N_14  and  N_15
REMARK    5  A    between atoms: S_16  and  C_17
REMARK    6  A    between atoms: C_17  and  C_18
REMARK    7  A    between atoms: C_18  and  C_20
REMARK    8  A    between atoms: C_23  and  O_26
REMARK    9  A    between atoms: O_26  and  C_27
REMARK                            x       y       z     vdW  Elec       q    Type
REMARK                         _______ _______ _______ _____ _____    ______ ____
ROOT
ATOM      1  C   UNL     1      -0.976  -2.937  -1.266  0.00  0.00    +0.185 C 
ATOM      2  N   UNL     1      -2.459  -2.997  -1.346  0.00  0.00    -0.234 NA
ATOM      3  N   UNL     1      -2.734  -4.167  -2.186  0.00  0.00    -0.228 NA
ATOM      4  C   UNL     1      -1.553  -5.049  -2.091  0.00  0.00    +0.214 C 
ATOM      5  N   UNL     1      -0.587  -4.370  -1.194  0.00  0.00    -0.197 NA
ATOM      6  H   UNL     1      -2.833  -2.158  -1.762  0.00  0.00    +0.143 HD
ATOM      7  H   UNL     1      -3.567  -4.644  -1.878  0.00  0.00    +0.143 HD
ENDROOT
BRANCH   1  11
ATOM      8  C   UNL     1      -0.018   1.503   0.010  0.00  0.00    +0.067 C 
ATOM      9  C   UNL     1       0.002  -0.004   0.002  0.00  0.00    +0.058 C 
ATOM     10  C   UNL     1      -1.086  -0.777   0.003  0.00  0.00    +0.029 C 
ATOM     11  C   UNL     1      -0.531  -2.190  -0.007  0.00  0.00    +0.186 C 
ATOM     12  N   UNL     1       0.926  -1.973  -0.013  0.00  0.00    -0.177 NA
ATOM     13  N   UNL     1       1.125  -0.756  -0.013  0.00  0.00    -0.159 NA
ENDBRANCH   1  11
BRANCH   5  14
ATOM     14  N   UNL     1       0.780  -4.563  -1.652  0.00  0.00    -0.264 NA
ATOM     15  H   UNL     1       1.044  -5.535  -1.602  0.00  0.00    +0.137 HD
ATOM     16  H   UNL     1       0.902  -4.202  -2.586  0.00  0.00    +0.137 HD
ENDBRANCH   5  14
BRANCH   4  17
ATOM     17  S   UNL     1      -2.031  -6.655  -1.396  0.00  0.00    -0.116 S 
BRANCH  17  18
ATOM     18  C   UNL     1      -2.741  -6.239   0.221  0.00  0.00    +0.151 C 
BRANCH  18  19
ATOM     19  C   UNL     1      -3.185  -7.501   0.914  0.00  0.00    +0.173 C 
ATOM     20  O   UNL     1      -3.037  -8.576   0.371  0.00  0.00    -0.291 OA
BRANCH  19  21
ATOM     21  C   UNL     1      -3.797  -7.431   2.247  0.00  0.00    +0.018 A 
ATOM     22  C   UNL     1      -3.974  -6.191   2.874  0.00  0.00    +0.015 A 
ATOM     23  C   UNL     1      -4.547  -6.130   4.119  0.00  0.00    +0.046 A 
ATOM     24  C   UNL     1      -4.950  -7.298   4.758  0.00  0.00    +0.120 A 
ATOM     25  C   UNL     1      -4.776  -8.531   4.141  0.00  0.00    +0.046 A 
ATOM     26  C   UNL     1      -4.210  -8.602   2.894  0.00  0.00    +0.015 A 
BRANCH  24  27
ATOM     27  O   UNL     1      -5.516  -7.232   5.990  0.00  0.00    -0.495 OA
ATOM     28  C   UNL     1      -5.907  -8.468   6.590  0.00  0.00    +0.277 C 
ENDBRANCH  24  27
ENDBRANCH  19  21
ENDBRANCH  18  19
ENDBRANCH  17  18
ENDBRANCH   4  17
TORSDOF 7
