REMARK  Name = ZINC15866625
REMARK  6 active torsions:
REMARK  status: ('A' for Active; 'I' for Inactive)
REMARK    1  A    between atoms: C_1  and  C_2
REMARK    2  A    between atoms: C_4  and  C_21
REMARK    3  A    between atoms: C_6  and  S_9
REMARK    4  A    between atoms: C_7  and  C_8
REMARK    5  A    between atoms: S_9  and  N_12
REMARK    6  A    between atoms: C_15  and  C_18
REMARK                            x       y       z     vdW  Elec       q    Type
REMARK                         _______ _______ _______ _____ _____    ______ ____
ROOT
ATOM      1  C   UNL     1       2.332  -0.337   4.668  0.00  0.00    +0.044 C 
ATOM      2  C   UNL     1       1.140  -0.657   3.803  0.00  0.00    -0.045 A 
ATOM      3  C   UNL     1       0.076  -1.361   4.328  0.00  0.00    +0.013 A 
ATOM      4  C   UNL     1      -1.025  -1.656   3.527  0.00  0.00    +0.004 A 
ATOM      5  C   UNL     1      -1.047  -1.233   2.199  0.00  0.00    +0.039 A 
ATOM      6  C   UNL     1       0.025  -0.534   1.682  0.00  0.00    +0.109 A 
ATOM      7  C   UNL     1       1.115  -0.244   2.483  0.00  0.00    -0.021 A 
ATOM      8  C   UNL     1       2.280   0.526   1.915  0.00  0.00    +0.046 C 
ENDROOT
BRANCH   4   9
ATOM      9  C   UNL     1      -2.172  -2.413   4.086  0.00  0.00    +0.091 A 
ATOM     10  C   UNL     1      -2.144  -2.839   5.434  0.00  0.00    +0.035 A 
ATOM     11  C   UNL     1      -3.218  -3.527   5.916  0.00  0.00    +0.073 A 
ATOM     12  C   UNL     1      -4.290  -3.782   5.032  0.00  0.00    +0.265 A 
ATOM     13  O   UNL     1      -5.271  -4.399   5.416  0.00  0.00    -0.266 OA
ATOM     14  N   UNL     1      -4.223  -3.339   3.762  0.00  0.00    -0.243 N 
ATOM     15  H   UNL     1      -4.962  -3.517   3.160  0.00  0.00    +0.192 HD
ATOM     16  N   UNL     1      -3.206  -2.688   3.327  0.00  0.00    -0.171 NA
ENDBRANCH   4   9
BRANCH   6  17
ATOM     17  S   UNL     1       0.002  -0.004   0.002  0.00  0.00    +0.061 S 
ATOM     18  O   UNL     1      -1.243  -0.424  -0.539  0.00  0.00    -0.153 OA
ATOM     19  O   UNL     1       1.248  -0.390  -0.563  0.00  0.00    -0.153 OA
BRANCH  17  20
ATOM     20  N   UNL     1      -0.020   1.652   0.011  0.00  0.00    -0.177 NA
ATOM     21  C   UNL     1      -1.295   2.383   0.021  0.00  0.00    +0.110 C 
ATOM     22  C   UNL     1      -1.305   3.381  -1.136  0.00  0.00    +0.030 C 
ATOM     23  C   UNL     1      -0.066   4.275  -1.046  0.00  0.00    +0.077 C 
ATOM     24  C   UNL     1       1.195   3.415  -1.159  0.00  0.00    +0.030 C 
ATOM     25  C   UNL     1       1.234   2.417   0.003  0.00  0.00    +0.110 C 
BRANCH  23  26
ATOM     26  C   UNL     1      -0.090   5.280  -2.169  0.00  0.00    +0.214 C 
ATOM     27  O   UNL     1       0.812   5.306  -2.979  0.00  0.00    -0.276 OA
ATOM     28  N   UNL     1      -1.114   6.150  -2.273  0.00  0.00    -0.329 N 
ATOM     29  H   UNL     1      -1.836   6.129  -1.625  0.00  0.00    +0.145 HD
ATOM     30  H   UNL     1      -1.130   6.797  -2.995  0.00  0.00    +0.145 HD
ENDBRANCH  23  26
ENDBRANCH  17  20
ENDBRANCH   6  17
TORSDOF 4
