REMARK  Name = ZINC44458649
REMARK  3 active torsions:
REMARK  status: ('A' for Active; 'I' for Inactive)
REMARK    1  A    between atoms: C_3  and  C_14
REMARK    2  A    between atoms: N_10  and  C_11
REMARK    3  A    between atoms: N_16  and  C_17
REMARK                            x       y       z     vdW  Elec       q    Type
REMARK                         _______ _______ _______ _____ _____    ______ ____
ROOT
ATOM      1  C   UNL     1      -0.017   1.532   0.005  0.00  0.00    +0.020 C 
ATOM      2  C   UNL     1       1.422   2.054  -0.003  0.00  0.00    +0.016 C 
ATOM      3  C   UNL     1       2.130   1.583  -1.276  0.00  0.00    +0.092 C 
ATOM      4  C   UNL     1       2.171   0.052  -1.296  0.00  0.00    +0.122 C 
ATOM      5  N   UNL     1       0.803  -0.460  -1.143  0.00  0.00    -0.285 N 
ATOM      6  C   UNL     1       0.000   0.000  -0.001  0.00  0.00    +0.109 C 
ATOM      7  C   UNL     1       0.293  -1.334  -2.033  0.00  0.00    +0.302 C 
ATOM      8  O   UNL     1       0.930  -1.634  -3.024  0.00  0.00    -0.253 OA
ATOM      9  N   UNL     1      -0.923  -1.876  -1.824  0.00  0.00    -0.296 N 
ATOM     10  H   UNL     1      -1.462  -1.584  -1.072  0.00  0.00    +0.151 HD
ENDROOT
BRANCH   3  11
ATOM     11  C   UNL     1       3.536   2.125  -1.298  0.00  0.00    +0.218 C 
ATOM     12  O   UNL     1       3.933   2.820  -0.387  0.00  0.00    -0.275 OA
ATOM     13  N   UNL     1       4.352   1.839  -2.332  0.00  0.00    -0.304 N 
ATOM     14  H   UNL     1       4.035   1.283  -3.061  0.00  0.00    +0.149 HD
BRANCH  13  15
ATOM     15  C   UNL     1       5.719   2.365  -2.354  0.00  0.00    +0.151 C 
ATOM     16  C   UNL     1       6.179   2.493  -3.808  0.00  0.00    +0.042 C 
ATOM     17  C   UNL     1       7.726   2.476  -3.815  0.00  0.00    +0.079 C 
ATOM     18  S   UNL     1       8.094   1.442  -2.345  0.00  0.00    -0.086 S 
ATOM     19  C   UNL     1       6.613   1.445  -1.558  0.00  0.00    +0.209 C 
ATOM     20  O   UNL     1       6.321   0.832  -0.552  0.00  0.00    -0.283 OA
ENDBRANCH  13  15
ENDBRANCH   3  11
BRANCH   9  21
ATOM     21  C   UNL     1      -1.431  -2.908  -2.732  0.00  0.00    +0.075 C 
ATOM     22  C   UNL     1      -2.891  -2.799  -3.178  0.00  0.00    +0.024 C 
ATOM     23  C   UNL     1      -2.474  -3.882  -2.181  0.00  0.00    +0.024 C 
ENDBRANCH   9  21
TORSDOF 3
