REMARK  Name = ZINC66348911
REMARK  9 active torsions:
REMARK  status: ('A' for Active; 'I' for Inactive)
REMARK    1  A    between atoms: C_1  and  N_2
REMARK    2  A    between atoms: N_2  and  C_3
REMARK    3  A    between atoms: N_2  and  C_14
REMARK    4  A    between atoms: C_3  and  C_4
REMARK    5  A    between atoms: C_4  and  C_6
REMARK    6  A    between atoms: C_4  and  O_13
REMARK    7  A    between atoms: C_15  and  N_30
REMARK    8  A    between atoms: N_16  and  C_23
REMARK    9  A    between atoms: C_23  and  C_24
REMARK                            x       y       z     vdW  Elec       q    Type
REMARK                         _______ _______ _______ _____ _____    ______ ____
ROOT
ATOM      1  C   UNL     1      -0.040  -0.446  -1.351  0.00  0.00    +0.133 A 
ATOM      2  C   UNL     1      -0.091   0.302  -2.496  0.00  0.00    +0.127 A 
ATOM      3  N   UNL     1      -0.232  -0.332  -3.710  0.00  0.00    -0.276 N 
ATOM      4  C   UNL     1      -0.319  -1.673  -3.772  0.00  0.00    +0.331 A 
ATOM      5  O   UNL     1      -0.443  -2.215  -4.853  0.00  0.00    -0.246 OA
ATOM      6  N   UNL     1      -0.270  -2.423  -2.656  0.00  0.00    -0.273 N 
ATOM      7  H   UNL     1      -0.334  -3.389  -2.724  0.00  0.00    +0.173 HD
ATOM      8  C   UNL     1      -0.127  -1.847  -1.447  0.00  0.00    +0.277 A 
ATOM      9  O   UNL     1      -0.078  -2.535  -0.441  0.00  0.00    -0.266 OA
ENDROOT
BRANCH   2  10
ATOM     10  N   UNL     1      -0.003   1.674  -2.434  0.00  0.00    -0.343 N 
ATOM     11  H   UNL     1       0.114   2.114  -1.578  0.00  0.00    +0.144 HD
ATOM     12  H   UNL     1      -0.058   2.200  -3.247  0.00  0.00    +0.144 HD
ENDBRANCH   2  10
BRANCH   1  14
ATOM     13  C   UNL     1      -0.962   0.072   0.907  0.00  0.00    +0.129 C 
ATOM     14  N   UNL     1       0.105   0.179  -0.091  0.00  0.00    -0.323 N 
BRANCH  14  15
ATOM     15  C   UNL     1       1.322   0.935   0.216  0.00  0.00    +0.141 C 
BRANCH  15  16
ATOM     16  C   UNL     1       2.305   0.035   0.967  0.00  0.00    +0.162 C 
BRANCH  16  17
ATOM     17  C   UNL     1       3.506   0.843   1.387  0.00  0.00    -0.017 A 
ATOM     18  C   UNL     1       4.505   1.122   0.473  0.00  0.00    +0.009 A 
ATOM     19  C   UNL     1       5.606   1.863   0.857  0.00  0.00    +0.039 A 
ATOM     20  C   UNL     1       5.709   2.327   2.157  0.00  0.00    +0.123 A 
ATOM     21  C   UNL     1       4.708   2.047   3.072  0.00  0.00    +0.039 A 
ATOM     22  C   UNL     1       3.605   1.310   2.685  0.00  0.00    +0.009 A 
ATOM     23  F   UNL     1       6.785   3.051   2.534  0.00  0.00    -0.205 F 
ENDBRANCH  16  17
BRANCH  16  24
ATOM     24  O   UNL     1       2.724  -1.031   0.113  0.00  0.00    -0.386 OA
ATOM     25  H   UNL     1       3.163  -0.737  -0.697  0.00  0.00    +0.210 HD
ENDBRANCH  16  24
ENDBRANCH  15  16
ENDBRANCH  14  15
ENDBRANCH   1  14
BRANCH   3  26
ATOM     26  C   UNL     1      -0.289   0.460  -4.942  0.00  0.00    +0.163 C 
BRANCH  26  27
ATOM     27  C   UNL     1       1.105   0.645  -5.484  0.00  0.00    -0.028 A 
ATOM     28  C   UNL     1       1.861   1.733  -5.088  0.00  0.00    +0.005 A 
ATOM     29  C   UNL     1       3.139   1.903  -5.586  0.00  0.00    +0.000 A 
ATOM     30  C   UNL     1       3.662   0.987  -6.478  0.00  0.00    +0.000 A 
ATOM     31  C   UNL     1       2.906  -0.101  -6.873  0.00  0.00    +0.000 A 
ATOM     32  C   UNL     1       1.629  -0.274  -6.373  0.00  0.00    +0.005 A 
ENDBRANCH  26  27
ENDBRANCH   3  26
TORSDOF 8
