REMARK  Name = ZINC48798270
REMARK  12 active torsions:
REMARK  status: ('A' for Active; 'I' for Inactive)
REMARK    1  A    between atoms: C_1  and  C_2
REMARK    2  A    between atoms: C_2  and  C_3
REMARK    3  A    between atoms: C_3  and  N_4
REMARK    4  A    between atoms: C_5  and  C_7
REMARK    5  A    between atoms: C_7  and  C_9
REMARK    6  A    between atoms: C_7  and  O_10
REMARK    7  A    between atoms: O_10  and  C_11
REMARK    8  A    between atoms: C_12  and  C_18
REMARK    9  A    between atoms: C_18  and  C_19
REMARK   10  A    between atoms: C_19  and  C_21
REMARK   11  A    between atoms: C_19  and  N_23
REMARK   12  A    between atoms: C_21  and  C_22
REMARK                            x       y       z     vdW  Elec       q    Type
REMARK                         _______ _______ _______ _____ _____    ______ ____
ROOT
ATOM      1  C   UNL     1       2.898  -5.882   2.921  0.00  0.00    +0.139 A 
ATOM      2  C   UNL     1       2.123  -7.002   3.183  0.00  0.00    -0.006 A 
ATOM      3  C   UNL     1       2.672  -8.264   3.064  0.00  0.00    +0.007 A 
ATOM      4  C   UNL     1       3.994  -8.412   2.684  0.00  0.00    +0.002 A 
ATOM      5  C   UNL     1       4.769  -7.297   2.423  0.00  0.00    +0.019 A 
ATOM      6  C   UNL     1       4.223  -6.032   2.534  0.00  0.00    +0.060 A 
ATOM      7 BR   UNL     1       5.281  -4.508   2.168  0.00  0.00    -0.047 Br
ENDROOT
BRANCH   1   8
ATOM      8  O   UNL     1       2.360  -4.639   3.037  0.00  0.00    -0.479 OA
BRANCH   8   9
ATOM      9  C   UNL     1       2.328  -4.066   4.346  0.00  0.00    +0.256 C 
ATOM     10  C   UNL     1       3.554  -3.172   4.541  0.00  0.00    +0.062 C 
BRANCH   9  12
ATOM     11  N   UNL     1       0.780  -2.685   5.694  0.00  0.00    -0.312 N 
ATOM     12  C   UNL     1       1.076  -3.242   4.503  0.00  0.00    +0.254 C 
ATOM     13  O   UNL     1       0.334  -3.080   3.557  0.00  0.00    -0.272 OA
ATOM     14  H   UNL     1       1.374  -2.815   6.450  0.00  0.00    +0.149 HD
BRANCH  11  15
ATOM     15  C   UNL     1      -0.437  -1.884   5.846  0.00  0.00    +0.104 C 
BRANCH  15  17
ATOM     16  C   UNL     1      -1.805  -0.536   7.444  0.00  0.00    +0.005 C 
ATOM     17  C   UNL     1      -0.534  -1.373   7.285  0.00  0.00    +0.015 C 
ENDBRANCH  15  17
ENDBRANCH  11  15
ENDBRANCH   9  12
ENDBRANCH   8   9
ENDBRANCH   1   8
BRANCH   2  18
ATOM     18  C   UNL     1       0.683  -6.843   3.597  0.00  0.00    +0.022 C 
BRANCH  18  19
ATOM     19  C   UNL     1      -0.180  -6.594   2.358  0.00  0.00    -0.071 C 
BRANCH  19  20
ATOM     20  N   UNL     1      -0.105  -7.760   1.467  0.00  0.00    +0.380 N 
ATOM     21  H   UNL     1      -0.442  -8.577   1.954  0.00  0.00    -0.090 HD
ATOM     22  H   UNL     1      -0.674  -7.596   0.650  0.00  0.00    -0.090 HD
ATOM     23  H   UNL     1       0.853  -7.908   1.186  0.00  0.00    -0.090 HD
ENDBRANCH  19  20
BRANCH  19  24
ATOM     24  C   UNL     1      -1.632  -6.370   2.784  0.00  0.00    -0.019 C 
ATOM     25  C   UNL     1      -2.471  -5.999   1.560  0.00  0.00    +0.002 C 
ENDBRANCH  19  24
ENDBRANCH  18  19
ENDBRANCH   2  18
TORSDOF 9
