REMARK  Name = ZINC26272823
REMARK  4 active torsions:
REMARK  status: ('A' for Active; 'I' for Inactive)
REMARK    1  A    between atoms: C_9  and  C_11
REMARK    2  A    between atoms: C_11  and  C_12
REMARK    3  A    between atoms: C_17  and  C_22
REMARK    4  A    between atoms: C_18  and  C_20
REMARK                            x       y       z     vdW  Elec       q    Type
REMARK                         _______ _______ _______ _____ _____    ______ ____
ROOT
ATOM      1  C   UNL     1      -4.058  -0.838  -0.343  0.00  0.00    +0.220 C 
ATOM      2  O   UNL     1      -4.452  -0.697   0.796  0.00  0.00    -0.275 OA
ATOM      3  N   UNL     1      -4.418  -1.927  -1.050  0.00  0.00    -0.254 N 
ATOM      4  C   UNL     1      -5.238  -2.885  -0.477  0.00  0.00    +0.224 A 
ATOM      5  N   UNL     1      -5.735  -2.838   0.786  0.00  0.00    -0.201 NA
ATOM      6  C   UNL     1      -6.501  -3.970   0.967  0.00  0.00    +0.179 A 
ATOM      7  C   UNL     1      -6.428  -4.682  -0.226  0.00  0.00    +0.179 A 
ATOM      8  N   UNL     1      -5.650  -3.981  -1.069  0.00  0.00    -0.201 NA
ATOM      9  H   UNL     1      -4.061  -2.055  -2.083  0.00  0.00    +0.158 HD
ENDROOT
BRANCH   7  10
ATOM     10  C   UNL     1      -7.066  -5.933  -0.506  0.00  0.00    +0.122 C 
ATOM     11  N   UNL     1      -7.573  -6.926  -0.729  0.00  0.00    -0.189 NA
ENDBRANCH   7  10
BRANCH   6  12
ATOM     12  C   UNL     1      -7.223  -4.342   2.147  0.00  0.00    +0.122 C 
ATOM     13  N   UNL     1      -7.795  -4.636   3.083  0.00  0.00    -0.189 NA
ENDBRANCH   6  12
BRANCH   1  14
ATOM     14  C   UNL     1      -3.167   0.205  -0.966  0.00  0.00    +0.100 C 
BRANCH  14  21
ATOM     15  C   UNL     1      -0.016   1.307  -0.237  0.00  0.00    +0.004 C 
ATOM     16  C   UNL     1      -0.947   1.799  -1.369  0.00  0.00    +0.004 C 
ATOM     17  C   UNL     1      -2.130   2.496  -0.631  0.00  0.00    -0.007 C 
ATOM     18  C   UNL     1      -1.383   3.099   0.610  0.00  0.00    +0.007 C 
ATOM     19  C   UNL     1      -0.722   1.753   1.079  0.00  0.00    -0.010 C 
ATOM     20  C   UNL     1      -1.982   0.835   1.174  0.00  0.00    +0.007 C 
ATOM     21  C   UNL     1      -2.913   1.328   0.042  0.00  0.00    +0.001 C 
ENDBRANCH  14  21
ENDBRANCH   1  14
TORSDOF 4
