REMARK  Name = ZINC65814444
REMARK  3 active torsions:
REMARK  status: ('A' for Active; 'I' for Inactive)
REMARK    1  A    between atoms: C_1  and  C_2
REMARK    2  A    between atoms: N_10  and  C_14
REMARK    3  A    between atoms: C_14  and  C_15
REMARK                            x       y       z     vdW  Elec       q    Type
REMARK                         _______ _______ _______ _____ _____    ______ ____
ROOT
ATOM      1  C   UNL     1      -0.019   1.526   0.010  0.00  0.00    +0.010 C 
ATOM      2  C   UNL     1       0.002  -0.004   0.002  0.00  0.00    +0.018 C 
ATOM      3  C   UNL     1      -1.434  -0.534   0.012  0.00  0.00    +0.006 C 
ATOM      4  C   UNL     1      -1.412  -2.064   0.024  0.00  0.00    +0.000 C 
ATOM      5  C   UNL     1      -0.688  -2.556   1.278  0.00  0.00    +0.003 C 
ATOM      6  C   UNL     1       0.751  -2.033   1.274  0.00  0.00    +0.035 C 
ATOM      7  C   UNL     1       0.740  -0.509   1.237  0.00  0.00    +0.115 C 
ATOM      8  C   UNL     1       2.151   0.030   1.267  0.00  0.00    +0.247 C 
ATOM      9  O   UNL     1       3.026  -0.158   0.449  0.00  0.00    -0.273 OA
ATOM     10  N   UNL     1       2.232   0.767   2.394  0.00  0.00    -0.215 N 
ATOM     11  C   UNL     1       1.076   0.763   3.069  0.00  0.00    +0.310 C 
ATOM     12  O   UNL     1       0.903   1.356   4.117  0.00  0.00    -0.252 OA
ATOM     13  N   UNL     1       0.126   0.030   2.458  0.00  0.00    -0.285 N 
ATOM     14  H   UNL     1      -0.783  -0.114   2.764  0.00  0.00    +0.151 HD
ENDROOT
BRANCH  10  15
ATOM     15  C   UNL     1       3.435   1.482   2.826  0.00  0.00    +0.213 C 
BRANCH  15  16
ATOM     16  C   UNL     1       3.425   2.876   2.254  0.00  0.00    +0.234 C 
ATOM     17  O   UNL     1       2.502   3.237   1.555  0.00  0.00    -0.274 OA
ATOM     18  N   UNL     1       4.440   3.721   2.521  0.00  0.00    -0.297 N 
ATOM     19  C   UNL     1       5.516   3.257   3.348  0.00  0.00    +0.111 C 
ATOM     20  C   UNL     1       6.844   3.833   2.960  0.00  0.00    +0.007 C 
ATOM     21  C   UNL     1       7.091   3.795   1.461  0.00  0.00    +0.008 C 
ATOM     22  C   UNL     1       6.563   5.002   0.711  0.00  0.00    -0.009 C 
ATOM     23  C   UNL     1       7.016   6.304   1.377  0.00  0.00    +0.007 C 
ATOM     24  C   UNL     1       6.476   6.291   2.809  0.00  0.00    -0.009 C 
ATOM     25  C   UNL     1       7.171   5.165   3.575  0.00  0.00    +0.008 C 
ATOM     26  C   UNL     1       4.974   6.129   2.837  0.00  0.00    +0.026 C 
ATOM     27  C   UNL     1       4.394   5.057   1.951  0.00  0.00    +0.077 C 
ATOM     28  C   UNL     1       5.047   5.022   0.575  0.00  0.00    +0.026 C 
ENDBRANCH  15  16
ENDBRANCH  10  15
TORSDOF 2
