REMARK  Name = ZINC25518527
REMARK  11 active torsions:
REMARK  status: ('A' for Active; 'I' for Inactive)
REMARK    1  A    between atoms: C_1  and  C_2
REMARK    2  A    between atoms: C_2  and  C_3
REMARK    3  A    between atoms: C_2  and  C_4
REMARK    4  A    between atoms: C_4  and  C_6
REMARK    5  A    between atoms: C_4  and  N_20
REMARK    6  A    between atoms: N_8  and  C_9
REMARK    7  A    between atoms: C_13  and  O_15
REMARK    8  A    between atoms: O_15  and  C_16
REMARK    9  A    between atoms: C_16  and  C_17
REMARK   10  A    between atoms: N_20  and  S_21
REMARK   11  A    between atoms: S_21  and  C_24
REMARK                            x       y       z     vdW  Elec       q    Type
REMARK                         _______ _______ _______ _____ _____    ______ ____
ROOT
ATOM      1  C   UNL     1       1.150   5.864   0.658  0.00  0.00    +0.236 C 
ATOM      2  O   UNL     1       2.179   5.270   0.416  0.00  0.00    -0.274 OA
ATOM      3  N   UNL     1       0.116   5.217   1.232  0.00  0.00    -0.284 N 
ATOM      4  H   UNL     1      -0.836   5.741   1.402  0.00  0.00    +0.155 HD
ENDROOT
BRANCH   3   5
ATOM      5  C   UNL     1       0.255   3.877   1.613  0.00  0.00    +0.037 A 
ATOM      6  C   UNL     1      -0.832   3.015   1.532  0.00  0.00    +0.023 A 
ATOM      7  C   UNL     1      -0.696   1.693   1.907  0.00  0.00    +0.005 A 
ATOM      8  C   UNL     1       0.521   1.224   2.365  0.00  0.00    +0.046 A 
ATOM      9  C   UNL     1       1.609   2.082   2.453  0.00  0.00    +0.123 A 
ATOM     10  C   UNL     1       1.477   3.408   2.071  0.00  0.00    +0.069 A 
BRANCH   9  11
ATOM     11  O   UNL     1       2.803   1.621   2.909  0.00  0.00    -0.483 OA
BRANCH  11  12
ATOM     12  C   UNL     1       2.868   0.242   3.280  0.00  0.00    +0.324 C 
BRANCH  12  13
ATOM     13  C   UNL     1       4.259  -0.085   3.756  0.00  0.00    +0.248 C 
ATOM     14  O   UNL     1       5.112   0.777   3.777  0.00  0.00    -0.272 OA
ATOM     15  N   UNL     1       4.556  -1.336   4.160  0.00  0.00    -0.327 N 
ATOM     16  H   UNL     1       5.572  -1.575   4.509  0.00  0.00    +0.145 HD
ATOM     17  H   UNL     1       3.783  -2.119   4.142  0.00  0.00    +0.145 HD
ENDBRANCH  12  13
ENDBRANCH  11  12
ENDBRANCH   9  11
ENDBRANCH   3   5
BRANCH   1  18
ATOM     18  C   UNL     1       1.026   7.327   0.317  0.00  0.00    +0.165 C 
BRANCH  18  20
ATOM     19  C   UNL     1       0.025   8.963  -1.284  0.00  0.00    +0.009 C 
ATOM     20  C   UNL     1       0.281   7.480  -1.011  0.00  0.00    +0.010 C 
ATOM     21  C   UNL     1       1.128   6.891  -2.141  0.00  0.00    +0.009 C 
ENDBRANCH  18  20
BRANCH  18  22
ATOM     22  N   UNL     1       2.363   7.915   0.198  0.00  0.00    -0.177 NA
ATOM     23  H   UNL     1       3.121   7.434  -0.438  0.00  0.00    +0.149 HD
BRANCH  22  24
ATOM     24  S   UNL     1       2.815   9.153   1.200  0.00  0.00    +0.065 S 
ATOM     25  O   UNL     1       4.172   9.446   0.897  0.00  0.00    -0.153 OA
ATOM     26  O   UNL     1       1.789  10.133   1.123  0.00  0.00    -0.153 OA
BRANCH  24  27
ATOM     27  C   UNL     1       2.791   8.526   2.846  0.00  0.00    +0.142 A 
ATOM     28  C   UNL     1       3.786   7.932   3.548  0.00  0.00    +0.036 A 
ATOM     29  C   UNL     1       3.538   7.514   4.842  0.00  0.00    +0.010 A 
ATOM     30  C   UNL     1       2.305   7.712   5.371  0.00  0.00    +0.047 A 
ATOM     31  S   UNL     1       1.450   8.515   4.026  0.00  0.00    -0.077 S 
ENDBRANCH  24  27
ENDBRANCH  22  24
ENDBRANCH  18  22
ENDBRANCH   1  18
TORSDOF 9
