REMARK  Name = ZINC17016426
REMARK  8 active torsions:
REMARK  status: ('A' for Active; 'I' for Inactive)
REMARK    1  A    between atoms: C_1  and  C_2
REMARK    2  A    between atoms: C_2  and  C_4
REMARK    3  A    between atoms: C_2  and  S_15
REMARK    4  A    between atoms: N_9  and  C_10
REMARK    5  A    between atoms: S_15  and  C_16
REMARK    6  A    between atoms: C_19  and  S_21
REMARK    7  A    between atoms: S_21  and  C_22
REMARK    8  A    between atoms: C_22  and  C_23
REMARK                            x       y       z     vdW  Elec       q    Type
REMARK                         _______ _______ _______ _____ _____    ______ ____
ROOT
ATOM      1  C   UNL     1       8.430   3.264  -0.183  0.00  0.00    +0.029 C 
ATOM      2  C   UNL     1       8.218   2.098   0.785  0.00  0.00    +0.136 C 
ENDROOT
BRANCH   2   3
ATOM      3  C   UNL     1       6.781   2.076   1.238  0.00  0.00    +0.233 C 
ATOM      4  O   UNL     1       6.464   2.617   2.276  0.00  0.00    -0.274 OA
ATOM      5  N   UNL     1       5.848   1.455   0.490  0.00  0.00    -0.239 N 
ATOM      6  C   UNL     1       4.563   1.435   0.895  0.00  0.00    +0.306 C 
ATOM      7  O   UNL     1       4.245   1.978   1.935  0.00  0.00    -0.252 OA
ATOM      8  N   UNL     1       3.630   0.814   0.146  0.00  0.00    -0.296 N 
ATOM      9  H   UNL     1       6.101   1.022  -0.341  0.00  0.00    +0.159 HD
ATOM     10  H   UNL     1       3.883   0.381  -0.684  0.00  0.00    +0.151 HD
BRANCH   8  11
ATOM     11  C   UNL     1       2.232   0.792   0.586  0.00  0.00    +0.074 C 
ATOM     12  C   UNL     1       1.453   1.995  -0.001  0.00  0.00    +0.022 C 
ATOM     13  C   UNL     1      -0.019   1.534   0.011  0.00  0.00    +0.002 C 
ATOM     14  C   UNL     1       0.002  -0.004   0.002  0.00  0.00    +0.002 C 
ATOM     15  C   UNL     1       1.486  -0.425  -0.014  0.00  0.00    +0.022 C 
ENDBRANCH   8  11
ENDBRANCH   2   3
BRANCH   2  16
ATOM     16  S   UNL     1       9.303   2.303   2.225  0.00  0.00    -0.084 S 
BRANCH  16  17
ATOM     17  C   UNL     1      10.927   2.162   1.558  0.00  0.00    +0.160 A 
ATOM     18  N   UNL     1      11.304   1.956   0.311  0.00  0.00    -0.134 NA
ATOM     19  N   UNL     1      12.643   1.878   0.004  0.00  0.00    -0.134 NA
ATOM     20  C   UNL     1      13.544   2.010   0.959  0.00  0.00    +0.160 A 
ATOM     21  S   UNL     1      12.505   2.267   2.389  0.00  0.00    -0.033 S 
BRANCH  20  22
ATOM     22  S   UNL     1      15.301   1.955   0.851  0.00  0.00    -0.088 S 
BRANCH  22  23
ATOM     23  C   UNL     1      15.624   1.668  -0.911  0.00  0.00    +0.171 C 
BRANCH  23  24
ATOM     24  C   UNL     1      17.111   1.599  -1.145  0.00  0.00    +0.221 C 
ATOM     25  O   UNL     1      17.878   1.731  -0.214  0.00  0.00    -0.275 OA
ATOM     26  N   UNL     1      17.589   1.392  -2.388  0.00  0.00    -0.329 N 
ATOM     27  H   UNL     1      16.976   1.286  -3.132  0.00  0.00    +0.145 HD
ATOM     28  H   UNL     1      18.546   1.347  -2.538  0.00  0.00    +0.145 HD
ENDBRANCH  23  24
ENDBRANCH  22  23
ENDBRANCH  20  22
ENDBRANCH  16  17
ENDBRANCH   2  16
TORSDOF 7
