REMARK  Name = ZINC18925429
REMARK  10 active torsions:
REMARK  status: ('A' for Active; 'I' for Inactive)
REMARK    1  A    between atoms: C_1  and  O_2
REMARK    2  A    between atoms: O_2  and  C_3
REMARK    3  A    between atoms: C_8  and  C_9
REMARK    4  A    between atoms: C_9  and  C_11
REMARK    5  A    between atoms: C_9  and  N_53
REMARK    6  A    between atoms: C_11  and  N_12
REMARK    7  A    between atoms: N_12  and  C_13
REMARK    8  A    between atoms: C_13  and  N_15
REMARK    9  A    between atoms: N_15  and  C_16
REMARK   10  A    between atoms: C_16  and  C_17
REMARK                            x       y       z     vdW  Elec       q    Type
REMARK                         _______ _______ _______ _____ _____    ______ ____
ROOT
ATOM      1  C   UNL     1      -0.711   1.990   1.203  0.00  0.00    -0.017 C 
ENDROOT
BRANCH   1   7
ATOM      2  C   UNL     1      -0.605   4.213   2.358  0.00  0.00    +0.122 A 
ATOM      3  C   UNL     1      -0.402   5.585   2.338  0.00  0.00    +0.046 A 
ATOM      4  C   UNL     1      -0.104   6.221   1.149  0.00  0.00    +0.004 A 
ATOM      5  C   UNL     1      -0.002   5.490  -0.021  0.00  0.00    +0.000 A 
ATOM      6  C   UNL     1      -0.199   4.122  -0.003  0.00  0.00    +0.005 A 
ATOM      7  C   UNL     1      -0.497   3.481   1.184  0.00  0.00    -0.018 A 
BRANCH   2   9
ATOM      8  C   UNL     1      -0.999   4.402   4.695  0.00  0.00    +0.277 C 
ATOM      9  O   UNL     1      -0.904   3.586   3.526  0.00  0.00    -0.495 OA
ENDBRANCH   2   9
ENDBRANCH   1   7
BRANCH   1  14
ATOM     10  C   UNL     1       1.464   1.605   0.179  0.00  0.00    -0.078 C 
ATOM     11  C   UNL     1       2.061   0.502  -0.730  0.00  0.00    -0.020 C 
ATOM     12  C   UNL     1       1.127  -0.703  -0.471  0.00  0.00    -0.020 C 
ATOM     13  C   UNL     1      -0.181  -0.089   0.063  0.00  0.00    -0.078 C 
ATOM     14  N   UNL     1       0.018   1.361   0.061  0.00  0.00    +0.385 N 
ATOM     15  H   UNL     1      -0.330   1.757  -0.820  0.00  0.00    -0.081 HD
ENDBRANCH   1  14
BRANCH   1  16
ATOM     16  C   UNL     1      -2.207   1.688   1.088  0.00  0.00    +0.092 C 
BRANCH  16  17
ATOM     17  N   UNL     1      -2.696   2.134  -0.219  0.00  0.00    -0.328 N 
ATOM     18  H   UNL     1      -2.073   2.478  -0.878  0.00  0.00    +0.148 HD
BRANCH  17  19
ATOM     19  C   UNL     1      -4.011   2.065  -0.505  0.00  0.00    +0.130 C 
ATOM     20  S   UNL     1      -5.110   1.457   0.658  0.00  0.00    -0.019 S 
BRANCH  19  21
ATOM     21  N   UNL     1      -4.461   2.475  -1.708  0.00  0.00    -0.322 N 
ATOM     22  H   UNL     1      -3.838   2.819  -2.367  0.00  0.00    +0.148 HD
BRANCH  21  23
ATOM     23  C   UNL     1      -5.891   2.401  -2.019  0.00  0.00    +0.138 C 
BRANCH  23  24
ATOM     24  C   UNL     1      -6.128   2.916  -3.416  0.00  0.00    -0.030 A 
ATOM     25  C   UNL     1      -6.394   4.257  -3.621  0.00  0.00    +0.008 A 
ATOM     26  C   UNL     1      -6.608   4.731  -4.901  0.00  0.00    +0.038 A 
ATOM     27  C   UNL     1      -6.565   3.861  -5.977  0.00  0.00    +0.123 A 
ATOM     28  C   UNL     1      -6.303   2.518  -5.770  0.00  0.00    +0.038 A 
ATOM     29  C   UNL     1      -6.085   2.046  -4.489  0.00  0.00    +0.008 A 
ATOM     30  F   UNL     1      -6.777   4.323  -7.229  0.00  0.00    -0.205 F 
ENDBRANCH  23  24
ENDBRANCH  21  23
ENDBRANCH  19  21
ENDBRANCH  17  19
ENDBRANCH  16  17
ENDBRANCH   1  16
TORSDOF 9
