REMARK  Name = ZINC55436633
REMARK  5 active torsions:
REMARK  status: ('A' for Active; 'I' for Inactive)
REMARK    1  A    between atoms: C_1  and  C_2
REMARK    2  A    between atoms: N_16  and  N_17
REMARK    3  A    between atoms: C_18  and  C_19
REMARK    4  A    between atoms: C_22  and  O_26
REMARK    5  A    between atoms: C_24  and  O_25
REMARK                            x       y       z     vdW  Elec       q    Type
REMARK                         _______ _______ _______ _____ _____    ______ ____
ROOT
ATOM      1  C   UNL     1       3.438   1.241   0.470  0.00  0.00    +0.046 C 
ATOM      2  C   UNL     1       2.877  -0.153   0.360  0.00  0.00    -0.026 A 
ATOM      3  C   UNL     1       2.764  -0.755  -0.875  0.00  0.00    +0.005 A 
ATOM      4  C   UNL     1       2.250  -2.037  -0.990  0.00  0.00    +0.001 A 
ATOM      5  C   UNL     1       1.844  -2.725   0.134  0.00  0.00    +0.012 A 
ATOM      6  C   UNL     1       1.952  -2.129   1.387  0.00  0.00    +0.029 A 
ATOM      7  C   UNL     1       2.478  -0.833   1.506  0.00  0.00    +0.053 A 
ATOM      8  N   UNL     1       2.482  -0.483   2.846  0.00  0.00    -0.337 N 
ATOM      9  H   UNL     1       2.794   0.366   3.196  0.00  0.00    +0.167 HD
ATOM     10  C   UNL     1       1.982  -1.508   3.610  0.00  0.00    +0.163 A 
ATOM     11  C   UNL     1       1.622  -2.570   2.754  0.00  0.00    +0.138 A 
ATOM     12  N   UNL     1       1.109  -3.677   3.270  0.00  0.00    -0.142 NA
ATOM     13  N   UNL     1       0.930  -3.775   4.543  0.00  0.00    -0.111 NA
ATOM     14  C   UNL     1       1.248  -2.783   5.368  0.00  0.00    +0.256 A 
ATOM     15  N   UNL     1       1.784  -1.656   4.916  0.00  0.00    -0.192 NA
ATOM     16  N   UNL     1       1.036  -2.937   6.727  0.00  0.00    -0.204 N 
ATOM     17  H   UNL     1       1.265  -2.219   7.338  0.00  0.00    +0.177 HD
ENDROOT
BRANCH  16  18
ATOM     18  N   UNL     1       0.491  -4.129   7.221  0.00  0.00    -0.187 NA
ATOM     19  C   UNL     1       0.192  -4.234   8.480  0.00  0.00    +0.142 C 
BRANCH  19  20
ATOM     20  C   UNL     1       0.182  -3.036   9.337  0.00  0.00    +0.036 A 
ATOM     21  C   UNL     1      -0.047  -1.776   8.778  0.00  0.00    +0.016 A 
ATOM     22  C   UNL     1      -0.056  -0.657   9.583  0.00  0.00    +0.046 A 
ATOM     23  C   UNL     1       0.162  -0.778  10.950  0.00  0.00    +0.120 A 
ATOM     24  C   UNL     1       0.390  -2.025  11.514  0.00  0.00    +0.091 A 
ATOM     25  C   UNL     1       0.395  -3.156  10.717  0.00  0.00    +0.129 A 
BRANCH  25  26
ATOM     26  O   UNL     1       0.611  -4.378  11.269  0.00  0.00    -0.506 OA
ATOM     27  H   UNL     1       1.533  -4.667  11.235  0.00  0.00    +0.292 HD
ENDBRANCH  25  26
BRANCH  23  28
ATOM     28  O   UNL     1       0.151   0.329  11.737  0.00  0.00    -0.507 OA
ATOM     29  H   UNL     1      -0.720   0.550  12.094  0.00  0.00    +0.292 HD
ENDBRANCH  23  28
ENDBRANCH  19  20
ENDBRANCH  16  18
TORSDOF 4
