REMARK  Name = ZINC63374759
REMARK  10 active torsions:
REMARK  status: ('A' for Active; 'I' for Inactive)
REMARK    1  A    between atoms: C_1  and  C_2
REMARK    2  A    between atoms: C_2  and  C_4
REMARK    3  A    between atoms: C_2  and  N_16
REMARK    4  A    between atoms: N_6  and  CA_7
REMARK    5  A    between atoms: CA_7  and  CB_9
REMARK    6  A    between atoms: CA_7  and  C_13
REMARK    7  A    between atoms: CB_9  and  CG_10
REMARK    8  A    between atoms: C_19  and  C_37
REMARK    9  A    between atoms: C_25  and  O_30
REMARK   10  A    between atoms: O_30  and  C_31
REMARK                            x       y       z     vdW  Elec       q    Type
REMARK                         _______ _______ _______ _____ _____    ______ ____
ROOT
ATOM      1  N   UNK A   0      -1.372  -0.511   0.012  0.00  0.00    -0.212 N 
ATOM      2  C   UNK A   0      -1.898  -1.296  -0.951  0.00  0.00    +0.249 C 
ATOM      3  O   UNK A   0      -1.354  -1.673  -1.967  0.00  0.00    -0.273 OA
ATOM      4  C   UNK A   0      -3.307  -1.609  -0.498  0.00  0.00    +0.136 C 
ATOM      5  C   UNK A   0      -4.324  -1.122  -1.529  0.00  0.00    +0.139 C 
ATOM      6  C   UNK A   0      -5.073   0.048  -0.907  0.00  0.00    -0.034 C 
ATOM      7  C   UNK A   0      -4.927   1.071  -1.746  0.00  0.00    +0.003 A 
ATOM      8  C   UNK A   0      -5.467   2.438  -1.727  0.00  0.00    +0.055 A 
ATOM      9  C   UNK A   0      -5.104   3.252  -2.756  0.00  0.00    +0.121 A 
ATOM     10  C   UNK A   0      -4.261   2.860  -3.806  0.00  0.00    +0.047 A 
ATOM     11  C   UNK A   0      -3.711   1.624  -3.923  0.00  0.00    +0.029 A 
ATOM     12  C   UNK A   0      -4.035   0.651  -2.870  0.00  0.00    +0.043 A 
ATOM     13  N   UNK A   0      -3.673  -0.604  -2.734  0.00  0.00    -0.375 N 
ATOM     14  C   UNK A   0      -5.755  -0.015   0.438  0.00  0.00    +0.052 C 
ATOM     15  C   UNK A   0      -4.722  -0.569   1.439  0.00  0.00    +0.115 C 
ATOM     16  N   UNK A   0      -3.465  -0.784   0.717  0.00  0.00    -0.269 N 
ATOM     17  C   UNK A   0      -2.261  -0.257   0.983  0.00  0.00    +0.313 C 
ATOM     18  O   UNK A   0      -2.006   0.380   1.986  0.00  0.00    -0.252 OA
ATOM     19  C   UNK A   0      -3.475  -3.098  -0.188  0.00  0.00    +0.044 C 
ATOM     20  H   UNK A   0      -3.080  -1.103  -3.318  0.00  0.00    +0.160 HD
ENDROOT
BRANCH   1  22
ATOM     21  C   UNK A   0      -0.019   1.526   0.010  0.00  0.00    +0.038 C 
ATOM     22  C   UNK A   0       0.002  -0.004   0.002  0.00  0.00    +0.168 C 
BRANCH  22  23
ATOM     23  C   UNK A   0       0.731  -0.503   1.223  0.00  0.00    +0.234 C 
ATOM     24  O   UNK A   0       0.159  -1.213   2.023  0.00  0.00    -0.274 OA
ATOM     25  N   ASN A   1       2.019  -0.161   1.426  0.00  0.00    -0.300 N 
ATOM     26  H   ASN A   1       2.476   0.406   0.786  0.00  0.00    +0.150 HD
BRANCH  25  27
ATOM     27  CA  ASN A   1       2.727  -0.647   2.613  0.00  0.00    +0.195 C 
BRANCH  27  28
ATOM     28  C   ASN A   1       2.451   0.273   3.774  0.00  0.00    +0.376 C 
ATOM     29  O   ASN A   1       2.447  -0.165   4.912  0.00  0.00    -0.244 OA
ATOM     30  OXT ASN A   1       2.230   1.456   3.576  0.00  0.00    -0.244 OA
ENDBRANCH  27  28
BRANCH  27  31
ATOM     31  CB  ASN A   1       4.231  -0.676   2.332  0.00  0.00    +0.129 C 
BRANCH  31  32
ATOM     32  CG  ASN A   1       4.521  -1.688   1.253  0.00  0.00    +0.213 C 
ATOM     33  OD1 ASN A   1       3.614  -2.322   0.758  0.00  0.00    -0.276 OA
ATOM     34  ND2 ASN A   1       5.788  -1.887   0.840  0.00  0.00    -0.329 N 
ATOM     35 HD21 ASN A   1       6.513  -1.379   1.236  0.00  0.00    +0.145 HD
ATOM     36 HD22 ASN A   1       5.975  -2.538   0.145  0.00  0.00    +0.145 HD
ENDBRANCH  31  32
ENDBRANCH  27  31
ENDBRANCH  25  27
ENDBRANCH  22  23
ENDBRANCH   1  22
BRANCH   9  37
ATOM     37  O   UNK A   0      -5.588   4.522  -2.767  0.00  0.00    -0.495 OA
ATOM     38  C   UNK A   0      -5.193   5.358  -3.857  0.00  0.00    +0.277 C 
ENDBRANCH   9  37
TORSDOF 7
