REMARK  Name = ZINC23107614
REMARK  6 active torsions:
REMARK  status: ('A' for Active; 'I' for Inactive)
REMARK    1  A    between atoms: C_1  and  N_2
REMARK    2  A    between atoms: N_2  and  C_3
REMARK    3  A    between atoms: C_6  and  C_11
REMARK    4  A    between atoms: C_11  and  N_12
REMARK    5  A    between atoms: C_13  and  C_22
REMARK    6  A    between atoms: C_16  and  C_19
REMARK                            x       y       z     vdW  Elec       q    Type
REMARK                         _______ _______ _______ _____ _____    ______ ____
ROOT
ATOM      1  N   UNL     1       1.167   3.123  -0.009  0.00  0.00    -0.297 N 
ATOM      2  C   UNL     1       1.154   1.769   0.003  0.00  0.00    +0.126 A 
ATOM      3  C   UNL     1      -0.013   1.076   0.028  0.00  0.00    +0.031 A 
ATOM      4  C   UNL     1      -1.230   1.755   0.037  0.00  0.00    +0.020 A 
ATOM      5  C   UNL     1      -1.226   3.148   0.032  0.00  0.00    +0.101 A 
ATOM      6  C   UNL     1       0.019   3.828   0.005  0.00  0.00    +0.264 A 
ATOM      7  O   UNL     1       0.051   5.047  -0.004  0.00  0.00    -0.267 OA
ENDROOT
BRANCH   5   8
ATOM      8  C   UNL     1      -2.489   3.901   0.048  0.00  0.00    +0.247 C 
ATOM      9  O   UNL     1      -3.550   3.312  -0.043  0.00  0.00    -0.270 OA
ATOM     10  N   UNL     1      -2.472   5.244   0.163  0.00  0.00    -0.325 N 
ATOM     11  H   UNL     1      -3.417   5.807   0.174  0.00  0.00    +0.145 HD
ATOM     12  H   UNL     1      -1.514   5.777   0.244  0.00  0.00    +0.145 HD
ENDBRANCH   5   8
BRANCH   2  13
ATOM     13  C   UNL     1       2.461   1.018  -0.013  0.00  0.00    +0.433 C 
ATOM     14  F   UNL     1       2.208  -0.358   0.003  0.00  0.00    -0.164 F 
ATOM     15  F   UNL     1       3.175   1.347  -1.170  0.00  0.00    -0.164 F 
ATOM     16  F   UNL     1       3.213   1.367   1.114  0.00  0.00    -0.164 F 
ENDBRANCH   2  13
BRANCH   1  17
ATOM     17  C   UNL     1       2.448   3.832  -0.036  0.00  0.00    +0.201 C 
BRANCH  17  23
ATOM     18  C   UNL     1       1.649   7.524  -3.305  0.00  0.00    +0.132 C 
ATOM     19  N   UNL     1       2.466   6.528  -4.004  0.00  0.00    -0.306 N 
ATOM     20  C   UNL     1       2.869   6.757  -5.394  0.00  0.00    +0.132 C 
ATOM     21  C   UNL     1       2.856   5.376  -3.353  0.00  0.00    +0.222 A 
ATOM     22  N   UNL     1       2.491   5.168  -2.090  0.00  0.00    -0.197 NA
ATOM     23  C   UNL     1       2.864   4.064  -1.466  0.00  0.00    +0.156 A 
ATOM     24  N   UNL     1       3.605   3.166  -2.091  0.00  0.00    -0.198 NA
ATOM     25  C   UNL     1       3.970   3.364  -3.355  0.00  0.00    +0.217 A 
ATOM     26  N   UNL     1       3.597   4.473  -3.986  0.00  0.00    -0.181 NA
ATOM     27  N   UNL     1       4.739   2.423  -4.008  0.00  0.00    -0.327 N 
ATOM     28  H   UNL     1       5.040   2.588  -5.053  0.00  0.00    +0.145 HD
ATOM     29  H   UNL     1       5.051   1.508  -3.484  0.00  0.00    +0.145 HD
ENDBRANCH  17  23
ENDBRANCH   1  17
TORSDOF 4
