REMARK  Name = ZINC17962004
REMARK  12 active torsions:
REMARK  status: ('A' for Active; 'I' for Inactive)
REMARK    1  A    between atoms: C_1  and  C_2
REMARK    2  A    between atoms: C_5  and  C_8
REMARK    3  A    between atoms: C_8  and  C_33
REMARK    4  A    between atoms: N_11  and  C_15
REMARK    5  A    between atoms: C_15  and  C_16
REMARK    6  A    between atoms: N_18  and  C_19
REMARK    7  A    between atoms: N_18  and  C_20
REMARK    8  A    between atoms: C_20  and  C_21
REMARK    9  A    between atoms: N_23  and  C_24
REMARK   10  A    between atoms: C_25  and  C_32
REMARK   11  A    between atoms: C_27  and  C_31
REMARK   12  A    between atoms: C_29  and  C_30
REMARK                            x       y       z     vdW  Elec       q    Type
REMARK                         _______ _______ _______ _____ _____    ______ ____
ROOT
ATOM      1  C   UNL     1       7.467   0.110  -2.132  0.00  0.00    +0.234 C 
ATOM      2  O   UNL     1       6.828  -0.527  -2.942  0.00  0.00    -0.274 OA
ATOM      3  N   UNL     1       7.192  -0.003  -0.817  0.00  0.00    -0.294 N 
ATOM      4  C   UNL     1       7.965   0.767   0.161  0.00  0.00    +0.132 C 
ENDROOT
BRANCH   1   5
ATOM      5  C   UNL     1       8.570   1.026  -2.595  0.00  0.00    +0.213 C 
BRANCH   5   9
ATOM      6  C   UNL     1       8.403   1.365  -6.290  0.00  0.00    +0.135 C 
ATOM      7  C   UNL     1       7.989   1.780  -4.892  0.00  0.00    +0.251 C 
ATOM      8  O   UNL     1       7.209   2.657  -4.589  0.00  0.00    -0.272 OA
ATOM      9  N   UNL     1       8.669   0.971  -4.056  0.00  0.00    -0.215 N 
ATOM     10  C   UNL     1       9.450   0.115  -4.724  0.00  0.00    +0.310 C 
ATOM     11  O   UNL     1      10.162  -0.711  -4.187  0.00  0.00    -0.252 OA
ATOM     12  N   UNL     1       9.357   0.268  -6.058  0.00  0.00    -0.281 N 
ATOM     13  C   UNL     1       9.081   2.528  -7.018  0.00  0.00    +0.047 C 
ATOM     14  H   UNL     1       9.829  -0.243  -6.734  0.00  0.00    +0.152 HD
BRANCH   6  19
ATOM     15  C   UNL     1       3.833  -0.514  -9.287  0.00  0.00    +0.044 C 
ATOM     16  C   UNL     1       5.025  -0.024  -8.506  0.00  0.00    -0.050 A 
ATOM     17  C   UNL     1       6.282  -0.532  -8.772  0.00  0.00    +0.004 A 
ATOM     18  C   UNL     1       7.375  -0.082  -8.055  0.00  0.00    +0.006 A 
ATOM     19  C   UNL     1       7.211   0.876  -7.072  0.00  0.00    -0.015 A 
ATOM     20  C   UNL     1       5.952   1.380  -6.802  0.00  0.00    +0.006 A 
ATOM     21  C   UNL     1       4.860   0.934  -7.522  0.00  0.00    +0.004 A 
ENDBRANCH   6  19
ENDBRANCH   5   9
ENDBRANCH   1   5
BRANCH   3  22
ATOM     22  C   UNL     1       6.121  -0.894  -0.366  0.00  0.00    +0.203 C 
BRANCH  22  23
ATOM     23  C   UNL     1       4.822  -0.132  -0.316  0.00  0.00    +0.235 C 
ATOM     24  O   UNL     1       4.794   1.040  -0.625  0.00  0.00    -0.274 OA
ATOM     25  N   UNL     1       3.691  -0.753   0.074  0.00  0.00    -0.284 N 
ATOM     26  H   UNL     1       3.725  -1.670   0.389  0.00  0.00    +0.155 HD
BRANCH  25  27
ATOM     27  C   UNL     1       2.468  -0.076   0.024  0.00  0.00    +0.039 A 
ATOM     28  C   UNL     1       1.409  -0.604  -0.703  0.00  0.00    -0.029 A 
ATOM     29  C   UNL     1       0.203   0.067  -0.750  0.00  0.00    +0.008 A 
ATOM     30  C   UNL     1       0.049   1.264  -0.074  0.00  0.00    -0.050 A 
ATOM     31  C   UNL     1       1.101   1.792   0.650  0.00  0.00    +0.008 A 
ATOM     32  C   UNL     1       2.309   1.126   0.702  0.00  0.00    -0.029 A 
ATOM     33  C   UNL     1       3.456   1.702   1.493  0.00  0.00    +0.045 C 
ATOM     34  C   UNL     1      -1.267   1.997  -0.133  0.00  0.00    +0.044 C 
ATOM     35  C   UNL     1       1.576  -1.908  -1.440  0.00  0.00    +0.045 C 
ENDBRANCH  25  27
ENDBRANCH  22  23
ENDBRANCH   3  22
TORSDOF 6
