REMARK  Name = ZINC46489745
REMARK  6 active torsions:
REMARK  status: ('A' for Active; 'I' for Inactive)
REMARK    1  A    between atoms: C_1  and  C_2
REMARK    2  A    between atoms: C_8  and  N_10
REMARK    3  A    between atoms: C_14  and  C_16
REMARK    4  A    between atoms: C_16  and  N_17
REMARK    5  A    between atoms: N_17  and  C_18
REMARK    6  A    between atoms: C_21  and  N_24
REMARK                            x       y       z     vdW  Elec       q    Type
REMARK                         _______ _______ _______ _____ _____    ______ ____
ROOT
ATOM      1  N   UNL     1       2.116  -0.004   1.231  0.00  0.00    -0.296 N 
ATOM      2  C   UNL     1       2.795   0.128   2.388  0.00  0.00    +0.306 C 
ATOM      3  O   UNL     1       2.267  -0.174   3.440  0.00  0.00    -0.252 OA
ATOM      4  N   UNL     1       4.059   0.594   2.379  0.00  0.00    -0.239 N 
ATOM      5  C   UNL     1       4.738   0.726   3.536  0.00  0.00    +0.237 C 
ATOM      6  O   UNL     1       4.211   0.424   4.585  0.00  0.00    -0.274 OA
ATOM      7  H   UNL     1       2.538   0.237   0.392  0.00  0.00    +0.151 HD
ATOM      8  H   UNL     1       4.481   0.835   1.539  0.00  0.00    +0.159 HD
ENDROOT
BRANCH   1  15
ATOM      9  C   UNL     1      -0.019   1.526   0.010  0.00  0.00    +0.009 C 
ATOM     10  C   UNL     1       0.002  -0.004   0.002  0.00  0.00    +0.006 C 
ATOM     11  C   UNL     1      -1.433  -0.534   0.013  0.00  0.00    +0.005 C 
ATOM     12  C   UNL     1      -1.413  -2.063   0.004  0.00  0.00    +0.000 C 
ATOM     13  C   UNL     1      -0.673  -2.570   1.244  0.00  0.00    +0.002 C 
ATOM     14  C   UNL     1       0.763  -2.041   1.233  0.00  0.00    +0.022 C 
ATOM     15  C   UNL     1       0.742  -0.511   1.242  0.00  0.00    +0.077 C 
ENDBRANCH   1  15
BRANCH   5  16
ATOM     16  C   UNL     1       6.152   1.247   3.525  0.00  0.00    +0.198 C 
BRANCH  16  17
ATOM     17  N   UNL     1       6.665   1.296   4.896  0.00  0.00    -0.335 N 
ATOM     18  H   UNL     1       6.103   1.014   5.635  0.00  0.00    +0.147 HD
BRANCH  17  19
ATOM     19  C   UNL     1       7.964   1.750   5.141  0.00  0.00    +0.028 A 
ATOM     20  C   UNL     1       8.767   2.159   4.084  0.00  0.00    +0.025 A 
ATOM     21  C   UNL     1      10.050   2.608   4.326  0.00  0.00    +0.029 A 
ATOM     22  C   UNL     1      10.538   2.648   5.625  0.00  0.00    +0.067 A 
ATOM     23  C   UNL     1       9.736   2.239   6.682  0.00  0.00    +0.029 A 
ATOM     24  C   UNL     1       8.451   1.796   6.441  0.00  0.00    +0.025 A 
BRANCH  22  25
ATOM     25  N   UNL     1      11.843   3.103   5.871  0.00  0.00    -0.220 N 
ATOM     26  C   UNL     1      12.454   3.195   7.067  0.00  0.00    +0.225 A 
ATOM     27  N   UNL     1      13.661   3.662   6.871  0.00  0.00    -0.222 NA
ATOM     28  C   UNL     1      13.855   3.880   5.571  0.00  0.00    +0.245 A 
ATOM     29  N   UNL     1      12.773   3.548   4.917  0.00  0.00    -0.154 NA
ENDBRANCH  22  25
ENDBRANCH  17  19
ENDBRANCH  16  17
ENDBRANCH   5  16
TORSDOF 5
