REMARK  Name = ZINC12502850
REMARK  8 active torsions:
REMARK  status: ('A' for Active; 'I' for Inactive)
REMARK    1  A    between atoms: C_6  and  O_29
REMARK    2  A    between atoms: C_7  and  C_11
REMARK    3  A    between atoms: N_13  and  N_14
REMARK    4  A    between atoms: N_14  and  C_15
REMARK    5  A    between atoms: C_15  and  N_17
REMARK    6  A    between atoms: C_18  and  C_20
REMARK    7  A    between atoms: C_20  and  O_21
REMARK    8  A    between atoms: O_21  and  C_22
REMARK                            x       y       z     vdW  Elec       q    Type
REMARK                         _______ _______ _______ _____ _____    ______ ____
ROOT
ATOM      1  N   UNL     1       4.134   8.603   0.007  0.00  0.00    -0.245 N 
ATOM      2  H   UNL     1       3.995   9.563   0.013  0.00  0.00    +0.172 HD
ENDROOT
BRANCH   1   5
ATOM      3  C   UNL     1       6.494   8.917  -0.013  0.00  0.00    +0.264 C 
ATOM      4  O   UNL     1       6.320  10.120  -0.006  0.00  0.00    -0.269 OA
ATOM      5  N   UNL     1       5.435   8.083  -0.008  0.00  0.00    -0.231 N 
ATOM      6  H   UNL     1       5.574   7.123  -0.014  0.00  0.00    +0.173 HD
BRANCH   3  13
ATOM      7  C   UNL     1      10.872   4.627  -0.073  0.00  0.00    +0.001 A 
ATOM      8  C   UNL     1      11.957   5.502  -0.079  0.00  0.00    +0.001 A 
ATOM      9  C   UNL     1      11.771   6.850  -0.071  0.00  0.00    +0.008 A 
ATOM     10  C   UNL     1      10.466   7.374  -0.057  0.00  0.00    -0.014 A 
ATOM     11  C   UNL     1      10.243   8.761  -0.049  0.00  0.00    +0.054 A 
ATOM     12  C   UNL     1       8.970   9.246  -0.035  0.00  0.00    +0.130 A 
ATOM     13  C   UNL     1       7.864   8.369  -0.029  0.00  0.00    +0.080 A 
ATOM     14  C   UNL     1       8.057   6.998  -0.032  0.00  0.00    +0.025 A 
ATOM     15  C   UNL     1       9.362   6.483  -0.051  0.00  0.00    -0.017 A 
ATOM     16  C   UNL     1       9.595   5.096  -0.060  0.00  0.00    +0.008 A 
BRANCH  12  17
ATOM     17  O   UNL     1       8.762  10.588  -0.026  0.00  0.00    -0.506 OA
ATOM     18  H   UNL     1       8.710  10.972   0.860  0.00  0.00    +0.292 HD
ENDBRANCH  12  17
ENDBRANCH   3  13
ENDBRANCH   1   5
BRANCH   1  19
ATOM     19  C   UNL     1       3.075   7.769   0.013  0.00  0.00    +0.153 C 
ATOM     20  S   UNL     1       1.485   8.404   0.031  0.00  0.00    -0.017 S 
BRANCH  19  21
ATOM     21  N   UNL     1       3.268   6.435   0.004  0.00  0.00    -0.264 N 
ATOM     22  C   UNL     1       2.209   5.601   0.010  0.00  0.00    +0.256 C 
ATOM     23  O   UNL     1       1.083   6.051   0.023  0.00  0.00    -0.272 OA
ATOM     24  H   UNL     1       4.169   6.075  -0.006  0.00  0.00    +0.157 HD
BRANCH  22  25
ATOM     25  C   UNL     1       2.425   4.109   0.001  0.00  0.00    +0.324 C 
BRANCH  25  26
ATOM     26  O   UNL     1       1.159   3.445   0.009  0.00  0.00    -0.483 OA
BRANCH  26  27
ATOM     27  C   UNL     1       1.176   2.086   0.002  0.00  0.00    +0.121 A 
ATOM     28  C   UNL     1      -0.017   1.377   0.010  0.00  0.00    +0.047 A 
ATOM     29  C   UNL     1       0.002  -0.004   0.002  0.00  0.00    +0.023 A 
ATOM     30  C   UNL     1       1.209  -0.680  -0.013  0.00  0.00    +0.041 A 
ATOM     31  C   UNL     1       2.399   0.025  -0.020  0.00  0.00    +0.023 A 
ATOM     32  C   UNL     1       2.385   1.406  -0.012  0.00  0.00    +0.047 A 
ATOM     33 CL   UNL     1       1.230  -2.416  -0.023  0.00  0.00    -0.084 Cl
ENDBRANCH  26  27
ENDBRANCH  25  26
ENDBRANCH  22  25
ENDBRANCH  19  21
ENDBRANCH   1  19
TORSDOF 8
