REMARK  Name = ZINC62750296
REMARK  5 active torsions:
REMARK  status: ('A' for Active; 'I' for Inactive)
REMARK    1  A    between atoms: C_1  and  C_2
REMARK    2  A    between atoms: C_2  and  C_3
REMARK    3  A    between atoms: C_7  and  C_20
REMARK    4  A    between atoms: C_9  and  N_12
REMARK    5  A    between atoms: C_16  and  C_19
REMARK                            x       y       z     vdW  Elec       q    Type
REMARK                         _______ _______ _______ _____ _____    ______ ____
ROOT
ATOM      1  C   UNL     1      -1.857  -0.049   1.748  0.00  0.00    -0.013 C 
ATOM      2  C   UNL     1      -2.254  -1.128   2.758  0.00  0.00    +0.004 C 
ATOM      3  C   UNL     1      -3.684  -1.590   2.474  0.00  0.00    +0.013 C 
ATOM      4  C   UNL     1      -3.764  -2.163   1.058  0.00  0.00    +0.089 C 
ATOM      5  C   UNL     1      -3.367  -1.085   0.048  0.00  0.00    -0.054 C 
ATOM      6  C   UNL     1      -1.936  -0.622   0.332  0.00  0.00    -0.011 C 
ENDROOT
BRANCH   5   7
ATOM      7  N   UNL     1      -3.443  -1.635  -1.312  0.00  0.00    +0.382 N 
ATOM      8  C   UNL     1      -2.437  -2.692  -1.467  0.00  0.00    -0.078 C 
ATOM      9  C   UNL     1      -2.566  -3.324  -2.855  0.00  0.00    -0.018 C 
ATOM     10  C   UNL     1      -2.347  -2.248  -3.922  0.00  0.00    -0.001 C 
ATOM     11  C   UNL     1      -3.353  -1.115  -3.705  0.00  0.00    -0.031 C 
ATOM     12  C   UNL     1      -3.195  -0.565  -2.285  0.00  0.00    -0.075 C 
ATOM     13  C   UNL     1      -3.093   0.001  -4.718  0.00  0.00    +0.005 C 
ATOM     14  H   UNL     1      -4.362  -2.022  -1.466  0.00  0.00    -0.081 HD
ENDBRANCH   5   7
BRANCH   4  15
ATOM     15  C   UNL     1      -5.173  -2.619   0.778  0.00  0.00    +0.357 C 
ATOM     16  O   UNL     1      -6.089  -1.814   0.798  0.00  0.00    -0.246 OA
ATOM     17  O   UNL     1      -5.397  -3.792   0.533  0.00  0.00    -0.246 OA
ENDBRANCH   4  15
BRANCH   1  19
ATOM     18  C   UNL     1      -0.373   1.099   3.399  0.00  0.00    +0.004 C 
ATOM     19  C   UNL     1      -0.426   0.413   2.032  0.00  0.00    -0.000 C 
ENDBRANCH   1  19
TORSDOF 3
