REMARK  Name = ZINC13592151
REMARK  6 active torsions:
REMARK  status: ('A' for Active; 'I' for Inactive)
REMARK    1  A    between atoms: C_3  and  O_39
REMARK    2  A    between atoms: C_4  and  O_38
REMARK    3  A    between atoms: C_6  and  C_7
REMARK    4  A    between atoms: C_7  and  C_8
REMARK    5  A    between atoms: N_16  and  C_19
REMARK    6  A    between atoms: C_19  and  C_20
REMARK                            x       y       z     vdW  Elec       q    Type
REMARK                         _______ _______ _______ _____ _____    ______ ____
ROOT
ATOM      1  C   UNL     1      -1.746  -1.026  -1.429  0.00  0.00    +0.072 C 
ATOM      2  C   UNL     1      -3.026  -1.888  -1.447  0.00  0.00    +0.107 C 
ATOM      3  C   UNL     1      -3.873  -1.320  -2.620  0.00  0.00    +0.122 C 
ATOM      4  C   UNL     1      -3.897  -2.457  -3.615  0.00  0.00    +0.228 C 
ATOM      5  O   UNL     1      -4.454  -2.433  -4.692  0.00  0.00    -0.275 OA
ATOM      6  N   UNL     1      -3.208  -3.493  -3.124  0.00  0.00    -0.239 N 
ATOM      7  C   UNL     1      -2.675  -3.288  -1.897  0.00  0.00    +0.227 C 
ATOM      8  O   UNL     1      -2.022  -4.086  -1.260  0.00  0.00    -0.275 OA
ATOM      9  C   UNL     1      -3.044  -0.151  -3.165  0.00  0.00    +0.136 C 
ATOM     10  N   UNL     1      -2.135   0.252  -2.081  0.00  0.00    -0.295 NA
ATOM     11  C   UNL     1      -3.920   0.982  -3.619  0.00  0.00    +0.006 A 
ATOM     12  C   UNL     1      -4.855   1.769  -2.984  0.00  0.00    +0.046 A 
ATOM     13  C   UNL     1      -5.518   2.761  -3.687  0.00  0.00    +0.124 A 
ATOM     14  C   UNL     1      -5.236   2.959  -5.029  0.00  0.00    +0.040 A 
ATOM     15  C   UNL     1      -4.301   2.171  -5.667  0.00  0.00    +0.026 A 
ATOM     16  C   UNL     1      -3.630   1.172  -4.966  0.00  0.00    +0.039 A 
ATOM     17  N   UNL     1      -2.656   0.260  -5.383  0.00  0.00    -0.283 N 
ATOM     18  C   UNL     1      -2.260  -0.553  -4.385  0.00  0.00    +0.243 C 
ATOM     19  O   UNL     1      -1.433  -1.436  -4.455  0.00  0.00    -0.273 OA
ATOM     20  F   UNL     1      -6.436   3.534  -3.067  0.00  0.00    -0.205 F 
ATOM     21  H   UNL     1      -2.612   0.859  -1.431  0.00  0.00    +0.124 HD
ATOM     22  H   UNL     1      -2.307   0.217  -6.287  0.00  0.00    +0.155 HD
ENDROOT
BRANCH   1  23
ATOM     23  C   UNL     1      -1.294  -0.774   0.010  0.00  0.00    +0.054 C 
BRANCH  23  29
ATOM     24  C   UNL     1      -0.017   1.378   0.010  0.00  0.00    +0.007 A 
ATOM     25  C   UNL     1       1.170   2.089   0.002  0.00  0.00    +0.049 A 
ATOM     26  C   UNL     1       2.380   1.415  -0.013  0.00  0.00    +0.158 A 
ATOM     27  C   UNL     1       2.399   0.024  -0.021  0.00  0.00    +0.158 A 
ATOM     28  C   UNL     1       1.207  -0.682  -0.013  0.00  0.00    +0.052 A 
ATOM     29  C   UNL     1       0.002  -0.004   0.002  0.00  0.00    -0.042 A 
BRANCH  27  30
ATOM     30  O   UNL     1       3.585  -0.642  -0.036  0.00  0.00    -0.503 OA
ATOM     31  H   UNL     1       3.937  -0.839   0.843  0.00  0.00    +0.292 HD
ENDBRANCH  27  30
BRANCH  26  32
ATOM     32  O   UNL     1       3.548   2.113  -0.021  0.00  0.00    -0.503 OA
ATOM     33  H   UNL     1       3.894   2.310   0.860  0.00  0.00    +0.292 HD
ENDBRANCH  26  32
ENDBRANCH  23  29
ENDBRANCH   1  23
BRANCH   6  34
ATOM     34  C   UNL     1      -3.049  -4.755  -3.852  0.00  0.00    +0.148 C 
BRANCH  34  35
ATOM     35  C   UNL     1      -1.791  -4.687  -4.720  0.00  0.00    +0.136 C 
ATOM     36  C   UNL     1      -1.622  -5.999  -5.526  0.00  0.00    +0.035 C 
ATOM     37  C   UNL     1      -0.773  -5.501  -6.727  0.00  0.00    +0.031 C 
ATOM     38  C   UNL     1      -1.309  -4.069  -6.935  0.00  0.00    +0.160 C 
ATOM     39  O   UNL     1      -1.923  -3.652  -5.708  0.00  0.00    -0.375 OA
ENDBRANCH  34  35
ENDBRANCH   6  34
TORSDOF 6
