REMARK  Name = ZINC12340209
REMARK  7 active torsions:
REMARK  status: ('A' for Active; 'I' for Inactive)
REMARK    1  A    between atoms: C_4  and  C_7
REMARK    2  A    between atoms: C_7  and  N_8
REMARK    3  A    between atoms: C_11  and  C_15
REMARK    4  A    between atoms: C_15  and  C_16
REMARK    5  A    between atoms: N_18  and  N_19
REMARK    6  A    between atoms: C_20  and  C_21
REMARK    7  A    between atoms: C_26  and  O_27
REMARK                            x       y       z     vdW  Elec       q    Type
REMARK                         _______ _______ _______ _____ _____    ______ ____
ROOT
ATOM      1  C   UNL     1      -4.466  -0.484   0.998  0.00  0.00    +0.091 C 
ENDROOT
BRANCH   1   5
ATOM      2  N   UNL     1      -7.938  -1.549   1.157  0.00  0.00    -0.300 N 
ATOM      3  C   UNL     1      -7.928  -2.840   0.474  0.00  0.00    +0.089 C 
ATOM      4  C   UNL     1      -6.603  -3.560   0.734  0.00  0.00    -0.062 C 
ATOM      5  C   UNL     1      -5.460  -1.559   1.444  0.00  0.00    +0.025 C 
ATOM      6  C   UNL     1      -6.825  -0.947   1.589  0.00  0.00    +0.202 C 
ATOM      7  O   UNL     1      -6.921   0.140   2.119  0.00  0.00    -0.277 OA
ATOM      8  N   UNL     1      -5.495  -2.634   0.439  0.00  0.00    +0.388 N 
ATOM      9  H   UNL     1      -5.632  -2.225  -0.493  0.00  0.00    -0.085 HD
ATOM     10  H   UNL     1      -4.607  -3.148   0.459  0.00  0.00    -0.085 HD
BRANCH   2  11
ATOM     11  C   UNL     1      -9.225  -0.886   1.380  0.00  0.00    +0.142 C 
BRANCH  11  15
ATOM     12  C   UNL     1     -10.120   1.640  -1.946  0.00  0.00    +0.000 A 
ATOM     13  C   UNL     1     -10.538   0.322  -1.947  0.00  0.00    +0.000 A 
ATOM     14  C   UNL     1     -10.248  -0.495  -0.871  0.00  0.00    +0.005 A 
ATOM     15  C   UNL     1      -9.540   0.005   0.207  0.00  0.00    -0.030 A 
ATOM     16  C   UNL     1      -9.128   1.325   0.210  0.00  0.00    +0.005 A 
ATOM     17  C   UNL     1      -9.413   2.140  -0.869  0.00  0.00    +0.000 A 
ENDBRANCH  11  15
ENDBRANCH   2  11
ENDBRANCH   1   5
BRANCH   1  18
ATOM     18  C   UNL     1      -3.076  -1.065   0.975  0.00  0.00    +0.231 C 
ATOM     19  O   UNL     1      -2.897  -2.224   1.285  0.00  0.00    -0.274 OA
ATOM     20  N   UNL     1      -2.031  -0.296   0.610  0.00  0.00    -0.207 N 
ATOM     21  H   UNL     1      -2.174   0.631   0.362  0.00  0.00    +0.177 HD
BRANCH  20  22
ATOM     22  N   UNL     1      -0.738  -0.836   0.589  0.00  0.00    -0.188 NA
ATOM     23  C   UNL     1       0.282  -0.067   0.359  0.00  0.00    +0.142 C 
BRANCH  23  24
ATOM     24  C   UNL     1       0.179   1.385   0.590  0.00  0.00    +0.039 A 
ATOM     25  C   UNL     1      -0.763   1.887   1.492  0.00  0.00    +0.033 A 
ATOM     26  C   UNL     1      -0.856   3.247   1.704  0.00  0.00    +0.043 A 
ATOM     27  C   UNL     1      -0.018   4.118   1.027  0.00  0.00    +0.043 A 
ATOM     28  C   UNL     1       0.919   3.633   0.132  0.00  0.00    +0.084 A 
ATOM     29  C   UNL     1       1.028   2.269  -0.088  0.00  0.00    +0.144 A 
ATOM     30 CL   UNL     1       1.964   4.734  -0.711  0.00  0.00    -0.080 Cl
ATOM     31 CL   UNL     1      -2.027   3.869   2.824  0.00  0.00    -0.083 Cl
BRANCH  29  32
ATOM     32  O   UNL     1       1.952   1.791  -0.963  0.00  0.00    -0.505 OA
ATOM     33  H   UNL     1       1.656   1.788  -1.883  0.00  0.00    +0.292 HD
ENDBRANCH  29  32
ENDBRANCH  23  24
ENDBRANCH  20  22
ENDBRANCH   1  18
TORSDOF 7
