REMARK  Name = ZINC50251042
REMARK  3 active torsions:
REMARK  status: ('A' for Active; 'I' for Inactive)
REMARK    1  A    between atoms: C_10  and  C_23
REMARK    2  A    between atoms: C_18  and  C_21
REMARK    3  A    between atoms: C_21  and  N_22
REMARK                            x       y       z     vdW  Elec       q    Type
REMARK                         _______ _______ _______ _____ _____    ______ ____
ROOT
ATOM      1  C   UNL     1      -0.075   1.344  -0.054  0.00  0.00    +0.000 C 
ATOM      2  C   UNL     1       1.342   1.925  -0.101  0.00  0.00    +0.002 C 
ATOM      3  C   UNL     1       2.055   1.564   1.202  0.00  0.00    +0.023 C 
ATOM      4  C   UNL     1       2.122   0.066   1.393  0.00  0.00    +0.082 C 
ATOM      5  C   UNL     1       0.745  -0.615   1.291  0.00  0.00    +0.012 C 
ATOM      6  C   UNL     1       0.022  -0.178   0.016  0.00  0.00    +0.005 C 
ATOM      7  C   UNL     1       1.176  -2.098   1.072  0.00  0.00    +0.039 C 
ATOM      8  C   UNL     1       2.432  -1.957   0.183  0.00  0.00    +0.191 C 
ATOM      9  N   UNL     1       2.955  -0.603   0.389  0.00  0.00    -0.269 N 
ATOM     10  C   UNL     1       4.025  -0.071  -0.235  0.00  0.00    +0.306 C 
ATOM     11  O   UNL     1       4.472   0.999   0.131  0.00  0.00    -0.252 OA
ATOM     12  N   UNL     1       4.599  -0.726  -1.263  0.00  0.00    -0.285 N 
ATOM     13  C   UNL     1       4.079  -1.944  -1.901  0.00  0.00    +0.109 C 
ATOM     14  C   UNL     1       5.049  -2.313  -3.043  0.00  0.00    +0.022 C 
ATOM     15  C   UNL     1       5.754  -0.965  -3.349  0.00  0.00    -0.010 C 
ATOM     16  C   UNL     1       5.849  -0.334  -1.940  0.00  0.00    +0.111 C 
ENDROOT
BRANCH   8  17
ATOM     17  C   UNL     1       3.459  -2.987   0.580  0.00  0.00    +0.376 C 
ATOM     18  O   UNL     1       3.235  -4.172   0.401  0.00  0.00    -0.244 OA
ATOM     19  O   UNL     1       4.514  -2.634   1.080  0.00  0.00    -0.244 OA
ENDBRANCH   8  17
BRANCH  15  20
ATOM     20  C   UNL     1       7.144  -1.196  -3.945  0.00  0.00    -0.081 C 
BRANCH  20  21
ATOM     21  N   UNL     1       7.012  -1.820  -5.269  0.00  0.00    +0.378 N 
ATOM     22  H   UNL     1       7.929  -1.972  -5.662  0.00  0.00    -0.090 HD
ATOM     23  H   UNL     1       6.534  -2.704  -5.178  0.00  0.00    -0.090 HD
ATOM     24  H   UNL     1       6.482  -1.212  -5.876  0.00  0.00    -0.090 HD
ENDBRANCH  20  21
ENDBRANCH  15  20
TORSDOF 3
