REMARK  Name = ZINC39357942
REMARK  4 active torsions:
REMARK  status: ('A' for Active; 'I' for Inactive)
REMARK    1  A    between atoms: C_13  and  N_19
REMARK    2  A    between atoms: N_19  and  C_20
REMARK    3  A    between atoms: C_20  and  C_21
REMARK    4  A    between atoms: C_26  and  C_27
REMARK                            x       y       z     vdW  Elec       q    Type
REMARK                         _______ _______ _______ _____ _____    ______ ____
ROOT
ATOM      1  N   UNL     1       2.855  -5.539  -0.841  0.00  0.00    +0.382 N 
ATOM      2  H   UNL     1       1.937  -5.783  -1.180  0.00  0.00    -0.085 HD
ATOM      3  H   UNL     1       3.184  -4.716  -1.325  0.00  0.00    -0.085 HD
ENDROOT
BRANCH   1  15
ATOM      4  C   UNL     1      -0.761   1.016   0.044  0.00  0.00    +0.005 A 
ATOM      5  C   UNL     1       0.365   1.827   0.007  0.00  0.00    +0.020 A 
ATOM      6  C   UNL     1       1.617   1.246  -0.030  0.00  0.00    +0.113 A 
ATOM      7  N   UNL     1       1.754  -0.066  -0.032  0.00  0.00    -0.239 NA
ATOM      8  C   UNL     1       0.705  -0.874   0.003  0.00  0.00    +0.141 A 
ATOM      9  C   UNL     1      -0.587  -0.356   0.042  0.00  0.00    +0.045 A 
ATOM     10  N   UNL     1       0.895  -2.251  -0.001  0.00  0.00    -0.204 N 
ATOM     11  C   UNL     1       2.155  -2.976  -0.033  0.00  0.00    +0.107 C 
ATOM     12  C   UNL     1       3.400  -2.361   0.561  0.00  0.00    +0.025 C 
ATOM     13  C   UNL     1       4.518  -3.412   0.434  0.00  0.00    +0.000 C 
ATOM     14  C   UNL     1       4.146  -4.732   1.102  0.00  0.00    -0.015 C 
ATOM     15  C   UNL     1       2.789  -5.266   0.601  0.00  0.00    -0.062 C 
ATOM     16  C   UNL     1       1.774  -4.185   0.869  0.00  0.00    +0.040 C 
ATOM     17  C   UNL     1       0.342  -4.380   0.511  0.00  0.00    +0.107 C 
ATOM     18  N   UNL     1      -0.096  -3.264   0.033  0.00  0.00    -0.190 NA
ENDBRANCH   1  15
BRANCH   1  19
ATOM     19  C   UNL     1       3.780  -6.653  -1.087  0.00  0.00    -0.067 C 
BRANCH  19  20
ATOM     20  C   UNL     1       3.849  -6.937  -2.589  0.00  0.00    +0.066 C 
ATOM     21  C   UNL     1       2.537  -7.510  -3.085  0.00  0.00    +0.115 C 
ATOM     22  N   UNL     1       2.809  -8.688  -3.543  0.00  0.00    -0.161 NA
ATOM     23  N   UNL     1       4.158  -9.006  -3.426  0.00  0.00    -0.153 NA
ATOM     24  C   UNL     1       4.849  -8.039  -2.879  0.00  0.00    +0.077 C 
BRANCH  24  25
ATOM     25  C   UNL     1       6.294  -8.022  -2.602  0.00  0.00    -0.001 A 
ATOM     26  C   UNL     1       6.881  -6.903  -2.001  0.00  0.00    +0.011 A 
ATOM     27  C   UNL     1       8.235  -6.895  -1.744  0.00  0.00    +0.020 A 
ATOM     28  C   UNL     1       9.014  -7.990  -2.079  0.00  0.00    +0.041 A 
ATOM     29  C   UNL     1       8.440  -9.101  -2.674  0.00  0.00    +0.020 A 
ATOM     30  C   UNL     1       7.086  -9.126  -2.932  0.00  0.00    +0.011 A 
ATOM     31 CL   UNL     1      10.719  -7.970  -1.751  0.00  0.00    -0.084 Cl
ENDBRANCH  24  25
ENDBRANCH  19  20
ENDBRANCH   1  19
TORSDOF 4
