REMARK  Name = ZINC04193525
REMARK  4 active torsions:
REMARK  status: ('A' for Active; 'I' for Inactive)
REMARK    1  A    between atoms: C_4  and  S_7
REMARK    2  A    between atoms: S_7  and  C_10
REMARK    3  A    between atoms: N_15  and  C_18
REMARK    4  A    between atoms: C_16  and  N_17
REMARK                            x       y       z     vdW  Elec       q    Type
REMARK                         _______ _______ _______ _____ _____    ______ ____
ROOT
ATOM      1  C   UNL     1      -1.083   1.635  -0.410  0.00  0.00    +0.150 A 
ATOM      2  C   UNL     1      -0.101   0.653  -0.428  0.00  0.00    +0.144 A 
ATOM      3  N   UNL     1       1.174   0.991  -0.350  0.00  0.00    -0.229 NA
ATOM      4  C   UNL     1       1.545   2.265  -0.248  0.00  0.00    +0.186 A 
ATOM      5  S   UNL     1       3.211   2.650  -0.150  0.00  0.00    -0.011 S 
ATOM      6  N   UNL     1       0.636   3.257  -0.221  0.00  0.00    -0.275 N 
ATOM      7  C   UNL     1      -0.698   2.962  -0.299  0.00  0.00    +0.130 A 
ENDROOT
BRANCH   6   8
ATOM      8  C   UNL     1       1.054   4.589  -0.113  0.00  0.00    +0.052 A 
ATOM      9  C   UNL     1       0.725   5.333   1.013  0.00  0.00    +0.026 A 
ATOM     10  C   UNL     1       1.143   6.645   1.119  0.00  0.00    +0.003 A 
ATOM     11  C   UNL     1       1.880   7.222   0.101  0.00  0.00    +0.020 A 
ATOM     12  C   UNL     1       2.205   6.486  -1.025  0.00  0.00    +0.043 A 
ATOM     13  C   UNL     1       1.794   5.171  -1.134  0.00  0.00    +0.046 A 
ATOM     14 CL   UNL     1       3.129   7.215  -2.301  0.00  0.00    -0.083 Cl
ENDBRANCH   6   8
BRANCH   1  15
ATOM     15  S   UNL     1      -2.787   1.202  -0.521  0.00  0.00    +0.030 S 
ATOM     16  O   UNL     1      -2.841  -0.215  -0.612  0.00  0.00    -0.164 OA
ATOM     17  O   UNL     1      -3.457   1.926   0.502  0.00  0.00    -0.164 OA
BRANCH  15  21
ATOM     18  C   UNL     1      -4.324   2.811  -4.463  0.00  0.00    +0.000 A 
ATOM     19  C   UNL     1      -3.666   1.597  -4.422  0.00  0.00    +0.002 A 
ATOM     20  C   UNL     1      -3.196   1.105  -3.218  0.00  0.00    +0.027 A 
ATOM     21  C   UNL     1      -3.385   1.829  -2.055  0.00  0.00    +0.094 A 
ATOM     22  C   UNL     1      -4.048   3.041  -2.096  0.00  0.00    +0.027 A 
ATOM     23  C   UNL     1      -4.513   3.535  -3.300  0.00  0.00    +0.002 A 
ENDBRANCH  15  21
ENDBRANCH   1  15
BRANCH   7  24
ATOM     24  N   UNL     1      -1.637   3.962  -0.273  0.00  0.00    -0.343 N 
ATOM     25  H   UNL     1      -1.357   4.891  -0.296  0.00  0.00    +0.144 HD
ATOM     26  H   UNL     1      -2.580   3.740  -0.232  0.00  0.00    +0.144 HD
ENDBRANCH   7  24
TORSDOF 4
