REMARK  Name = ZINC12112745
REMARK  5 active torsions:
REMARK  status: ('A' for Active; 'I' for Inactive)
REMARK    1  A    between atoms: C_1  and  C_2
REMARK    2  A    between atoms: C_5  and  O_18
REMARK    3  A    between atoms: C_6  and  N_8
REMARK    4  A    between atoms: C_10  and  C_17
REMARK    5  A    between atoms: O_18  and  C_19
REMARK                            x       y       z     vdW  Elec       q    Type
REMARK                         _______ _______ _______ _____ _____    ______ ____
ROOT
ATOM      1  N   UNL     1      -2.075   2.386   3.435  0.00  0.00    -0.295 N 
ATOM      2  C   UNL     1      -2.807   3.348   4.092  0.00  0.00    +0.149 A 
ATOM      3  C   UNL     1      -2.180   4.240   4.995  0.00  0.00    +0.098 A 
ATOM      4  N   UNL     1      -2.897   5.146   5.603  0.00  0.00    -0.174 NA
ATOM      5  N   UNL     1      -4.164   5.232   5.398  0.00  0.00    -0.254 N 
ATOM      6  H   UNL     1      -4.675   5.912   5.865  0.00  0.00    +0.191 HD
ATOM      7  C   UNL     1      -4.796   4.399   4.552  0.00  0.00    +0.195 A 
ATOM      8  S   UNL     1      -6.484   4.551   4.313  0.00  0.00    -0.010 S 
ATOM      9  N   UNL     1      -4.116   3.454   3.897  0.00  0.00    -0.205 NA
ATOM     10  C   UNL     1      -0.698   4.148   5.249  0.00  0.00    +0.071 C 
ATOM     11  H   UNL     1      -1.109   2.373   3.514  0.00  0.00    +0.154 HD
ENDROOT
BRANCH   1  17
ATOM     12  C   UNL     1      -6.107  -0.252   2.455  0.00  0.00    +0.044 C 
ATOM     13  C   UNL     1      -4.680   0.126   2.154  0.00  0.00    -0.048 A 
ATOM     14  C   UNL     1      -4.014  -0.477   1.102  0.00  0.00    +0.007 A 
ATOM     15  C   UNL     1      -2.706  -0.130   0.817  0.00  0.00    +0.048 A 
ATOM     16  C   UNL     1      -2.056   0.817   1.592  0.00  0.00    +0.141 A 
ATOM     17  C   UNL     1      -2.726   1.425   2.651  0.00  0.00    +0.075 A 
ATOM     18  C   UNL     1      -4.040   1.075   2.928  0.00  0.00    +0.030 A 
BRANCH  16  19
ATOM     19  O   UNL     1      -0.768   1.156   1.315  0.00  0.00    -0.493 OA
ATOM     20  C   UNL     1      -0.144   0.492   0.214  0.00  0.00    +0.277 C 
ENDBRANCH  16  19
ENDBRANCH   1  17
TORSDOF 2
