REMARK  Name = ZINC45026133
REMARK  5 active torsions:
REMARK  status: ('A' for Active; 'I' for Inactive)
REMARK    1  A    between atoms: C_4  and  C_7
REMARK    2  A    between atoms: C_7  and  N_8
REMARK    3  A    between atoms: C_9  and  C_22
REMARK    4  A    between atoms: C_12  and  S_13
REMARK    5  A    between atoms: S_13  and  C_14
REMARK                            x       y       z     vdW  Elec       q    Type
REMARK                         _______ _______ _______ _____ _____    ______ ____
ROOT
ATOM      1  N   UNL     1       4.152  -0.952   1.338  0.00  0.00    -0.295 N 
ATOM      2  C   UNL     1       4.933  -0.132   2.120  0.00  0.00    +0.201 A 
ATOM      3  N   UNL     1       5.085  -0.736   3.279  0.00  0.00    -0.125 NA
ATOM      4  N   UNL     1       4.461  -1.859   3.272  0.00  0.00    -0.122 NA
ATOM      5  C   UNL     1       3.868  -2.041   2.115  0.00  0.00    +0.198 A 
ENDROOT
BRANCH   2   6
ATOM      6  C   UNL     1       5.492   1.173   1.733  0.00  0.00    +0.172 A 
ATOM      7  C   UNL     1       6.019   2.100   2.581  0.00  0.00    +0.053 A 
ATOM      8  C   UNL     1       6.431   3.188   1.786  0.00  0.00    +0.042 A 
ATOM      9  C   UNL     1       6.140   2.876   0.508  0.00  0.00    +0.196 A 
ATOM     10  O   UNL     1       5.579   1.656   0.478  0.00  0.00    -0.460 OA
ENDBRANCH   2   6
BRANCH   1  11
ATOM     11  C   UNL     1       3.711  -0.707  -0.038  0.00  0.00    +0.161 C 
BRANCH  11  15
ATOM     12  C   UNL     1      -0.017   1.378   0.010  0.00  0.00    +0.000 A 
ATOM     13  C   UNL     1       1.171   2.086   0.002  0.00  0.00    +0.000 A 
ATOM     14  C   UNL     1       2.377   1.411  -0.013  0.00  0.00    +0.005 A 
ATOM     15  C   UNL     1       2.396   0.029  -0.020  0.00  0.00    -0.028 A 
ATOM     16  C   UNL     1       1.208  -0.679  -0.012  0.00  0.00    +0.005 A 
ATOM     17  C   UNL     1       0.002  -0.004   0.002  0.00  0.00    +0.000 A 
ENDBRANCH  11  15
ENDBRANCH   1  11
BRANCH   5  18
ATOM     18  S   UNL     1       2.893  -3.432   1.647  0.00  0.00    -0.030 S 
BRANCH  18  19
ATOM     19  C   UNL     1       2.913  -4.465   3.074  0.00  0.00    +0.111 A 
ATOM     20  C   UNL     1       2.236  -5.686   3.074  0.00  0.00    +0.075 A 
ATOM     21  C   UNL     1       2.280  -6.465   4.216  0.00  0.00    +0.135 A 
ATOM     22  N   UNL     1       2.959  -6.032   5.270  0.00  0.00    -0.203 NA
ATOM     23  C   UNL     1       3.592  -4.869   5.241  0.00  0.00    +0.215 A 
ATOM     24  N   UNL     1       3.578  -4.096   4.165  0.00  0.00    -0.208 NA
ATOM     25  N   UNL     1       4.290  -4.452   6.361  0.00  0.00    -0.327 N 
ATOM     26 CL   UNL     1       1.455  -7.991   4.269  0.00  0.00    -0.062 Cl
ATOM     27  H   UNL     1       4.311  -5.010   7.154  0.00  0.00    +0.145 HD
ATOM     28  H   UNL     1       4.757  -3.603   6.353  0.00  0.00    +0.145 HD
ENDBRANCH  18  19
ENDBRANCH   5  18
TORSDOF 5
