REMARK  Name = ZINC08418740
REMARK  9 active torsions:
REMARK  status: ('A' for Active; 'I' for Inactive)
REMARK    1  A    between atoms: C_1  and  C_2
REMARK    2  A    between atoms: C_7  and  N_12
REMARK    3  A    between atoms: C_9  and  C_11
REMARK    4  A    between atoms: N_12  and  C_13
REMARK    5  A    between atoms: C_13  and  N_15
REMARK    6  A    between atoms: N_15  and  N_16
REMARK    7  A    between atoms: C_17  and  C_19
REMARK    8  A    between atoms: C_19  and  N_20
REMARK    9  A    between atoms: C_21  and  C_23
REMARK                            x       y       z     vdW  Elec       q    Type
REMARK                         _______ _______ _______ _____ _____    ______ ____
ROOT
ATOM      1  N   UNL     1      -1.696   7.506   0.059  0.00  0.00    -0.234 N 
ATOM      2  C   UNL     1      -1.438   6.183   0.049  0.00  0.00    +0.246 C 
ATOM      3  O   UNL     1      -2.353   5.387   0.053  0.00  0.00    -0.273 OA
ATOM      4  H   UNL     1      -0.964   8.143   0.055  0.00  0.00    +0.173 HD
ENDROOT
BRANCH   1   5
ATOM      5  N   UNL     1      -3.021   7.962   0.074  0.00  0.00    -0.246 N 
ATOM      6  H   UNL     1      -3.752   7.325   0.077  0.00  0.00    +0.172 HD
BRANCH   5   7
ATOM      7  C   UNL     1      -3.278   9.284   0.083  0.00  0.00    +0.147 C 
ATOM      8  S   UNL     1      -4.897   9.841   0.102  0.00  0.00    -0.017 S 
BRANCH   7   9
ATOM      9  N   UNL     1      -2.261  10.169   0.078  0.00  0.00    -0.322 N 
ATOM     10  H   UNL     1      -1.344   9.854   0.068  0.00  0.00    +0.148 HD
BRANCH   9  16
ATOM     11  C   UNL     1      -2.891  14.126   1.543  0.00  0.00    +0.008 C 
ATOM     12  C   UNL     1      -1.642  13.856   0.702  0.00  0.00    -0.009 C 
ATOM     13  C   UNL     1      -1.877  14.340  -0.730  0.00  0.00    +0.003 C 
ATOM     14  C   UNL     1      -3.068  13.593  -1.333  0.00  0.00    +0.002 C 
ATOM     15  C   UNL     1      -2.776  12.091  -1.344  0.00  0.00    +0.022 C 
ATOM     16  C   UNL     1      -2.541  11.607   0.089  0.00  0.00    +0.075 C 
ATOM     17  C   UNL     1      -1.349  12.354   0.691  0.00  0.00    +0.009 C 
ATOM     18  C   UNL     1      -1.115  11.870   2.123  0.00  0.00    +0.009 C 
ENDBRANCH   9  16
ENDBRANCH   7   9
ENDBRANCH   5   7
ENDBRANCH   1   5
BRANCH   2  19
ATOM     19  C   UNL     1      -0.013   5.693   0.033  0.00  0.00    +0.202 C 
BRANCH  19  20
ATOM     20  N   UNL     1      -0.001   4.228   0.025  0.00  0.00    -0.303 N 
ATOM     21  C   UNL     1       1.172   3.564   0.010  0.00  0.00    +0.246 C 
ATOM     22  O   UNL     1       2.220   4.181   0.003  0.00  0.00    -0.270 OA
ATOM     23  H   UNL     1      -0.837   3.736   0.030  0.00  0.00    +0.150 HD
BRANCH  21  24
ATOM     24  C   UNL     1       1.185   2.087   0.002  0.00  0.00    +0.055 A 
ATOM     25  C   UNL     1      -0.017   1.375   0.010  0.00  0.00    +0.014 A 
ATOM     26  C   UNL     1       0.002  -0.004   0.002  0.00  0.00    +0.001 A 
ATOM     27  C   UNL     1       1.208  -0.684  -0.013  0.00  0.00    +0.001 A 
ATOM     28  C   UNL     1       2.402   0.014  -0.021  0.00  0.00    +0.021 A 
ATOM     29  C   UNL     1       2.398   1.395  -0.013  0.00  0.00    +0.053 A 
ATOM     30 CL   UNL     1       3.898   2.269  -0.022  0.00  0.00    -0.083 Cl
ENDBRANCH  21  24
ENDBRANCH  19  20
ENDBRANCH   2  19
TORSDOF 7
