REMARK  Name = ZINC15674006
REMARK  9 active torsions:
REMARK  status: ('A' for Active; 'I' for Inactive)
REMARK    1  A    between atoms: C_3  and  C_12
REMARK    2  A    between atoms: C_5  and  O_7
REMARK    3  A    between atoms: O_7  and  C_8
REMARK    4  A    between atoms: C_12  and  N_53
REMARK    5  A    between atoms: C_14  and  O_35
REMARK    6  A    between atoms: C_17  and  C_19
REMARK    7  A    between atoms: C_21  and  C_24
REMARK    8  A    between atoms: C_24  and  S_25
REMARK    9  A    between atoms: S_25  and  C_28
REMARK                            x       y       z     vdW  Elec       q    Type
REMARK                         _______ _______ _______ _____ _____    ______ ____
ROOT
ATOM      1  C   UNL     1      -3.356   1.966   2.072  0.00  0.00    -0.046 C 
ATOM      2  C   UNL     1      -2.944   1.853   3.551  0.00  0.00    +0.097 C 
ATOM      3  C   UNL     1      -2.232   0.485   3.668  0.00  0.00    +0.023 C 
ATOM      4  C   UNL     1      -1.793   0.197   2.211  0.00  0.00    +0.025 C 
ATOM      5  N   UNL     1      -2.923   0.718   1.433  0.00  0.00    +0.392 N 
ATOM      6  H   UNL     1      -3.692   0.038   1.441  0.00  0.00    -0.080 HD
ENDROOT
BRANCH   4   7
ATOM      7  C   UNL     1      -1.619  -1.283   1.990  0.00  0.00    +0.214 A 
ATOM      8  N   UNL     1      -0.489  -1.914   1.779  0.00  0.00    -0.196 NA
ATOM      9  C   UNL     1      -0.819  -3.211   1.641  0.00  0.00    +0.193 A 
ATOM     10  N   UNL     1      -2.109  -3.300   1.766  0.00  0.00    -0.060 NA
ATOM     11  O   UNL     1      -2.588  -2.204   1.967  0.00  0.00    -0.340 OA
BRANCH   9  12
ATOM     12  C   UNL     1       0.133  -4.350   1.384  0.00  0.00    +0.251 C 
BRANCH  12  13
ATOM     13  S   UNL     1       0.337  -4.576  -0.404  0.00  0.00    +0.004 S 
ATOM     14  O   UNL     1      -0.875  -5.045  -0.980  0.00  0.00    -0.169 OA
ATOM     15  O   UNL     1       1.022  -3.464  -0.964  0.00  0.00    -0.169 OA
BRANCH  13  16
ATOM     16  C   UNL     1       1.461  -5.923  -0.566  0.00  0.00    +0.089 A 
ATOM     17  C   UNL     1       2.821  -5.684  -0.627  0.00  0.00    +0.030 A 
ATOM     18  C   UNL     1       3.704  -6.741  -0.747  0.00  0.00    +0.040 A 
ATOM     19  C   UNL     1       3.225  -8.038  -0.819  0.00  0.00    +0.124 A 
ATOM     20  C   UNL     1       1.862  -8.276  -0.763  0.00  0.00    +0.040 A 
ATOM     21  C   UNL     1       0.982  -7.218  -0.637  0.00  0.00    +0.030 A 
ATOM     22  F   UNL     1       4.087  -9.071  -0.944  0.00  0.00    -0.205 F 
ENDBRANCH  13  16
ENDBRANCH  12  13
ENDBRANCH   9  12
ENDBRANCH   4   7
BRANCH   2  23
ATOM     23  O   UNL     1      -2.049   2.911   3.899  0.00  0.00    -0.394 OA
ATOM     24  H   UNL     1      -2.429   3.795   3.803  0.00  0.00    +0.210 HD
ENDBRANCH   2  23
BRANCH   5  25
ATOM     25  C   UNL     1      -2.513   0.977   0.019  0.00  0.00    -0.042 C 
BRANCH  25  28
ATOM     26  C   UNL     1       1.176   1.782   0.000  0.00  0.00    +0.004 A 
ATOM     27  C   UNL     1      -0.013   1.076   0.008  0.00  0.00    +0.002 A 
ATOM     28  C   UNL     1      -1.220   1.750   0.017  0.00  0.00    -0.060 A 
ATOM     29  C   UNL     1      -1.241   3.131   0.031  0.00  0.00    +0.047 A 
ATOM     30  C   UNL     1      -0.050   3.842   0.023  0.00  0.00    +0.130 A 
ATOM     31  C   UNL     1       1.160   3.163   0.007  0.00  0.00    +0.046 A 
BRANCH  30  32
ATOM     32  O   UNL     1      -0.069   5.201   0.030  0.00  0.00    -0.406 OA
BRANCH  32  33
ATOM     33  C   UNL     1       1.196   5.867   0.022  0.00  0.00    +0.575 C 
ATOM     34  F   UNL     1       1.905   5.507  -1.129  0.00  0.00    -0.133 F 
ATOM     35  F   UNL     1       0.994   7.251   0.031  0.00  0.00    -0.133 F 
ATOM     36  F   UNL     1       1.927   5.495   1.155  0.00  0.00    -0.133 F 
ENDBRANCH  32  33
ENDBRANCH  30  32
ENDBRANCH  25  28
ENDBRANCH   5  25
TORSDOF 9
