REMARK  Name = ZINC09560603
REMARK  14 active torsions:
REMARK  status: ('A' for Active; 'I' for Inactive)
REMARK    1  A    between atoms: C_1  and  C_2
REMARK    2  A    between atoms: C_5  and  N_9
REMARK    3  A    between atoms: C_6  and  C_8
REMARK    4  A    between atoms: C_10  and  C_12
REMARK    5  A    between atoms: C_13  and  C_36
REMARK    6  A    between atoms: C_17  and  C_18
REMARK    7  A    between atoms: C_21  and  C_23
REMARK    8  A    between atoms: C_24  and  N_35
REMARK    9  A    between atoms: C_25  and  C_27
REMARK   10  A    between atoms: N_29  and  C_30
REMARK   11  A    between atoms: C_30  and  C_31
REMARK   12  A    between atoms: C_31  and  C_32
REMARK   13  A    between atoms: C_32  and  O_33
REMARK   14  A    between atoms: O_33  and  C_34
REMARK                            x       y       z     vdW  Elec       q    Type
REMARK                         _______ _______ _______ _____ _____    ______ ____
ROOT
ATOM      1  C   UNL     1      -3.681  -1.043  -0.200  0.00  0.00    +0.069 A 
ATOM      2  C   UNL     1      -4.241  -1.293  -1.457  0.00  0.00    +0.052 A 
ATOM      3  N   UNL     1      -5.370  -1.960  -1.563  0.00  0.00    -0.244 NA
ATOM      4  C   UNL     1      -6.022  -2.407  -0.506  0.00  0.00    +0.112 A 
ATOM      5  C   UNL     1      -5.562  -2.215   0.815  0.00  0.00    +0.040 A 
ATOM      6  C   UNL     1      -4.335  -1.498   0.960  0.00  0.00    +0.043 A 
ATOM      7  C   UNL     1      -6.409  -2.776   1.853  0.00  0.00    +0.054 A 
ATOM      8  C   UNL     1      -7.561  -3.433   1.474  0.00  0.00    +0.097 A 
ATOM      9  S   UNL     1      -7.537  -3.313  -0.304  0.00  0.00    -0.062 S 
ATOM     10  C   UNL     1      -3.544  -0.800  -2.699  0.00  0.00    +0.066 C 
ENDROOT
BRANCH   6  11
ATOM     11  C   UNL     1      -3.767  -1.243   2.291  0.00  0.00    +0.137 A 
ATOM     12  C   UNL     1      -3.605  -0.019   2.872  0.00  0.00    +0.050 A 
ATOM     13  C   UNL     1      -3.031  -0.244   4.135  0.00  0.00    +0.045 A 
ATOM     14  C   UNL     1      -2.870  -1.578   4.266  0.00  0.00    +0.103 A 
ATOM     15  O   UNL     1      -3.320  -2.178   3.154  0.00  0.00    -0.460 OA
ATOM     16  C   UNL     1      -2.287  -2.278   5.466  0.00  0.00    +0.086 C 
ENDBRANCH   6  11
BRANCH   1  18
ATOM     17  N   UNL     1      -2.427   1.041   0.019  0.00  0.00    -0.281 N 
ATOM     18  C   UNL     1      -2.414  -0.302  -0.091  0.00  0.00    +0.251 C 
ATOM     19  O   UNL     1      -1.356  -0.901  -0.099  0.00  0.00    -0.270 OA
ATOM     20  H   UNL     1      -3.271   1.514   0.091  0.00  0.00    +0.155 HD
BRANCH  17  25
ATOM     21  C   UNL     1       2.457   3.926   0.042  0.00  0.00    +0.044 C 
ATOM     22  C   UNL     1       1.159   3.161   0.039  0.00  0.00    -0.050 A 
ATOM     23  C   UNL     1       1.093   1.911   0.627  0.00  0.00    +0.005 A 
ATOM     24  C   UNL     1      -0.096   1.207   0.625  0.00  0.00    +0.024 A 
ATOM     25  C   UNL     1      -1.224   1.754   0.027  0.00  0.00    +0.037 A 
ATOM     26  C   UNL     1      -1.156   3.012  -0.557  0.00  0.00    -0.029 A 
ATOM     27  C   UNL     1       0.036   3.710  -0.552  0.00  0.00    +0.008 A 
ATOM     28  C   UNL     1      -2.379   3.612  -1.201  0.00  0.00    +0.045 C 
ENDBRANCH  17  25
ENDBRANCH   1  18
BRANCH   8  29
ATOM     29  C   UNL     1      -8.530  -4.053   2.300  0.00  0.00    +0.253 C 
ATOM     30  O   UNL     1      -8.394  -4.045   3.510  0.00  0.00    -0.270 OA
ATOM     31  N   UNL     1      -9.603  -4.652   1.746  0.00  0.00    -0.311 N 
ATOM     32  H   UNL     1      -9.711  -4.658   0.782  0.00  0.00    +0.149 HD
BRANCH  31  33
ATOM     33  C   UNL     1     -10.606  -5.293   2.600  0.00  0.00    +0.107 C 
BRANCH  33  34
ATOM     34  C   UNL     1     -11.711  -5.892   1.727  0.00  0.00    +0.047 C 
BRANCH  34  35
ATOM     35  C   UNL     1     -12.758  -6.562   2.619  0.00  0.00    +0.161 C 
BRANCH  35  36
ATOM     36  O   UNL     1     -13.790  -7.121   1.804  0.00  0.00    -0.383 OA
ATOM     37  C   UNL     1     -14.824  -7.775   2.543  0.00  0.00    +0.193 C 
ENDBRANCH  35  36
ENDBRANCH  34  35
ENDBRANCH  33  34
ENDBRANCH  31  33
ENDBRANCH   8  29
BRANCH   7  38
ATOM     38  N   UNL     1      -6.067  -2.654   3.193  0.00  0.00    -0.356 N 
ATOM     39  H   UNL     1      -5.254  -2.190   3.446  0.00  0.00    +0.142 HD
ATOM     40  H   UNL     1      -6.641  -3.033   3.876  0.00  0.00    +0.142 HD
ENDBRANCH   7  38
TORSDOF 9
