REMARK  Name = ZINC50711916
REMARK  3 active torsions:
REMARK  status: ('A' for Active; 'I' for Inactive)
REMARK    1  A    between atoms: C_1  and  N_2
REMARK    2  A    between atoms: C_5  and  C_13
REMARK    3  A    between atoms: N_15  and  C_16
REMARK                            x       y       z     vdW  Elec       q    Type
REMARK                         _______ _______ _______ _____ _____    ______ ____
ROOT
ATOM      1  C   UNL     1       0.014   1.461   0.028  0.00  0.00    +0.127 C 
ATOM      2  N   UNL     1       0.022  -0.004   0.013  0.00  0.00    -0.332 N 
ATOM      3  C   UNL     1       0.612  -0.684  -1.042  0.00  0.00    +0.120 A 
ATOM      4  C   UNL     1       1.197   0.054  -2.078  0.00  0.00    +0.057 A 
ATOM      5  C   UNL     1       1.791  -0.614  -3.142  0.00  0.00    +0.054 A 
ATOM      6  C   UNL     1       1.768  -2.078  -3.112  0.00  0.00    +0.013 A 
ATOM      7  C   UNL     1       2.340  -2.839  -4.136  0.00  0.00    +0.011 A 
ATOM      8  C   UNL     1       2.297  -4.201  -4.069  0.00  0.00    +0.001 A 
ATOM      9  C   UNL     1       1.690  -4.842  -2.992  0.00  0.00    +0.002 A 
ATOM     10  C   UNL     1       1.123  -4.130  -1.979  0.00  0.00    +0.028 A 
ATOM     11  C   UNL     1       1.150  -2.724  -2.015  0.00  0.00    +0.074 A 
ATOM     12  N   UNL     1       0.607  -1.999  -1.032  0.00  0.00    -0.232 NA
ATOM     13  H   UNL     1      -0.384  -0.499   0.742  0.00  0.00    +0.147 HD
ENDROOT
BRANCH   5  14
ATOM     14  C   UNL     1       2.418   0.122  -4.255  0.00  0.00    +0.280 C 
ATOM     15  O   UNL     1       2.325   1.470  -4.313  0.00  0.00    -0.265 OA
ATOM     16  N   UNL     1       3.067  -0.532  -5.190  0.00  0.00    -0.181 NA
BRANCH  16  17
ATOM     17  C   UNL     1       3.645   0.145  -6.216  0.00  0.00    +0.218 A 
ATOM     18  N   UNL     1       3.682   1.454  -6.464  0.00  0.00    -0.122 NA
ATOM     19  N   UNL     1       4.289   1.857  -7.497  0.00  0.00    -0.148 NA
ATOM     20  C   UNL     1       4.881   1.031  -8.328  0.00  0.00    +0.183 A 
ATOM     21  S   UNL     1       4.579  -0.465  -7.613  0.00  0.00    -0.034 S 
ENDBRANCH  16  17
ENDBRANCH   5  14
TORSDOF 2
