REMARK  Name = ZINC20799762
REMARK  2 active torsions:
REMARK  status: ('A' for Active; 'I' for Inactive)
REMARK    1  A    between atoms: C_1  and  S_2
REMARK    2  A    between atoms: S_2  and  C_3
REMARK                            x       y       z     vdW  Elec       q    Type
REMARK                         _______ _______ _______ _____ _____    ______ ____
ROOT
ATOM      1  C   UNL     1       1.877   5.365  -1.189  0.00  0.00    +0.158 C 
ATOM      2  N   UNL     1       1.331   4.186  -1.204  0.00  0.00    -0.219 NA
ATOM      3  C   UNL     1       0.839   3.547   0.010  0.00  0.00    +0.260 C 
ATOM      4  C   UNL     1       1.190   2.078   0.002  0.00  0.00    +0.032 A 
ATOM      5  C   UNL     1       2.388   1.401  -0.012  0.00  0.00    +0.010 A 
ATOM      6  C   UNL     1       2.399   0.017  -0.019  0.00  0.00    +0.001 A 
ATOM      7  C   UNL     1       1.204  -0.680  -0.012  0.00  0.00    +0.002 A 
ATOM      8  C   UNL     1       0.002  -0.004   0.002  0.00  0.00    +0.024 A 
ATOM      9  C   UNL     1      -0.017   1.389   0.010  0.00  0.00    +0.041 A 
ATOM     10  N   UNL     1      -1.085   2.287   0.030  0.00  0.00    -0.281 N 
ATOM     11  C   UNL     1      -0.674   3.567   0.027  0.00  0.00    +0.272 C 
ATOM     12  O   UNL     1      -1.382   4.551   0.040  0.00  0.00    -0.270 OA
ATOM     13  N   UNL     1       1.361   4.181   1.214  0.00  0.00    -0.212 NA
ATOM     14  C   UNL     1       1.906   5.359   1.191  0.00  0.00    +0.182 C 
ATOM     15  N   UNL     1       2.018   6.050   0.002  0.00  0.00    -0.267 N 
ATOM     16  N   UNL     1       2.373   5.921   2.356  0.00  0.00    -0.331 N 
ATOM     17  H   UNL     1      -2.119   1.912   0.046  0.00  0.00    +0.155 HD
ATOM     18  H   UNL     1       2.217   7.131  -0.006  0.00  0.00    +0.157 HD
ATOM     19  H   UNL     1       2.835   6.919   2.339  0.00  0.00    +0.145 HD
ATOM     20  H   UNL     1       2.284   5.372   3.305  0.00  0.00    +0.145 HD
ENDROOT
BRANCH   1  22
ATOM     21  C   UNL     1       2.002   4.779  -3.859  0.00  0.00    +0.093 C 
ATOM     22  S   UNL     1       2.439   6.092  -2.693  0.00  0.00    -0.094 S 
ENDBRANCH   1  22
TORSDOF 1
