REMARK  Name = ZINC42158118
REMARK  7 active torsions:
REMARK  status: ('A' for Active; 'I' for Inactive)
REMARK    1  A    between atoms: C_1  and  C_2
REMARK    2  A    between atoms: C_4  and  N_23
REMARK    3  A    between atoms: C_7  and  S_8
REMARK    4  A    between atoms: S_8  and  N_11
REMARK    5  A    between atoms: N_11  and  C_12
REMARK    6  A    between atoms: C_12  and  C_14
REMARK    7  A    between atoms: C_12  and  C_20
REMARK                            x       y       z     vdW  Elec       q    Type
REMARK                         _______ _______ _______ _____ _____    ______ ____
ROOT
ATOM      1  N   UNL     1       1.176   1.029   2.916  0.00  0.00    -0.174 NA
ATOM      2  H   UNL     1       1.864   0.870   3.582  0.00  0.00    +0.149 HD
ENDROOT
BRANCH   1   3
ATOM      3  S   UNL     1      -0.043  -0.071   2.705  0.00  0.00    +0.060 S 
ATOM      4  O   UNL     1      -1.260   0.664   2.720  0.00  0.00    -0.153 OA
ATOM      5  O   UNL     1       0.212  -1.139   3.607  0.00  0.00    -0.153 OA
BRANCH   3  12
ATOM      6  C   UNL     1       2.313  -1.727   1.782  0.00  0.00    +0.046 C 
ATOM      7  C   UNL     1       1.242  -1.478   0.751  0.00  0.00    -0.022 A 
ATOM      8  C   UNL     1       1.373  -2.001  -0.522  0.00  0.00    +0.038 A 
ATOM      9  C   UNL     1       0.390  -1.773  -1.467  0.00  0.00    +0.127 A 
ATOM     10  C   UNL     1      -0.723  -1.021  -1.139  0.00  0.00    +0.034 A 
ATOM     11  C   UNL     1      -0.854  -0.499   0.134  0.00  0.00    +0.031 A 
ATOM     12  C   UNL     1       0.127  -0.731   1.081  0.00  0.00    +0.108 A 
BRANCH   9  13
ATOM     13  N   UNL     1       0.530  -2.332  -2.830  0.00  0.00    +0.056 N 
ATOM     14  O   UNL     1       1.504  -2.989  -3.117  0.00  0.00    -0.126 OA
ATOM     15  O   UNL     1      -0.329  -2.132  -3.657  0.00  0.00    -0.126 OA
ENDBRANCH   9  13
ENDBRANCH   3  12
ENDBRANCH   1   3
BRANCH   1  16
ATOM     16  C   UNL     1       1.217   2.244   2.098  0.00  0.00    +0.192 C 
BRANCH  16  17
ATOM     17  C   UNL     1       2.650   2.592   1.786  0.00  0.00    -0.020 A 
ATOM     18  C   UNL     1       3.624   2.443   2.756  0.00  0.00    +0.006 A 
ATOM     19  C   UNL     1       4.938   2.762   2.470  0.00  0.00    +0.000 A 
ATOM     20  C   UNL     1       5.279   3.229   1.214  0.00  0.00    +0.000 A 
ATOM     21  C   UNL     1       4.305   3.377   0.244  0.00  0.00    +0.000 A 
ATOM     22  C   UNL     1       2.991   3.054   0.529  0.00  0.00    +0.006 A 
ENDBRANCH  16  17
BRANCH  16  23
ATOM     23  C   UNL     1       0.577   3.380   2.854  0.00  0.00    +0.234 C 
ATOM     24  O   UNL     1       0.131   3.194   3.966  0.00  0.00    -0.274 OA
ATOM     25  N   UNL     1       0.501   4.604   2.293  0.00  0.00    -0.328 N 
ATOM     26  H   UNL     1       0.858   4.753   1.404  0.00  0.00    +0.145 HD
ATOM     27  H   UNL     1       0.089   5.335   2.780  0.00  0.00    +0.145 HD
ENDBRANCH  16  23
ENDBRANCH   1  16
TORSDOF 6
