REMARK  Name = ZINC40758543
REMARK  5 active torsions:
REMARK  status: ('A' for Active; 'I' for Inactive)
REMARK    1  A    between atoms: C_1  and  C_2
REMARK    2  A    between atoms: C_9  and  N_12
REMARK    3  A    between atoms: C_14  and  N_30
REMARK    4  A    between atoms: C_15  and  N_19
REMARK    5  A    between atoms: N_19  and  C_20
REMARK                            x       y       z     vdW  Elec       q    Type
REMARK                         _______ _______ _______ _____ _____    ______ ____
ROOT
ATOM      1  N   UNL     1       0.091  -1.960   3.626  0.00  0.00    -0.296 N 
ATOM      2  C   UNL     1      -0.017  -2.641   4.833  0.00  0.00    +0.149 A 
ATOM      3  C   UNL     1      -0.138  -1.939   6.035  0.00  0.00    +0.106 A 
ATOM      4  C   UNL     1      -0.244  -2.673   7.218  0.00  0.00    +0.149 A 
ATOM      5  N   UNL     1      -0.226  -4.002   7.156  0.00  0.00    -0.219 NA
ATOM      6  C   UNL     1      -0.110  -4.625   6.001  0.00  0.00    +0.225 A 
ATOM      7  N   UNL     1      -0.013  -3.971   4.861  0.00  0.00    -0.219 NA
ATOM      8  H   UNL     1       0.172  -0.993   3.620  0.00  0.00    +0.154 HD
ENDROOT
BRANCH   1  17
ATOM      9  C   UNL     1       2.499   0.949   0.341  0.00  0.00    +0.065 C 
ATOM     10  C   UNL     1       1.847  -0.406   0.243  0.00  0.00    +0.039 A 
ATOM     11  C   UNL     1       1.860  -1.080  -0.976  0.00  0.00    +0.023 A 
ATOM     12  C   UNL     1       1.274  -2.308  -1.082  0.00  0.00    +0.012 A 
ATOM     13  C   UNL     1       0.668  -2.857   0.064  0.00  0.00    +0.002 A 
ATOM     14  C   UNL     1       0.046  -4.116   0.030  0.00  0.00    +0.010 A 
ATOM     15  C   UNL     1      -0.530  -4.620   1.155  0.00  0.00    +0.003 A 
ATOM     16  C   UNL     1      -0.516  -3.905   2.349  0.00  0.00    +0.025 A 
ATOM     17  C   UNL     1       0.084  -2.666   2.423  0.00  0.00    +0.059 A 
ATOM     18  C   UNL     1       0.691  -2.118   1.272  0.00  0.00    +0.092 A 
ATOM     19  N   UNL     1       1.286  -0.923   1.310  0.00  0.00    -0.250 NA
ENDBRANCH   1  17
BRANCH   3  20
ATOM     20  N   UNL     1      -0.153  -0.536   6.052  0.00  0.00    -0.353 N 
ATOM     21  H   UNL     1      -0.078  -0.040   5.222  0.00  0.00    +0.143 HD
ATOM     22  H   UNL     1      -0.237  -0.062   6.894  0.00  0.00    +0.143 HD
ENDBRANCH   3  20
BRANCH   4  23
ATOM     23  N   UNL     1      -0.366  -2.024   8.442  0.00  0.00    -0.297 N 
ATOM     24  H   UNL     1      -0.464  -1.060   8.472  0.00  0.00    +0.154 HD
BRANCH  23  25
ATOM     25  C   UNL     1      -0.347  -2.760   9.625  0.00  0.00    +0.040 A 
ATOM     26  C   UNL     1       0.275  -3.990   9.670  0.00  0.00    +0.024 A 
ATOM     27  C   UNL     1       0.299  -4.732  10.847  0.00  0.00    +0.002 A 
ATOM     28  C   UNL     1      -0.289  -4.268  11.984  0.00  0.00    +0.008 A 
ATOM     29  C   UNL     1      -0.934  -3.019  11.980  0.00  0.00    -0.016 A 
ATOM     30  C   UNL     1      -0.961  -2.251  10.790  0.00  0.00    +0.003 A 
ATOM     31  C   UNL     1      -1.601  -1.002  10.790  0.00  0.00    +0.010 A 
ATOM     32  C   UNL     1      -2.182  -0.542  11.932  0.00  0.00    +0.001 A 
ATOM     33  C   UNL     1      -2.152  -1.295  13.105  0.00  0.00    +0.001 A 
ATOM     34  C   UNL     1      -1.551  -2.515  13.139  0.00  0.00    +0.008 A 
ENDBRANCH  23  25
ENDBRANCH   4  23
TORSDOF 4
