REMARK  Name = ZINC63808566
REMARK  7 active torsions:
REMARK  status: ('A' for Active; 'I' for Inactive)
REMARK    1  A    between atoms: C_1  and  O_2
REMARK    2  A    between atoms: O_2  and  C_3
REMARK    3  A    between atoms: C_9  and  C_12
REMARK    4  A    between atoms: C_12  and  C_13
REMARK    5  A    between atoms: C_13  and  N_14
REMARK    6  A    between atoms: C_15  and  C_33
REMARK    7  A    between atoms: C_19  and  C_27
REMARK                            x       y       z     vdW  Elec       q    Type
REMARK                         _______ _______ _______ _____ _____    ______ ____
ROOT
ATOM      1  N   UNL     1      -1.514  -6.788   1.506  0.00  0.00    -0.292 N 
ATOM      2  C   UNL     1      -1.169  -8.235   1.322  0.00  0.00    +0.116 C 
ATOM      3  C   UNL     1       0.251  -8.248   1.743  0.00  0.00    +0.077 C 
ATOM      4  C   UNL     1       1.457  -9.049   1.409  0.00  0.00    +0.136 C 
ATOM      5  N   UNL     1       2.513  -8.019   1.672  0.00  0.00    -0.305 N 
ATOM      6  N   UNL     1       2.068  -6.856   1.472  0.00  0.00    -0.203 NA
ATOM      7  C   UNL     1       0.713  -6.949   0.941  0.00  0.00    +0.218 C 
ATOM      8  C   UNL     1      -0.372  -6.031   1.422  0.00  0.00    +0.243 C 
ATOM      9  O   UNL     1      -0.260  -4.853   1.687  0.00  0.00    -0.273 OA
ATOM     10  H   UNL     1       3.418  -8.220   1.958  0.00  0.00    +0.183 HD
ENDROOT
BRANCH   4  11
ATOM     11  C   UNL     1       1.602 -10.236   2.326  0.00  0.00    -0.023 A 
ATOM     12  C   UNL     1       2.131 -10.069   3.593  0.00  0.00    +0.006 A 
ATOM     13  C   UNL     1       2.264 -11.157   4.435  0.00  0.00    +0.000 A 
ATOM     14  C   UNL     1       1.868 -12.412   4.011  0.00  0.00    +0.000 A 
ATOM     15  C   UNL     1       1.339 -12.578   2.745  0.00  0.00    +0.000 A 
ATOM     16  C   UNL     1       1.202 -11.489   1.904  0.00  0.00    +0.006 A 
ENDBRANCH   4  11
BRANCH   2  17
ATOM     17  C   UNL     1      -1.312  -8.647  -0.120  0.00  0.00    -0.009 A 
ATOM     18  C   UNL     1      -1.167  -7.713  -1.135  0.00  0.00    +0.008 A 
ATOM     19  C   UNL     1      -1.307  -8.137  -2.447  0.00  0.00    +0.020 A 
ATOM     20  C   UNL     1      -1.584  -9.467  -2.699  0.00  0.00    +0.111 A 
ATOM     21  N   UNL     1      -1.715 -10.328  -1.709  0.00  0.00    -0.263 NA
ATOM     22  C   UNL     1      -1.583  -9.961  -0.449  0.00  0.00    +0.116 A 
ENDBRANCH   2  17
BRANCH   1  23
ATOM     23  C   UNL     1      -2.862  -6.261   1.734  0.00  0.00    +0.113 C 
BRANCH  23  24
ATOM     24  C   UNL     1      -3.521  -5.949   0.389  0.00  0.00    +0.052 C 
BRANCH  24  31
ATOM     25  C   UNL     1      -5.165  -1.671   0.697  0.00  0.00    +0.121 A 
ATOM     26  C   UNL     1      -6.550  -1.594   0.926  0.00  0.00    +0.047 A 
ATOM     27  C   UNL     1      -7.329  -2.690   1.046  0.00  0.00    +0.029 A 
ATOM     28  C   UNL     1      -6.731  -4.024   0.935  0.00  0.00    +0.043 A 
ATOM     29  N   UNL     1      -7.247  -5.225   1.011  0.00  0.00    -0.380 N 
ATOM     30  C   UNL     1      -6.174  -6.209   0.826  0.00  0.00    +0.144 C 
ATOM     31  C   UNL     1      -4.908  -5.407   0.623  0.00  0.00    -0.040 C 
ATOM     32  C   UNL     1      -5.271  -4.107   0.693  0.00  0.00    +0.002 A 
ATOM     33  C   UNL     1      -4.517  -2.854   0.575  0.00  0.00    +0.055 A 
ATOM     34  H   UNL     1      -8.183  -5.430   1.165  0.00  0.00    +0.160 HD
BRANCH  25  36
ATOM     35  C   UNL     1      -5.176   0.706   0.725  0.00  0.00    +0.277 C 
ATOM     36  O   UNL     1      -4.453  -0.518   0.589  0.00  0.00    -0.495 OA
ENDBRANCH  25  36
ENDBRANCH  24  31
ENDBRANCH  23  24
ENDBRANCH   1  23
TORSDOF 6
