REMARK  Name = ZINC66600394
REMARK  11 active torsions:
REMARK  status: ('A' for Active; 'I' for Inactive)
REMARK    1  A    between atoms: C_1  and  C_2
REMARK    2  A    between atoms: C_3  and  C_7
REMARK    3  A    between atoms: C_7  and  N_8
REMARK    4  A    between atoms: N_8  and  C_9
REMARK    5  A    between atoms: N_12  and  C_13
REMARK    6  A    between atoms: C_13  and  C_15
REMARK    7  A    between atoms: C_13  and  C_16
REMARK    8  A    between atoms: C_18  and  C_21
REMARK    9  A    between atoms: C_21  and  C_22
REMARK   10  A    between atoms: C_21  and  C_23
REMARK   11  A    between atoms: C_21  and  C_24
REMARK                            x       y       z     vdW  Elec       q    Type
REMARK                         _______ _______ _______ _____ _____    ______ ____
ROOT
ATOM      1  N   UNL     1       1.368  -0.036  -3.052  0.00  0.00    -0.284 N 
ATOM      2  C   UNL     1       2.071  -1.145  -3.701  0.00  0.00    +0.134 C 
ATOM      3  C   UNL     1       1.988   1.150  -2.885  0.00  0.00    +0.303 C 
ATOM      4  O   UNL     1       1.405   2.070  -2.346  0.00  0.00    -0.253 OA
ATOM      5  N   UNL     1       3.254   1.314  -3.316  0.00  0.00    -0.291 N 
ATOM      6  H   UNL     1       3.720   0.580  -3.746  0.00  0.00    +0.151 HD
ENDROOT
BRANCH   5   7
ATOM      7  C   UNL     1       3.928   2.603  -3.135  0.00  0.00    +0.127 C 
ATOM      8  C   UNL     1       3.568   3.534  -4.295  0.00  0.00    +0.035 C 
BRANCH   7   9
ATOM      9  C   UNL     1       5.420   2.390  -3.107  0.00  0.00    +0.099 A 
ATOM     10  N   UNL     1       6.298   2.896  -2.278  0.00  0.00    -0.247 NA
ATOM     11  C   UNL     1       7.581   2.614  -2.381  0.00  0.00    +0.054 A 
ATOM     12  C   UNL     1       7.948   1.775  -3.384  0.00  0.00    +0.070 A 
ATOM     13  S   UNL     1       6.360   1.438  -4.128  0.00  0.00    -0.078 S 
BRANCH  11  14
ATOM     14  C   UNL     1       8.595   3.195  -1.430  0.00  0.00    +0.005 C 
ATOM     15  C   UNL     1      10.002   2.789  -1.873  0.00  0.00    +0.017 C 
ATOM     16  C   UNL     1       8.481   4.721  -1.432  0.00  0.00    +0.017 C 
ATOM     17  C   UNL     1       8.333   2.666  -0.019  0.00  0.00    +0.017 C 
ENDBRANCH  11  14
ENDBRANCH   7   9
ENDBRANCH   5   7
BRANCH   1  18
ATOM     18  C   UNL     1      -0.008  -0.215  -2.583  0.00  0.00    +0.153 C 
BRANCH  18  21
ATOM     19  C   UNL     1      -0.018   1.503   0.010  0.00  0.00    +0.066 C 
ATOM     20  C   UNL     1       0.002  -0.004   0.002  0.00  0.00    +0.050 A 
ATOM     21  C   UNL     1       0.006  -0.708  -1.159  0.00  0.00    +0.029 A 
ATOM     22  S   UNL     1       0.032  -2.379  -0.531  0.00  0.00    -0.079 S 
ATOM     23  C   UNL     1       0.036  -2.009   1.111  0.00  0.00    +0.156 A 
ATOM     24  N   UNL     1       0.023  -0.699   1.122  0.00  0.00    -0.252 NA
ENDBRANCH  18  21
ENDBRANCH   1  18
TORSDOF 5
