REMARK  Name = ZINC20906612
REMARK  6 active torsions:
REMARK  status: ('A' for Active; 'I' for Inactive)
REMARK    1  A    between atoms: C_9  and  C_11
REMARK    2  A    between atoms: C_11  and  S_12
REMARK    3  A    between atoms: S_12  and  C_13
REMARK    4  A    between atoms: N_18  and  N_19
REMARK    5  A    between atoms: C_20  and  C_21
REMARK    6  A    between atoms: C_25  and  O_27
REMARK                            x       y       z     vdW  Elec       q    Type
REMARK                         _______ _______ _______ _____ _____    ______ ____
ROOT
ATOM      1  C   UNL     1      -3.953   9.647   0.085  0.00  0.00    +0.210 A 
ATOM      2  N   UNL     1      -2.612   9.385   0.071  0.00  0.00    -0.186 NA
ATOM      3  C   UNL     1      -2.447   8.028   0.063  0.00  0.00    +0.232 A 
ATOM      4  N   UNL     1      -3.636   7.475   0.067  0.00  0.00    -0.245 N 
ATOM      5  N   UNL     1      -4.590   8.500   0.086  0.00  0.00    -0.144 NA
ATOM      6  N   UNL     1      -1.234   7.354   0.049  0.00  0.00    -0.205 N 
ATOM      7  H   UNL     1      -0.291   7.920   0.042  0.00  0.00    +0.177 HD
ATOM      8  H   UNL     1      -3.733   6.379   0.056  0.00  0.00    +0.192 HD
ENDROOT
BRANCH   6   9
ATOM      9  N   UNL     1      -1.211   5.953   0.042  0.00  0.00    -0.188 NA
ATOM     10  C   UNL     1      -0.076   5.323   0.029  0.00  0.00    +0.138 C 
BRANCH  10  11
ATOM     11  C   UNL     1      -0.051   3.849   0.022  0.00  0.00    -0.002 A 
ATOM     12  C   UNL     1      -1.248   3.127   0.030  0.00  0.00    +0.010 A 
ATOM     13  C   UNL     1      -1.221   1.748   0.017  0.00  0.00    +0.004 A 
ATOM     14  C   UNL     1      -0.013   1.076   0.008  0.00  0.00    +0.045 A 
ATOM     15  C   UNL     1       1.182   1.784   0.000  0.00  0.00    +0.117 A 
ATOM     16  C   UNL     1       1.167   3.168   0.007  0.00  0.00    +0.054 A 
BRANCH  15  17
ATOM     17  O   UNL     1       2.366   1.117  -0.014  0.00  0.00    -0.507 OA
ATOM     18  H   UNL     1       3.313   1.677  -0.020  0.00  0.00    +0.292 HD
ENDBRANCH  15  17
ENDBRANCH  10  11
ENDBRANCH   6   9
BRANCH   1  19
ATOM     19  S   UNL     1      -4.696  11.245   0.098  0.00  0.00    -0.077 S 
BRANCH  19  20
ATOM     20  C   UNL     1      -6.477  10.900   0.113  0.00  0.00    +0.151 C 
BRANCH  20  29
ATOM     21  C   UNL     1      -9.518  16.070  -0.459  0.00  0.00    +0.002 A 
ATOM     22  C   UNL     1      -9.485  16.030   0.928  0.00  0.00    +0.002 A 
ATOM     23  C   UNL     1      -8.874  14.997   1.581  0.00  0.00    +0.030 A 
ATOM     24  C   UNL     1      -8.274  13.969   0.850  0.00  0.00    +0.089 A 
ATOM     25  C   UNL     1      -8.307  14.009  -0.554  0.00  0.00    +0.066 A 
ATOM     26  C   UNL     1      -8.933  15.066  -1.200  0.00  0.00    +0.028 A 
ATOM     27  N   UNL     1      -7.645  12.876  -0.983  0.00  0.00    -0.341 N 
ATOM     28  H   UNL     1      -7.535  12.678  -2.060  0.00  0.00    +0.167 HD
ATOM     29  C   UNL     1      -7.240  12.200   0.126  0.00  0.00    +0.118 A 
ATOM     30  N   UNL     1      -7.612  12.836   1.198  0.00  0.00    -0.232 NA
ENDBRANCH  20  29
ENDBRANCH  19  20
ENDBRANCH   1  19
TORSDOF 6
