REMARK  Name = ZINC36308915
REMARK  8 active torsions:
REMARK  status: ('A' for Active; 'I' for Inactive)
REMARK    1  A    between atoms: C_1  and  C_2
REMARK    2  A    between atoms: C_7  and  C_8
REMARK    3  A    between atoms: N_12  and  N_13
REMARK    4  A    between atoms: C_14  and  C_15
REMARK    5  A    between atoms: C_20  and  O_21
REMARK    6  A    between atoms: O_21  and  C_22
REMARK    7  A    between atoms: C_22  and  C_23
REMARK    8  A    between atoms: C_22  and  C_24
REMARK                            x       y       z     vdW  Elec       q    Type
REMARK                         _______ _______ _______ _____ _____    ______ ____
ROOT
ATOM      1  C   UNL     1      -0.907   0.087   2.869  0.00  0.00    +0.184 A 
ATOM      2  N   UNL     1      -0.613   1.357   2.892  0.00  0.00    -0.152 NA
ATOM      3  N   UNL     1       0.687   1.492   3.397  0.00  0.00    -0.253 N 
ATOM      4  C   UNL     1       1.147   0.254   3.671  0.00  0.00    +0.197 A 
ATOM      5  N   UNL     1       0.173  -0.623   3.356  0.00  0.00    -0.188 N 
ATOM      6  S   UNL     1       2.688  -0.133   4.310  0.00  0.00    -0.010 S 
ATOM      7  H   UNL     1       1.169   2.325   3.526  0.00  0.00    +0.191 HD
ENDROOT
BRANCH   1  14
ATOM      8  C   UNL     1      -2.934   1.808   1.729  0.00  0.00    +0.044 C 
ATOM      9  C   UNL     1      -3.171   0.325   1.854  0.00  0.00    -0.040 A 
ATOM     10  C   UNL     1      -4.359  -0.226   1.419  0.00  0.00    +0.004 A 
ATOM     11  C   UNL     1      -4.577  -1.587   1.534  0.00  0.00    +0.000 A 
ATOM     12  C   UNL     1      -3.607  -2.405   2.084  0.00  0.00    +0.001 A 
ATOM     13  C   UNL     1      -2.415  -1.867   2.523  0.00  0.00    +0.012 A 
ATOM     14  C   UNL     1      -2.186  -0.495   2.406  0.00  0.00    +0.024 A 
ENDBRANCH   1  14
BRANCH   5  15
ATOM     15  N   UNL     1       0.246  -2.015   3.495  0.00  0.00    -0.170 NA
ATOM     16  C   UNL     1       0.323  -2.546   4.678  0.00  0.00    +0.145 C 
BRANCH  16  17
ATOM     17  C   UNL     1       0.295  -4.011   4.831  0.00  0.00    +0.036 A 
ATOM     18  C   UNL     1       0.268  -4.584   6.105  0.00  0.00    +0.013 A 
ATOM     19  C   UNL     1       0.242  -5.955   6.241  0.00  0.00    +0.001 A 
ATOM     20  C   UNL     1       0.242  -6.769   5.120  0.00  0.00    +0.004 A 
ATOM     21  C   UNL     1       0.269  -6.214   3.854  0.00  0.00    +0.046 A 
ATOM     22  C   UNL     1       0.289  -4.838   3.699  0.00  0.00    +0.129 A 
BRANCH  22  23
ATOM     23  O   UNL     1       0.309  -4.292   2.456  0.00  0.00    -0.489 OA
BRANCH  23  24
ATOM     24  C   UNL     1       0.187  -5.190   1.351  0.00  0.00    +0.167 C 
ATOM     25  C   UNL     1      -0.383  -4.441   0.145  0.00  0.00    +0.051 C 
ATOM     26  C   UNL     1       1.564  -5.754   0.997  0.00  0.00    +0.051 C 
ENDBRANCH  23  24
ENDBRANCH  22  23
ENDBRANCH  16  17
ENDBRANCH   5  15
TORSDOF 5
