REMARK  Name = ZINC06196743
REMARK  10 active torsions:
REMARK  status: ('A' for Active; 'I' for Inactive)
REMARK    1  A    between atoms: C_1  and  C_2
REMARK    2  A    between atoms: C_2  and  O_3
REMARK    3  A    between atoms: O_3  and  C_4
REMARK    4  A    between atoms: C_11  and  C_16
REMARK    5  A    between atoms: C_16  and  N_65
REMARK    6  A    between atoms: C_17  and  C_18
REMARK    7  A    between atoms: C_17  and  N_65
REMARK    8  A    between atoms: N_22  and  C_23
REMARK    9  A    between atoms: C_23  and  C_24
REMARK   10  A    between atoms: C_30  and  N_65
REMARK                            x       y       z     vdW  Elec       q    Type
REMARK                         _______ _______ _______ _____ _____    ______ ____
ROOT
ATOM      1  N   UNL     1       3.826   0.606  -0.701  0.00  0.00    +0.389 N 
ATOM      2  H   UNL     1       4.371  -0.195  -1.039  0.00  0.00    -0.080 HD
ENDROOT
BRANCH   1   3
ATOM      3  C   UNL     1       2.455   0.520  -1.248  0.00  0.00    -0.068 C 
ATOM      4  C   UNL     1       1.434   1.239  -0.332  0.00  0.00    -0.015 C 
ATOM      5  C   UNL     1       0.100   0.539  -0.692  0.00  0.00    -0.002 C 
ATOM      6  C   UNL     1       0.492  -0.938  -0.899  0.00  0.00    -0.002 C 
ATOM      7  C   UNL     1       1.990  -0.951  -1.252  0.00  0.00    -0.015 C 
ENDBRANCH   1   3
BRANCH   1   8
ATOM      8  C   UNL     1       4.474   1.855  -1.155  0.00  0.00    -0.037 C 
BRANCH   8  16
ATOM      9  C   UNL     1       3.430   2.653  -7.213  0.00  0.00    +0.121 A 
ATOM     10  C   UNL     1       4.580   2.000  -7.650  0.00  0.00    +0.047 A 
ATOM     11  C   UNL     1       5.466   1.457  -6.746  0.00  0.00    +0.030 A 
ATOM     12  C   UNL     1       5.215   1.559  -5.382  0.00  0.00    +0.049 A 
ATOM     13  C   UNL     1       4.055   2.218  -4.935  0.00  0.00    +0.002 A 
ATOM     14  C   UNL     1       3.163   2.765  -5.864  0.00  0.00    +0.055 A 
ATOM     15  C   UNL     1       3.801   2.313  -3.497  0.00  0.00    +0.017 A 
ATOM     16  C   UNL     1       4.703   1.770  -2.642  0.00  0.00    +0.001 A 
ATOM     17  C   UNL     1       5.852   1.120  -3.140  0.00  0.00    +0.251 A 
ATOM     18  O   UNL     1       6.647   0.634  -2.355  0.00  0.00    -0.268 OA
ATOM     19  N   UNL     1       6.091   1.022  -4.460  0.00  0.00    -0.322 N 
ATOM     20  H   UNL     1       6.916   0.555  -4.778  0.00  0.00    +0.169 HD
BRANCH   9  21
ATOM     21  O   UNL     1       2.567   3.183  -8.120  0.00  0.00    -0.492 OA
BRANCH  21  23
ATOM     22  C   UNL     1       1.821   3.686 -10.363  0.00  0.00    +0.048 C 
ATOM     23  C   UNL     1       2.903   3.032  -9.501  0.00  0.00    +0.225 C 
ENDBRANCH  21  23
ENDBRANCH   9  21
ENDBRANCH   8  16
ENDBRANCH   1   8
BRANCH   1  24
ATOM     24  C   UNL     1       3.783   0.568   0.776  0.00  0.00    +0.001 C 
BRANCH  24  25
ATOM     25  C   UNL     1       3.301  -0.791   1.214  0.00  0.00    +0.135 A 
ATOM     26  N   UNL     1       2.080  -1.112   1.566  0.00  0.00    -0.115 NA
ATOM     27  N   UNL     1       2.070  -2.365   1.869  0.00  0.00    -0.023 NA
ATOM     28  N   UNL     1       3.254  -2.848   1.728  0.00  0.00    -0.044 NA
ATOM     29  N   UNL     1       4.042  -1.909   1.325  0.00  0.00    -0.229 N 
BRANCH  29  30
ATOM     30  C   UNL     1       5.474  -2.036   1.042  0.00  0.00    +0.178 C 
BRANCH  30  31
ATOM     31  C   UNL     1       6.272  -1.745   2.314  0.00  0.00    +0.140 C 
ATOM     32  C   UNL     1       7.783  -1.758   1.998  0.00  0.00    +0.035 C 
ATOM     33  C   UNL     1       8.375  -2.458   3.253  0.00  0.00    +0.031 C 
ATOM     34  C   UNL     1       7.243  -3.460   3.594  0.00  0.00    +0.160 C 
ATOM     35  O   UNL     1       6.024  -2.765   3.289  0.00  0.00    -0.375 OA
ENDBRANCH  30  31
ENDBRANCH  29  30
ENDBRANCH  24  25
ENDBRANCH   1  24
TORSDOF 9
