REMARK  Name = ZINC15806170
REMARK  11 active torsions:
REMARK  status: ('A' for Active; 'I' for Inactive)
REMARK    1  A    between atoms: C_1  and  C_2
REMARK    2  A    between atoms: C_2  and  C_4
REMARK    3  A    between atoms: C_2  and  O_13
REMARK    4  A    between atoms: N_9  and  C_10
REMARK    5  A    between atoms: C_10  and  C_11
REMARK    6  A    between atoms: C_10  and  C_12
REMARK    7  A    between atoms: O_13  and  C_14
REMARK    8  A    between atoms: C_14  and  C_16
REMARK    9  A    between atoms: C_19  and  N_24
REMARK   10  A    between atoms: C_21  and  O_22
REMARK   11  A    between atoms: O_22  and  C_23
REMARK                            x       y       z     vdW  Elec       q    Type
REMARK                         _______ _______ _______ _____ _____    ______ ____
ROOT
ATOM      1  O   UNL     1      -1.339  -0.499   0.012  0.00  0.00    -0.449 OA
ENDROOT
BRANCH   1   3
ATOM      2  C   UNL     1      -0.019   1.526   0.010  0.00  0.00    +0.062 C 
ATOM      3  C   UNL     1       0.002  -0.004   0.002  0.00  0.00    +0.259 C 
BRANCH   3   4
ATOM      4  C   UNL     1       0.731  -0.503   1.223  0.00  0.00    +0.261 C 
ATOM      5  O   UNL     1       0.135  -1.137   2.068  0.00  0.00    -0.271 OA
ATOM      6  N   UNL     1       2.045  -0.246   1.375  0.00  0.00    -0.237 N 
ATOM      7  C   UNL     1       2.697  -0.692   2.467  0.00  0.00    +0.306 C 
ATOM      8  O   UNL     1       2.100  -1.327   3.314  0.00  0.00    -0.252 OA
ATOM      9  N   UNL     1       4.011  -0.435   2.620  0.00  0.00    -0.297 N 
ATOM     10  H   UNL     1       2.522   0.261   0.699  0.00  0.00    +0.159 HD
ATOM     11  H   UNL     1       4.488   0.072   1.944  0.00  0.00    +0.151 HD
BRANCH   9  12
ATOM     12  C   UNL     1       4.720  -0.920   3.807  0.00  0.00    +0.068 C 
ATOM     13  C   UNL     1       6.208  -1.068   3.487  0.00  0.00    +0.027 C 
ATOM     14  C   UNL     1       4.541   0.079   4.952  0.00  0.00    +0.027 C 
ENDBRANCH   9  12
ENDBRANCH   3   4
ENDBRANCH   1   3
BRANCH   1  15
ATOM     15  C   UNL     1      -1.924  -0.704  -1.185  0.00  0.00    +0.343 C 
ATOM     16  O   UNL     1      -1.313  -0.469  -2.209  0.00  0.00    -0.245 OA
BRANCH  15  17
ATOM     17  C   UNL     1      -3.303  -1.212  -1.251  0.00  0.00    +0.102 A 
ATOM     18  C   UNL     1      -4.011  -1.478  -0.073  0.00  0.00    +0.040 A 
ATOM     19  C   UNL     1      -5.291  -1.949  -0.136  0.00  0.00    +0.063 A 
ATOM     20  C   UNL     1      -5.901  -2.169  -1.371  0.00  0.00    +0.047 A 
ATOM     21  C   UNL     1      -5.211  -1.910  -2.548  0.00  0.00    +0.070 A 
ATOM     22  C   UNL     1      -3.915  -1.427  -2.496  0.00  0.00    +0.136 A 
ATOM     23 CL   UNL     1      -6.163  -2.276   1.329  0.00  0.00    -0.082 Cl
BRANCH  20  24
ATOM     24  N   UNL     1      -7.205  -2.650  -1.423  0.00  0.00    -0.357 N 
ATOM     25  H   UNL     1      -7.689  -2.832  -0.602  0.00  0.00    +0.142 HD
ATOM     26  H   UNL     1      -7.631  -2.804  -2.281  0.00  0.00    +0.142 HD
ENDBRANCH  20  24
BRANCH  22  27
ATOM     27  O   UNL     1      -3.238  -1.167  -3.643  0.00  0.00    -0.494 OA
ATOM     28  C   UNL     1      -3.926  -1.410  -4.872  0.00  0.00    +0.277 C 
ENDBRANCH  22  27
ENDBRANCH  15  17
ENDBRANCH   1  15
TORSDOF 7
