REMARK  Name = ZINC02121861
REMARK  9 active torsions:
REMARK  status: ('A' for Active; 'I' for Inactive)
REMARK    1  A    between atoms: C_1  and  C_2
REMARK    2  A    between atoms: C_2  and  C_4
REMARK    3  A    between atoms: C_2  and  N_17
REMARK    4  A    between atoms: N_6  and  N_7
REMARK    5  A    between atoms: C_8  and  C_9
REMARK    6  A    between atoms: C_14  and  O_15
REMARK    7  A    between atoms: C_18  and  C_20
REMARK    8  A    between atoms: C_20  and  O_21
REMARK    9  A    between atoms: O_21  and  C_22
REMARK                            x       y       z     vdW  Elec       q    Type
REMARK                         _______ _______ _______ _____ _____    ______ ____
ROOT
ATOM      1  C   UNL     1      -6.147  -1.848  -1.196  0.00  0.00    +0.038 C 
ATOM      2  C   UNL     1      -6.068  -0.974   0.057  0.00  0.00    +0.158 C 
ENDROOT
BRANCH   2   3
ATOM      3  C   UNL     1      -4.776  -0.199   0.048  0.00  0.00    +0.252 C 
ATOM      4  O   UNL     1      -4.796   1.014   0.055  0.00  0.00    -0.272 OA
ATOM      5  N   UNL     1      -3.598  -0.853   0.033  0.00  0.00    -0.205 N 
ATOM      6  H   UNL     1      -3.582  -1.823   0.028  0.00  0.00    +0.177 HD
BRANCH   5   7
ATOM      7  N   UNL     1      -2.396  -0.132   0.025  0.00  0.00    -0.188 NA
ATOM      8  C   UNL     1      -1.262  -0.762   0.011  0.00  0.00    +0.142 C 
BRANCH   8   9
ATOM      9  C   UNL     1       0.002  -0.004   0.002  0.00  0.00    +0.037 A 
ATOM     10  C   UNL     1       1.225  -0.678  -0.013  0.00  0.00    +0.028 A 
ATOM     11  C   UNL     1       2.405   0.038  -0.021  0.00  0.00    +0.019 A 
ATOM     12  C   UNL     1       2.381   1.423  -0.013  0.00  0.00    +0.019 A 
ATOM     13  C   UNL     1       1.176   2.101   0.002  0.00  0.00    +0.047 A 
ATOM     14  C   UNL     1      -0.017   1.397   0.010  0.00  0.00    +0.126 A 
ATOM     15 BR   UNL     1       4.061  -0.875  -0.041  0.00  0.00    -0.050 Br
BRANCH  14  16
ATOM     16  O   UNL     1      -1.201   2.063   0.019  0.00  0.00    -0.506 OA
ATOM     17  H   UNL     1      -1.539   2.251   0.905  0.00  0.00    +0.292 HD
ENDBRANCH  14  16
ENDBRANCH   8   9
ENDBRANCH   5   7
ENDBRANCH   2   3
BRANCH   2  18
ATOM     18  N   UNL     1      -7.197  -0.041   0.073  0.00  0.00    -0.301 N 
ATOM     19  C   UNL     1      -8.386  -0.430   0.576  0.00  0.00    +0.251 C 
ATOM     20  O   UNL     1      -8.520  -1.552   1.016  0.00  0.00    -0.272 OA
ATOM     21  H   UNL     1      -7.090   0.857  -0.278  0.00  0.00    +0.150 HD
BRANCH  19  22
ATOM     22  C   UNL     1      -9.547   0.530   0.593  0.00  0.00    +0.324 C 
BRANCH  22  23
ATOM     23  O   UNL     1     -10.687  -0.111   1.170  0.00  0.00    -0.483 OA
BRANCH  23  24
ATOM     24  C   UNL     1     -11.827   0.622   1.261  0.00  0.00    +0.122 A 
ATOM     25  C   UNL     1     -11.836   1.943   0.802  0.00  0.00    +0.046 A 
ATOM     26  C   UNL     1     -12.964   2.700   0.874  0.00  0.00    +0.012 A 
ATOM     27  C   UNL     1     -14.136   2.155   1.427  0.00  0.00    -0.018 A 
ATOM     28  C   UNL     1     -15.316   2.911   1.522  0.00  0.00    +0.008 A 
ATOM     29  C   UNL     1     -16.433   2.352   2.064  0.00  0.00    +0.001 A 
ATOM     30  C   UNL     1     -16.424   1.038   2.527  0.00  0.00    +0.001 A 
ATOM     31  C   UNL     1     -15.300   0.275   2.452  0.00  0.00    +0.008 A 
ATOM     32  C   UNL     1     -14.127   0.818   1.898  0.00  0.00    -0.014 A 
ATOM     33  C   UNL     1     -12.948   0.061   1.804  0.00  0.00    +0.054 A 
ENDBRANCH  23  24
ENDBRANCH  22  23
ENDBRANCH  19  22
ENDBRANCH   2  18
TORSDOF 8
