REMARK  Name = ZINC48881933
REMARK  7 active torsions:
REMARK  status: ('A' for Active; 'I' for Inactive)
REMARK    1  A    between atoms: C_1  and  N_2
REMARK    2  A    between atoms: N_2  and  C_3
REMARK    3  A    between atoms: N_2  and  C_11
REMARK    4  A    between atoms: C_3  and  C_4
REMARK    5  A    between atoms: C_11  and  C_13
REMARK    6  A    between atoms: C_11  and  C_15
REMARK    7  A    between atoms: C_13  and  N_14
REMARK                            x       y       z     vdW  Elec       q    Type
REMARK                         _______ _______ _______ _____ _____    ______ ____
ROOT
ATOM      1  C   UNL     1      -1.180  -0.953  -0.398  0.00  0.00    +0.069 C 
ENDROOT
BRANCH   1   2
ATOM      2  C   UNL     1      -1.632  -0.542  -1.776  0.00  0.00    -0.031 A 
ATOM      3  C   UNL     1      -1.375   0.737  -2.234  0.00  0.00    +0.008 A 
ATOM      4  C   UNL     1      -1.788   1.116  -3.497  0.00  0.00    +0.040 A 
ATOM      5  C   UNL     1      -2.459   0.214  -4.305  0.00  0.00    +0.137 A 
ATOM      6  C   UNL     1      -2.715  -1.068  -3.846  0.00  0.00    +0.053 A 
ATOM      7  C   UNL     1      -2.296  -1.446  -2.583  0.00  0.00    +0.023 A 
ATOM      8 BR   UNL     1      -3.631  -2.302  -4.948  0.00  0.00    -0.047 Br
ATOM      9  F   UNL     1      -2.863   0.583  -5.540  0.00  0.00    -0.204 F 
ENDBRANCH   1   2
BRANCH   1  11
ATOM     10  C   UNL     1      -0.723   1.185   0.642  0.00  0.00    +0.105 C 
ATOM     11  N   UNL     1      -0.135  -0.034   0.069  0.00  0.00    -0.296 NA
BRANCH  11  12
ATOM     12  C   UNL     1       0.753  -0.694   1.036  0.00  0.00    +0.119 C 
BRANCH  12  13
ATOM     13  C   UNL     1       2.067   0.041   1.094  0.00  0.00    -0.033 A 
ATOM     14  C   UNL     1       3.098  -0.317   0.244  0.00  0.00    +0.006 A 
ATOM     15  C   UNL     1       4.303   0.358   0.297  0.00  0.00    +0.015 A 
ATOM     16  C   UNL     1       4.478   1.391   1.200  0.00  0.00    +0.018 A 
ATOM     17  C   UNL     1       3.447   1.749   2.050  0.00  0.00    +0.015 A 
ATOM     18  C   UNL     1       2.240   1.077   1.993  0.00  0.00    +0.006 A 
ATOM     19 BR   UNL     1       6.127   2.313   1.273  0.00  0.00    -0.050 Br
ENDBRANCH  12  13
ENDBRANCH  11  12
ENDBRANCH   1  11
BRANCH   1  20
ATOM     20  C   UNL     1      -2.369  -0.905   0.563  0.00  0.00    -0.063 C 
BRANCH  20  21
ATOM     21  N   UNL     1      -1.925  -1.287   1.911  0.00  0.00    +0.379 N 
ATOM     22  H   UNL     1      -1.328  -0.565   2.285  0.00  0.00    -0.090 HD
ATOM     23  H   UNL     1      -2.729  -1.402   2.510  0.00  0.00    -0.090 HD
ATOM     24  H   UNL     1      -1.414  -2.155   1.863  0.00  0.00    -0.090 HD
ENDBRANCH  20  21
ENDBRANCH   1  20
TORSDOF 6
