REMARK  Name = ZINC39675828
REMARK  10 active torsions:
REMARK  status: ('A' for Active; 'I' for Inactive)
REMARK    1  A    between atoms: C_1  and  N_2
REMARK    2  A    between atoms: N_2  and  C_3
REMARK    3  A    between atoms: N_2  and  C_4
REMARK    4  A    between atoms: C_4  and  C_6
REMARK    5  A    between atoms: C_4  and  C_36
REMARK    6  A    between atoms: C_6  and  N_7
REMARK    7  A    between atoms: C_8  and  C_10
REMARK    8  A    between atoms: C_21  and  C_23
REMARK    9  A    between atoms: C_28  and  O_29
REMARK   10  A    between atoms: O_29  and  C_30
REMARK                            x       y       z     vdW  Elec       q    Type
REMARK                         _______ _______ _______ _____ _____    ______ ____
ROOT
ATOM      1  C   UNL     1      -2.773   3.254  -2.157  0.00  0.00    +0.100 C 
ATOM      2  C   UNL     1      -1.349   3.852  -2.170  0.00  0.00    +0.121 C 
ATOM      3  N   UNL     1      -1.200   4.437  -3.523  0.00  0.00    -0.296 N 
ATOM      4  C   UNL     1      -2.522   5.043  -3.810  0.00  0.00    +0.115 C 
ATOM      5  C   UNL     1      -3.541   4.041  -3.232  0.00  0.00    -0.004 C 
ATOM      6  C   UNL     1      -4.032   3.098  -4.327  0.00  0.00    -0.010 C 
ATOM      7  C   UNL     1      -4.840   3.895  -5.355  0.00  0.00    -0.082 C 
ATOM      8  N   UNL     1      -5.979   4.540  -4.691  0.00  0.00    +0.379 N 
ATOM      9  C   UNL     1      -5.498   5.513  -3.703  0.00  0.00    -0.082 C 
ATOM     10  C   UNL     1      -4.716   4.785  -2.606  0.00  0.00    -0.010 C 
ATOM     11  C   UNL     1      -0.109   4.421  -4.315  0.00  0.00    +0.252 C 
ATOM     12  O   UNL     1      -0.111   5.035  -5.364  0.00  0.00    -0.270 OA
ATOM     13  H   UNL     1      -6.545   5.014  -5.380  0.00  0.00    -0.086 HD
ATOM     14  H   UNL     1      -6.537   3.839  -4.226  0.00  0.00    -0.086 HD
ENDROOT
BRANCH  11  15
ATOM     15  C   UNL     1       1.086   3.659  -3.908  0.00  0.00    +0.099 A 
ATOM     16  C   UNL     1       1.459   3.584  -2.561  0.00  0.00    +0.020 A 
ATOM     17  C   UNL     1       2.589   2.856  -2.231  0.00  0.00    +0.021 A 
ATOM     18  C   UNL     1       3.310   2.229  -3.232  0.00  0.00    +0.114 A 
ATOM     19  N   UNL     1       2.941   2.313  -4.495  0.00  0.00    -0.220 NA
ATOM     20  C   UNL     1       1.867   2.990  -4.864  0.00  0.00    +0.233 A 
BRANCH  20  21
ATOM     21  O   UNL     1       1.521   3.045  -6.172  0.00  0.00    -0.437 OA
BRANCH  21  22
ATOM     22  C   UNL     1       2.236   2.296  -7.052  0.00  0.00    +0.130 A 
ATOM     23  C   UNL     1       3.181   2.897  -7.870  0.00  0.00    +0.046 A 
ATOM     24  C   UNL     1       3.906   2.133  -8.764  0.00  0.00    +0.004 A 
ATOM     25  C   UNL     1       3.691   0.770  -8.843  0.00  0.00    +0.000 A 
ATOM     26  C   UNL     1       2.750   0.167  -8.029  0.00  0.00    +0.004 A 
ATOM     27  C   UNL     1       2.026   0.926  -7.130  0.00  0.00    +0.046 A 
ENDBRANCH  21  22
ENDBRANCH  20  21
ENDBRANCH  11  15
BRANCH   1  29
ATOM     28  N   UNL     1      -3.731   0.974  -2.117  0.00  0.00    -0.316 N 
ATOM     29  C   UNL     1      -2.731   1.790  -2.508  0.00  0.00    +0.218 C 
ATOM     30  O   UNL     1      -1.798   1.345  -3.143  0.00  0.00    -0.275 OA
ATOM     31  H   UNL     1      -4.477   1.330  -1.610  0.00  0.00    +0.149 HD
BRANCH  28  32
ATOM     32  C   UNL     1      -3.689  -0.450  -2.459  0.00  0.00    +0.093 C 
BRANCH  32  33
ATOM     33  C   UNL     1      -4.872  -1.166  -1.804  0.00  0.00    -0.021 C 
BRANCH  33  34
ATOM     34  C   UNL     1      -6.159  -0.664  -2.406  0.00  0.00    -0.059 A 
ATOM     35  C   UNL     1      -6.590  -1.153  -3.625  0.00  0.00    +0.002 A 
ATOM     36  C   UNL     1      -7.770  -0.692  -4.177  0.00  0.00    +0.000 A 
ATOM     37  C   UNL     1      -8.521   0.258  -3.510  0.00  0.00    +0.000 A 
ATOM     38  C   UNL     1      -8.091   0.747  -2.290  0.00  0.00    +0.000 A 
ATOM     39  C   UNL     1      -6.913   0.283  -1.736  0.00  0.00    +0.002 A 
ENDBRANCH  33  34
BRANCH  33  41
ATOM     40  C   UNL     1      -3.513  -3.106  -1.427  0.00  0.00    -0.096 C 
ATOM     41  N   UNL     1      -4.757  -2.612  -2.032  0.00  0.00    +0.382 N 
ATOM     42  C   UNL     1      -5.904  -3.298  -1.421  0.00  0.00    -0.096 C 
ATOM     43  H   UNL     1      -4.745  -2.796  -3.024  0.00  0.00    -0.082 HD
ENDBRANCH  33  41
ENDBRANCH  32  33
ENDBRANCH  28  32
ENDBRANCH   1  29
TORSDOF 8
