REMARK  Name = ZINC03911864
REMARK  6 active torsions:
REMARK  status: ('A' for Active; 'I' for Inactive)
REMARK    1  A    between atoms: C_1  and  C_2
REMARK    2  A    between atoms: C_7  and  C_15
REMARK    3  A    between atoms: C_13  and  C_14
REMARK    4  A    between atoms: C_15  and  C_16
REMARK    5  A    between atoms: C_16  and  N_17
REMARK    6  A    between atoms: C_18  and  C_20
REMARK                            x       y       z     vdW  Elec       q    Type
REMARK                         _______ _______ _______ _____ _____    ______ ____
ROOT
ATOM      1  C   UNL     1      -4.915   0.853   0.053  0.00  0.00    +0.044 C 
ATOM      2  C   UNL     1      -3.615   1.615   0.045  0.00  0.00    -0.046 A 
ATOM      3  C   UNL     1      -3.632   3.003   0.051  0.00  0.00    +0.004 A 
ATOM      4  C   UNL     1      -2.465   3.713   0.044  0.00  0.00    +0.010 A 
ATOM      5  C   UNL     1      -1.242   3.036   0.029  0.00  0.00    -0.001 A 
ATOM      6  C   UNL     1       0.028   3.765   0.021  0.00  0.00    +0.019 A 
ATOM      7  C   UNL     1       1.183   3.055   0.006  0.00  0.00    +0.019 A 
ATOM      8  C   UNL     1       1.150   1.644  -0.000  0.00  0.00    +0.252 A 
ATOM      9  O   UNL     1       2.200   1.025  -0.013  0.00  0.00    -0.268 OA
ATOM     10  N   UNL     1      -0.011   0.966   0.007  0.00  0.00    -0.322 N 
ATOM     11  H   UNL     1       0.002  -0.004   0.002  0.00  0.00    +0.169 HD
ATOM     12  C   UNL     1      -1.220   1.629   0.017  0.00  0.00    +0.052 A 
ATOM     13  C   UNL     1      -2.421   0.927   0.031  0.00  0.00    -0.024 A 
ATOM     14  C   UNL     1      -2.417  -0.580   0.025  0.00  0.00    +0.046 C 
ENDROOT
BRANCH   7  15
ATOM     15  C   UNL     1       2.507   3.775  -0.004  0.00  0.00    +0.059 C 
BRANCH  15  16
ATOM     16  C   UNL     1       3.029   3.901   1.429  0.00  0.00    +0.109 C 
BRANCH  16  17
ATOM     17  N   UNL     1       4.316   4.601   1.419  0.00  0.00    -0.311 N 
ATOM     18  C   UNL     1       4.968   4.828   2.577  0.00  0.00    +0.245 C 
ATOM     19  O   UNL     1       4.489   4.452   3.629  0.00  0.00    -0.270 OA
ATOM     20  H   UNL     1       4.699   4.901   0.580  0.00  0.00    +0.149 HD
BRANCH  18  21
ATOM     21  C   UNL     1       6.267   5.534   2.567  0.00  0.00    +0.055 A 
ATOM     22  C   UNL     1       6.823   5.962   1.361  0.00  0.00    +0.014 A 
ATOM     23  C   UNL     1       8.033   6.625   1.359  0.00  0.00    +0.001 A 
ATOM     24  C   UNL     1       8.700   6.857   2.549  0.00  0.00    +0.001 A 
ATOM     25  C   UNL     1       8.159   6.432   3.748  0.00  0.00    +0.021 A 
ATOM     26  C   UNL     1       6.945   5.771   3.765  0.00  0.00    +0.053 A 
ATOM     27 CL   UNL     1       6.266   5.237   5.271  0.00  0.00    -0.083 Cl
ENDBRANCH  18  21
ENDBRANCH  16  17
ENDBRANCH  15  16
ENDBRANCH   7  15
TORSDOF 4
