REMARK  Name = ZINC36542055
REMARK  17 active torsions:
REMARK  status: ('A' for Active; 'I' for Inactive)
REMARK    1  A    between atoms: C_1  and  C_2
REMARK    2  A    between atoms: C_2  and  C_3
REMARK    3  A    between atoms: C_3  and  C_4
REMARK    4  A    between atoms: C_4  and  C_5
REMARK    5  A    between atoms: C_5  and  C_6
REMARK    6  A    between atoms: C_7  and  C_8
REMARK    7  A    between atoms: N_10  and  C_11
REMARK    8  A    between atoms: N_10  and  C_18
REMARK    9  A    between atoms: C_18  and  C_20
REMARK   10  A    between atoms: C_18  and  C_29
REMARK   11  A    between atoms: C_21  and  O_28
REMARK   12  A    between atoms: C_23  and  O_27
REMARK   13  A    between atoms: C_25  and  O_26
REMARK   14  A    between atoms: N_31  and  C_32
REMARK   15  A    between atoms: C_32  and  C_33
REMARK   16  A    between atoms: C_32  and  C_34
REMARK   17  A    between atoms: C_32  and  C_35
REMARK                            x       y       z     vdW  Elec       q    Type
REMARK                         _______ _______ _______ _____ _____    ______ ____
ROOT
ATOM      1  C   UNL     1      -0.832  -3.892  -6.843  0.00  0.00    +0.204 C 
ENDROOT
BRANCH   1   2
ATOM      2  C   UNL     1      -1.611  -3.276  -5.709  0.00  0.00    +0.065 A 
ATOM      3  C   UNL     1      -1.926  -4.035  -4.592  0.00  0.00    +0.129 A 
ATOM      4  C   UNL     1      -2.642  -3.468  -3.549  0.00  0.00    +0.091 A 
ATOM      5  C   UNL     1      -3.043  -2.142  -3.622  0.00  0.00    +0.124 A 
ATOM      6  C   UNL     1      -2.727  -1.383  -4.739  0.00  0.00    +0.091 A 
ATOM      7  C   UNL     1      -2.007  -1.949  -5.780  0.00  0.00    +0.129 A 
BRANCH   7   8
ATOM      8  O   UNL     1      -1.693  -1.204  -6.873  0.00  0.00    -0.506 OA
ATOM      9  H   UNL     1      -2.358  -1.235  -7.574  0.00  0.00    +0.292 HD
ENDBRANCH   7   8
BRANCH   5  10
ATOM     10  O   UNL     1      -3.746  -1.587  -2.600  0.00  0.00    -0.507 OA
ATOM     11  H   UNL     1      -3.194  -1.177  -1.921  0.00  0.00    +0.292 HD
ENDBRANCH   5  10
BRANCH   3  12
ATOM     12  O   UNL     1      -1.533  -5.334  -4.519  0.00  0.00    -0.506 OA
ATOM     13  H   UNL     1      -0.696  -5.466  -4.055  0.00  0.00    +0.292 HD
ENDBRANCH   3  12
ENDBRANCH   1   2
BRANCH   1  14
ATOM     14  C   UNL     1      -1.713  -4.861  -7.589  0.00  0.00    +0.239 C 
ATOM     15  O   UNL     1      -1.860  -5.990  -7.174  0.00  0.00    -0.273 OA
ATOM     16  N   UNL     1      -2.337  -4.471  -8.718  0.00  0.00    -0.309 N 
ATOM     17  H   UNL     1      -2.219  -3.567  -9.051  0.00  0.00    +0.149 HD
BRANCH  16  18
ATOM     18  C   UNL     1      -3.193  -5.412  -9.444  0.00  0.00    +0.026 C 
ATOM     19  C   UNL     1      -4.332  -5.873  -8.532  0.00  0.00    +0.031 C 
ATOM     20  C   UNL     1      -3.776  -4.723 -10.680  0.00  0.00    +0.031 C 
ATOM     21  C   UNL     1      -2.366  -6.624  -9.878  0.00  0.00    +0.031 C 
ENDBRANCH  16  18
ENDBRANCH   1  14
BRANCH   1  24
ATOM     22  C   UNL     1       0.998  -4.103  -5.247  0.00  0.00    +0.244 C 
ATOM     23  O   UNL     1       0.634  -3.061  -4.737  0.00  0.00    -0.270 OA
ATOM     24  N   UNL     1       0.331  -4.604  -6.307  0.00  0.00    -0.250 N 
BRANCH  24  25
ATOM     25  C   UNL     1       0.750  -5.802  -6.894  0.00  0.00    +0.056 A 
ATOM     26  C   UNL     1       0.360  -7.018  -6.348  0.00  0.00    +0.025 A 
ATOM     27  C   UNL     1       0.774  -8.200  -6.930  0.00  0.00    +0.002 A 
ATOM     28  C   UNL     1       1.578  -8.174  -8.056  0.00  0.00    +0.002 A 
ATOM     29  C   UNL     1       1.969  -6.966  -8.602  0.00  0.00    +0.022 A 
ATOM     30  C   UNL     1       1.552  -5.779  -8.028  0.00  0.00    +0.062 A 
ATOM     31 CL   UNL     1       2.037  -4.262  -8.719  0.00  0.00    -0.082 Cl
ENDBRANCH  24  25
BRANCH  22  33
ATOM     32  C   UNL     1       2.733  -4.406  -3.579  0.00  0.00    -0.022 C 
ATOM     33  C   UNL     1       2.165  -4.817  -4.709  0.00  0.00    +0.063 C 
BRANCH  32  34
ATOM     34  C   UNL     1       2.044  -3.378  -2.719  0.00  0.00    +0.027 C 
BRANCH  34  35
ATOM     35  C   UNL     1       2.096  -3.820  -1.256  0.00  0.00    +0.004 C 
BRANCH  35  36
ATOM     36  C   UNL     1       1.396  -2.776  -0.383  0.00  0.00    +0.000 C 
BRANCH  36  38
ATOM     37  C   UNL     1       0.748  -2.174   1.954  0.00  0.00    +0.004 C 
ATOM     38  C   UNL     1       1.448  -3.218   1.081  0.00  0.00    -0.003 C 
ENDBRANCH  36  38
ENDBRANCH  35  36
ENDBRANCH  34  35
ENDBRANCH  32  34
ENDBRANCH  22  33
ENDBRANCH   1  24
TORSDOF 13
