REMARK  Name = ZINC51118767
REMARK  4 active torsions:
REMARK  status: ('A' for Active; 'I' for Inactive)
REMARK    1  A    between atoms: C_1  and  C_2
REMARK    2  A    between atoms: C_2  and  N_9
REMARK    3  A    between atoms: C_10  and  C_12
REMARK    4  A    between atoms: N_18  and  N_19
REMARK                            x       y       z     vdW  Elec       q    Type
REMARK                         _______ _______ _______ _____ _____    ______ ____
ROOT
ATOM      1  N   UNL     1      -1.378  -0.491   0.059  0.00  0.00    -0.304 N 
ATOM      2  C   UNL     1      -2.254  -0.148  -0.907  0.00  0.00    +0.246 C 
ATOM      3  O   UNL     1      -1.898   0.565  -1.825  0.00  0.00    -0.270 OA
ATOM      4  H   UNL     1      -1.662  -1.060   0.791  0.00  0.00    +0.150 HD
ENDROOT
BRANCH   2   5
ATOM      5  C   UNL     1      -3.644  -0.639  -0.850  0.00  0.00    +0.056 A 
ATOM      6  C   UNL     1      -4.563  -0.293  -1.853  0.00  0.00    +0.038 A 
ATOM      7  C   UNL     1      -5.843  -0.771  -1.760  0.00  0.00    +0.083 A 
ATOM      8  C   UNL     1      -6.193  -1.581  -0.680  0.00  0.00    +0.151 A 
ATOM      9  N   UNL     1      -5.305  -1.893   0.254  0.00  0.00    -0.237 NA
ATOM     10  C   UNL     1      -4.063  -1.458   0.199  0.00  0.00    +0.126 A 
ATOM     11  N   UNL     1      -7.487  -2.067  -0.582  0.00  0.00    -0.266 N 
ATOM     12 CL   UNL     1      -7.018  -0.372  -2.974  0.00  0.00    -0.080 Cl
ATOM     13  H   UNL     1      -8.142  -1.843  -1.261  0.00  0.00    +0.167 HD
BRANCH  11  14
ATOM     14  N   UNL     1      -7.840  -2.861   0.472  0.00  0.00    -0.255 NA
ATOM     15  H   UNL     1      -7.651  -2.402   1.350  0.00  0.00    +0.140 HD
ATOM     16  H   UNL     1      -8.808  -3.136   0.409  0.00  0.00    +0.140 HD
ENDBRANCH  11  14
ENDBRANCH   2   5
BRANCH   1  18
ATOM     17  C   UNL     1      -0.019   1.526   0.010  0.00  0.00    +0.033 C 
ATOM     18  C   UNL     1       0.002  -0.004   0.002  0.00  0.00    +0.053 C 
ATOM     19  C   UNL     1       0.632  -0.478  -1.307  0.00  0.00    +0.049 C 
ATOM     20  C   UNL     1       2.169  -0.637  -1.140  0.00  0.00    +0.168 C 
ATOM     21  S   UNL     1       2.220  -1.358   0.560  0.00  0.00    -0.029 S 
ATOM     22  O   UNL     1       3.389  -0.902   1.226  0.00  0.00    -0.174 OA
ATOM     23  O   UNL     1       1.952  -2.752   0.484  0.00  0.00    -0.174 OA
ATOM     24  C   UNL     1       0.751  -0.495   1.257  0.00  0.00    +0.191 C 
ENDBRANCH   1  18
TORSDOF 3
