REMARK  Name = ZINC40377014
REMARK  8 active torsions:
REMARK  status: ('A' for Active; 'I' for Inactive)
REMARK    1  A    between atoms: C_1  and  C_2
REMARK    2  A    between atoms: N_7  and  S_9
REMARK    3  A    between atoms: S_9  and  N_12
REMARK    4  A    between atoms: N_12  and  C_13
REMARK    5  A    between atoms: C_13  and  C_14
REMARK    6  A    between atoms: C_13  and  C_15
REMARK    7  A    between atoms: C_13  and  C_16
REMARK    8  A    between atoms: N_17  and  O_18
REMARK                            x       y       z     vdW  Elec       q    Type
REMARK                         _______ _______ _______ _____ _____    ______ ____
ROOT
ATOM      1  N   UNL     1       2.034  -3.606   3.660  0.00  0.00    -0.167 NA
ATOM      2  H   UNL     1       2.632  -4.332   3.897  0.00  0.00    +0.150 HD
ENDROOT
BRANCH   1   3
ATOM      3  S   UNL     1       1.138  -3.691   2.270  0.00  0.00    +0.098 S 
ATOM      4  O   UNL     1      -0.186  -3.307   2.616  0.00  0.00    -0.141 OA
ATOM      5  O   UNL     1       1.436  -4.945   1.671  0.00  0.00    -0.141 OA
BRANCH   3  11
ATOM      6  C   UNL     1       0.074   0.143  -0.882  0.00  0.00    +0.009 C 
ATOM      7  C   UNL     1       0.778  -1.177  -0.560  0.00  0.00    +0.002 C 
ATOM      8  C   UNL     1       2.165  -1.187  -1.206  0.00  0.00    +0.006 C 
ATOM      9  C   UNL     1       2.857  -2.520  -0.913  0.00  0.00    +0.017 C 
ATOM     10  C   UNL     1       3.028  -2.680   0.601  0.00  0.00    +0.110 C 
ATOM     11  N   UNL     1       1.715  -2.527   1.243  0.00  0.00    -0.166 NA
ATOM     12  C   UNL     1       0.924  -1.323   0.958  0.00  0.00    +0.113 C 
ENDBRANCH   3  11
ENDBRANCH   1   3
BRANCH   1  13
ATOM     13  C   UNL     1       1.923  -2.434   4.532  0.00  0.00    +0.093 C 
ATOM     14  C   UNL     1       2.171  -1.165   3.715  0.00  0.00    +0.037 C 
ATOM     15  C   UNL     1       0.521  -2.383   5.142  0.00  0.00    +0.037 C 
BRANCH  13  16
ATOM     16  C   UNL     1       2.947  -2.530   5.634  0.00  0.00    +0.153 C 
ATOM     17  N   UNL     1       3.785  -1.565   5.822  0.00  0.00    -0.075 NA
ATOM     18  N   UNL     1       2.989  -3.646   6.441  0.00  0.00    -0.342 N 
ATOM     19  H   UNL     1       2.359  -4.370   6.299  0.00  0.00    +0.144 HD
ATOM     20  H   UNL     1       3.647  -3.707   7.150  0.00  0.00    +0.144 HD
BRANCH  17  21
ATOM     21  O   UNL     1       4.747  -1.655   6.858  0.00  0.00    -0.408 OA
ATOM     22  H   UNL     1       5.330  -0.886   6.921  0.00  0.00    +0.328 HD
ENDBRANCH  17  21
ENDBRANCH  13  16
ENDBRANCH   1  13
TORSDOF 5
