REMARK  Name = ZINC08644735
REMARK  9 active torsions:
REMARK  status: ('A' for Active; 'I' for Inactive)
REMARK    1  A    between atoms: C_1  and  C_2
REMARK    2  A    between atoms: C_2  and  C_3
REMARK    3  A    between atoms: C_6  and  C_9
REMARK    4  A    between atoms: C_9  and  C_11
REMARK    5  A    between atoms: C_9  and  N_12
REMARK    6  A    between atoms: C_13  and  C_15
REMARK    7  A    between atoms: C_15  and  N_16
REMARK    8  A    between atoms: C_19  and  C_23
REMARK    9  A    between atoms: C_19  and  C_24
REMARK                            x       y       z     vdW  Elec       q    Type
REMARK                         _______ _______ _______ _____ _____    ______ ____
ROOT
ATOM      1  N   UNL     1      -1.865   4.647   9.454  0.00  0.00    -0.215 N 
ATOM      2  C   UNL     1      -1.440   3.495  10.009  0.00  0.00    +0.251 C 
ATOM      3  O   UNL     1      -0.782   2.626   9.480  0.00  0.00    -0.272 OA
ATOM      4  C   UNL     1      -1.957   3.512  11.434  0.00  0.00    +0.136 C 
ATOM      5  N   UNL     1      -2.680   4.793  11.525  0.00  0.00    -0.281 N 
ATOM      6  C   UNL     1      -2.566   5.385  10.323  0.00  0.00    +0.310 C 
ATOM      7  O   UNL     1      -3.049   6.468  10.054  0.00  0.00    -0.252 OA
ATOM      8  C   UNL     1      -2.908   2.338  11.677  0.00  0.00    +0.047 C 
ATOM      9  H   UNL     1      -3.146   5.142  12.301  0.00  0.00    +0.152 HD
ENDROOT
BRANCH   4  10
ATOM     10  C   UNL     1      -0.812   3.476  12.414  0.00  0.00    -0.008 A 
ATOM     11  C   UNL     1      -0.605   4.519  13.263  0.00  0.00    +0.007 A 
ATOM     12  C   UNL     1       0.448   4.503  14.175  0.00  0.00    +0.001 A 
ATOM     13  C   UNL     1       1.300   3.444  14.244  0.00  0.00    +0.008 A 
ATOM     14  C   UNL     1       1.117   2.348  13.384  0.00  0.00    -0.018 A 
ATOM     15  C   UNL     1       0.043   2.362  12.459  0.00  0.00    -0.012 A 
ATOM     16  C   UNL     1      -0.136   1.269  11.595  0.00  0.00    +0.009 A 
ATOM     17  C   UNL     1       0.716   0.209  11.664  0.00  0.00    +0.001 A 
ATOM     18  C   UNL     1       1.769   0.193  12.576  0.00  0.00    +0.001 A 
ATOM     19  C   UNL     1       1.976   1.237  13.425  0.00  0.00    +0.008 A 
ENDBRANCH   4  10
BRANCH   1  20
ATOM     20  C   UNL     1      -1.587   5.046   8.072  0.00  0.00    +0.213 C 
BRANCH  20  22
ATOM     21  N   UNL     1      -2.640   4.787   5.849  0.00  0.00    -0.307 N 
ATOM     22  C   UNL     1      -2.685   4.538   7.173  0.00  0.00    +0.231 C 
ATOM     23  O   UNL     1      -3.608   3.906   7.640  0.00  0.00    -0.274 OA
ATOM     24  H   UNL     1      -1.902   5.293   5.475  0.00  0.00    +0.149 HD
BRANCH  21  25
ATOM     25  C   UNL     1      -3.707   4.294   4.974  0.00  0.00    +0.100 C 
ATOM     26  C   UNL     1      -4.868   5.291   4.974  0.00  0.00    +0.033 C 
BRANCH  25  30
ATOM     27  C   UNL     1      -2.204   3.859   1.000  0.00  0.00    -0.048 A 
ATOM     28  C   UNL     1      -1.827   4.946   1.766  0.00  0.00    +0.004 A 
ATOM     29  C   UNL     1      -2.317   5.089   3.050  0.00  0.00    +0.006 A 
ATOM     30  C   UNL     1      -3.177   4.140   3.572  0.00  0.00    -0.027 A 
ATOM     31  C   UNL     1      -3.550   3.051   2.808  0.00  0.00    +0.006 A 
ATOM     32  C   UNL     1      -3.063   2.910   1.522  0.00  0.00    +0.004 A 
BRANCH  27  34
ATOM     33  C   UNL     1      -2.623   4.395  -1.385  0.00  0.00    +0.009 C 
ATOM     34  C   UNL     1      -1.674   3.705  -0.403  0.00  0.00    +0.032 C 
ENDBRANCH  27  34
ENDBRANCH  25  30
ENDBRANCH  21  25
ENDBRANCH  20  22
ENDBRANCH   1  20
TORSDOF 6
