REMARK  Name = ZINC60380954
REMARK  6 active torsions:
REMARK  status: ('A' for Active; 'I' for Inactive)
REMARK    1  A    between atoms: C_1  and  C_2
REMARK    2  A    between atoms: C_5  and  O_9
REMARK    3  A    between atoms: C_6  and  C_8
REMARK    4  A    between atoms: O_9  and  C_10
REMARK    5  A    between atoms: C_10  and  C_11
REMARK    6  A    between atoms: C_14  and  C_16
REMARK                            x       y       z     vdW  Elec       q    Type
REMARK                         _______ _______ _______ _____ _____    ______ ____
ROOT
ATOM      1  C   UNL     1       0.079  -6.265  -1.103  0.00  0.00    +0.143 A 
ATOM      2  C   UNL     1      -1.009  -7.060  -1.003  0.00  0.00    +0.049 A 
ATOM      3  C   UNL     1      -0.546  -8.375  -0.838  0.00  0.00    +0.055 A 
ATOM      4  C   UNL     1       0.818  -8.314  -0.845  0.00  0.00    +0.190 A 
ATOM      5  O   UNL     1       1.178  -7.025  -1.013  0.00  0.00    -0.452 OA
ENDROOT
BRANCH   4   6
ATOM      6  C   UNL     1       1.732  -9.452  -0.702  0.00  0.00    +0.285 C 
ATOM      7  O   UNL     1       1.287 -10.576  -0.560  0.00  0.00    -0.266 OA
ATOM      8  N   UNL     1       3.065  -9.253  -0.727  0.00  0.00    -0.264 N 
ATOM      9  C   UNL     1       3.933 -10.317  -0.484  0.00  0.00    +0.125 A 
ATOM     10  C   UNL     1       5.301 -10.084  -0.407  0.00  0.00    +0.046 A 
ATOM     11  C   UNL     1       6.152 -11.148  -0.166  0.00  0.00    +0.043 A 
ATOM     12  C   UNL     1       5.602 -12.415  -0.009  0.00  0.00    +0.142 A 
ATOM     13  C   UNL     1       4.231 -12.572  -0.099  0.00  0.00    +0.151 A 
ATOM     14  N   UNL     1       3.445 -11.537  -0.325  0.00  0.00    -0.237 NA
ATOM     15  F   UNL     1       6.398 -13.481   0.227  0.00  0.00    -0.204 F 
ATOM     16  H   UNL     1       3.420  -8.370  -0.913  0.00  0.00    +0.157 HD
ENDBRANCH   4   6
BRANCH   1  17
ATOM     17  C   UNL     1       0.059  -4.770  -1.291  0.00  0.00    +0.303 C 
BRANCH  17  18
ATOM     18  O   UNL     1       0.059  -4.129  -0.014  0.00  0.00    -0.484 OA
BRANCH  18  23
ATOM     19  C   UNL     1      -0.015   1.503   0.021  0.00  0.00    +0.044 C 
ATOM     20  C   UNL     1       0.005  -0.004   0.012  0.00  0.00    -0.050 A 
ATOM     21  C   UNL     1       0.007  -0.687  -1.191  0.00  0.00    +0.007 A 
ATOM     22  C   UNL     1       0.025  -2.068  -1.202  0.00  0.00    +0.046 A 
ATOM     23  C   UNL     1       0.042  -2.770  -0.005  0.00  0.00    +0.124 A 
ATOM     24  C   UNL     1       0.040  -2.083   1.200  0.00  0.00    -0.009 A 
ATOM     25  C   UNL     1       0.027  -0.701   1.205  0.00  0.00    +0.010 A 
ATOM     26  C   UNL     1       0.058  -2.842   2.501  0.00  0.00    +0.047 C 
ENDBRANCH  18  23
ENDBRANCH  17  18
ENDBRANCH   1  17
TORSDOF 4
