REMARK  Name = ZINC16428423
REMARK  8 active torsions:
REMARK  status: ('A' for Active; 'I' for Inactive)
REMARK    1  A    between atoms: C_6  and  N_7
REMARK    2  A    between atoms: N_10  and  C_11
REMARK    3  A    between atoms: C_13  and  N_31
REMARK    4  A    between atoms: C_16  and  N_17
REMARK    5  A    between atoms: N_17  and  C_18
REMARK    6  A    between atoms: C_18  and  C_19
REMARK    7  A    between atoms: C_19  and  O_20
REMARK    8  A    between atoms: N_23  and  C_24
REMARK                            x       y       z     vdW  Elec       q    Type
REMARK                         _______ _______ _______ _____ _____    ______ ____
ROOT
ATOM      1  C   UNL     1       0.941   2.838   0.533  0.00  0.00    +0.058 A 
ATOM      2  C   UNL     1      -0.261   3.442   0.871  0.00  0.00    +0.058 A 
ATOM      3  C   UNL     1      -1.408   2.680   0.990  0.00  0.00    +0.128 A 
ATOM      4  C   UNL     1      -1.363   1.315   0.768  0.00  0.00    +0.034 A 
ATOM      5  C   UNL     1      -0.168   0.704   0.436  0.00  0.00    +0.027 A 
ATOM      6  C   UNL     1       0.988   1.461   0.315  0.00  0.00    +0.059 A 
ENDROOT
BRANCH   1  10
ATOM      7  N   UNL     1       3.125   5.688   0.124  0.00  0.00    -0.269 N 
ATOM      8  C   UNL     1       2.016   4.922   0.126  0.00  0.00    +0.308 C 
ATOM      9  O   UNL     1       0.936   5.417  -0.132  0.00  0.00    -0.252 OA
ATOM     10  N   UNL     1       2.105   3.608   0.412  0.00  0.00    -0.267 N 
ATOM     11  H   UNL     1       3.996   5.280   0.253  0.00  0.00    +0.156 HD
ATOM     12  H   UNL     1       2.974   3.196   0.534  0.00  0.00    +0.156 HD
BRANCH   7  18
ATOM     13  C   UNL     1       4.011   7.757  -0.752  0.00  0.00    +0.025 A 
ATOM     14  C   UNL     1       3.902   9.121  -0.940  0.00  0.00    +0.022 A 
ATOM     15  C   UNL     1       2.813   9.806  -0.430  0.00  0.00    +0.041 A 
ATOM     16  C   UNL     1       1.828   9.126   0.263  0.00  0.00    +0.022 A 
ATOM     17  C   UNL     1       1.929   7.761   0.448  0.00  0.00    +0.025 A 
ATOM     18  C   UNL     1       3.021   7.071  -0.062  0.00  0.00    +0.035 A 
ATOM     19 CL   UNL     1       2.683  11.522  -0.661  0.00  0.00    -0.084 Cl
ENDBRANCH   7  18
ENDBRANCH   1  10
BRANCH   6  20
ATOM     20  N   UNL     1       2.199   0.845  -0.027  0.00  0.00    -0.251 N 
ATOM     21  C   UNL     1       2.550   0.721  -1.323  0.00  0.00    +0.311 C 
ATOM     22  O   UNL     1       1.815   1.143  -2.195  0.00  0.00    -0.252 OA
ATOM     23  N   UNL     1       3.714   0.128  -1.651  0.00  0.00    -0.269 N 
ATOM     24  H   UNL     1       4.339  -0.134  -0.957  0.00  0.00    +0.156 HD
BRANCH  23  25
ATOM     25  C   UNL     1       4.023  -0.111  -2.996  0.00  0.00    +0.035 A 
ATOM     26  C   UNL     1       3.004  -0.264  -3.927  0.00  0.00    +0.025 A 
ATOM     27  C   UNL     1       3.312  -0.494  -5.253  0.00  0.00    +0.022 A 
ATOM     28  C   UNL     1       4.634  -0.583  -5.653  0.00  0.00    +0.041 A 
ATOM     29  C   UNL     1       5.651  -0.436  -4.726  0.00  0.00    +0.022 A 
ATOM     30  C   UNL     1       5.349  -0.201  -3.400  0.00  0.00    +0.025 A 
ATOM     31 CL   UNL     1       5.017  -0.878  -7.321  0.00  0.00    -0.084 Cl
ENDBRANCH  23  25
BRANCH  20  32
ATOM     32  C   UNL     1       3.083   0.336   1.023  0.00  0.00    +0.143 C 
BRANCH  32  33
ATOM     33  C   UNL     1       2.725  -1.120   1.331  0.00  0.00    +0.175 C 
BRANCH  33  34
ATOM     34  O   UNL     1       2.994  -1.929   0.185  0.00  0.00    -0.393 OA
ATOM     35  H   UNL     1       2.789  -2.866   0.308  0.00  0.00    +0.209 HD
ENDBRANCH  33  34
ENDBRANCH  32  33
ENDBRANCH  20  32
ENDBRANCH   6  20
BRANCH   3  36
ATOM     36  N   UNL     1      -2.690   3.326   1.350  0.00  0.00    +0.056 N 
ATOM     37  O   UNL     1      -2.732   4.529   1.542  0.00  0.00    -0.126 OA
ATOM     38  O   UNL     1      -3.701   2.657   1.456  0.00  0.00    -0.126 OA
ENDBRANCH   3  36
TORSDOF 8
