REMARK  Name = ZINC46560637
REMARK  10 active torsions:
REMARK  status: ('A' for Active; 'I' for Inactive)
REMARK    1  A    between atoms: C_1  and  C_2
REMARK    2  A    between atoms: C_4  and  C_18
REMARK    3  A    between atoms: C_5  and  C_17
REMARK    4  A    between atoms: N_6  and  C_7
REMARK    5  A    between atoms: C_10  and  O_13
REMARK    6  A    between atoms: O_13  and  C_14
REMARK    7  A    between atoms: C_18  and  C_20
REMARK    8  A    between atoms: C_20  and  S_21
REMARK    9  A    between atoms: S_21  and  C_22
REMARK   10  A    between atoms: C_26  and  N_28
REMARK                            x       y       z     vdW  Elec       q    Type
REMARK                         _______ _______ _______ _____ _____    ______ ____
ROOT
ATOM      1  C   UNL     1      -0.018   1.503   0.010  0.00  0.00    +0.064 C 
ATOM      2  C   UNL     1       0.002  -0.004   0.002  0.00  0.00    +0.022 A 
ATOM      3  C   UNL     1       0.008  -0.777  -1.097  0.00  0.00    +0.034 A 
ATOM      4  C   UNL     1       0.029  -2.168  -0.626  0.00  0.00    +0.039 A 
ATOM      5  C   UNL     1       0.034  -2.101   0.755  0.00  0.00    +0.031 A 
ATOM      6  N   UNL     1       0.024  -0.802   1.111  0.00  0.00    -0.317 N 
ATOM      7  C   UNL     1       0.054  -3.276   1.698  0.00  0.00    +0.064 C 
ENDROOT
BRANCH   6   8
ATOM      8  C   UNL     1       0.030  -0.335   2.434  0.00  0.00    +0.047 A 
ATOM      9  C   UNL     1       1.134  -0.563   3.245  0.00  0.00    +0.030 A 
ATOM     10  C   UNL     1       1.140  -0.103   4.547  0.00  0.00    +0.048 A 
ATOM     11  C   UNL     1       0.044   0.587   5.045  0.00  0.00    +0.127 A 
ATOM     12  C   UNL     1      -1.059   0.815   4.234  0.00  0.00    +0.048 A 
ATOM     13  C   UNL     1      -1.064   0.361   2.930  0.00  0.00    +0.030 A 
BRANCH  11  14
ATOM     14  O   UNL     1       0.051   1.040   6.326  0.00  0.00    -0.434 OA
BRANCH  14  15
ATOM     15  C   UNL     1      -1.111   1.742   6.772  0.00  0.00    +0.541 C 
ATOM     16  F   UNL     1      -1.306   2.875   5.975  0.00  0.00    -0.166 F 
ATOM     17  F   UNL     1      -2.228   0.905   6.675  0.00  0.00    -0.166 F 
ENDBRANCH  14  15
ENDBRANCH  11  14
ENDBRANCH   6   8
BRANCH   4  18
ATOM     18  C   UNL     1       0.042  -3.378  -1.450  0.00  0.00    +0.175 C 
ATOM     19  O   UNL     1       0.058  -4.471  -0.923  0.00  0.00    -0.291 OA
BRANCH  18  20
ATOM     20  C   UNL     1       0.035  -3.267  -2.953  0.00  0.00    +0.157 C 
BRANCH  20  21
ATOM     21  S   UNL     1       0.054  -4.927  -3.683  0.00  0.00    -0.078 S 
BRANCH  21  22
ATOM     22  C   UNL     1       0.043  -4.630  -5.419  0.00  0.00    +0.192 A 
ATOM     23  N   UNL     1       0.031  -3.380  -5.860  0.00  0.00    -0.207 NA
ATOM     24  C   UNL     1       0.023  -3.118  -7.165  0.00  0.00    +0.122 A 
ATOM     25  C   UNL     1       0.028  -4.176  -8.069  0.00  0.00    +0.086 A 
ATOM     26  C   UNL     1       0.042  -5.475  -7.569  0.00  0.00    +0.122 A 
ATOM     27  N   UNL     1       0.054  -5.661  -6.251  0.00  0.00    -0.207 NA
ATOM     28  N   UNL     1       0.009  -1.807  -7.617  0.00  0.00    -0.343 N 
ATOM     29  H   UNL     1       0.005  -1.075  -6.982  0.00  0.00    +0.144 HD
ATOM     30  H   UNL     1       0.003  -1.623  -8.570  0.00  0.00    +0.144 HD
BRANCH  26  31
ATOM     31  N   UNL     1       0.047  -6.559  -8.432  0.00  0.00    -0.343 N 
ATOM     32  H   UNL     1       0.042  -6.416  -9.391  0.00  0.00    +0.144 HD
ATOM     33  H   UNL     1       0.057  -7.462  -8.076  0.00  0.00    +0.144 HD
ENDBRANCH  26  31
ENDBRANCH  21  22
ENDBRANCH  20  21
ENDBRANCH  18  20
ENDBRANCH   4  18
TORSDOF 8
