REMARK  Name = ZINC64600424
REMARK  9 active torsions:
REMARK  status: ('A' for Active; 'I' for Inactive)
REMARK    1  A    between atoms: C_1  and  C_2
REMARK    2  A    between atoms: C_7  and  O_32
REMARK    3  A    between atoms: C_13  and  C_15
REMARK    4  A    between atoms: C_15  and  C_16
REMARK    5  A    between atoms: N_18  and  C_19
REMARK    6  A    between atoms: C_19  and  C_20
REMARK    7  A    between atoms: C_20  and  C_21
REMARK    8  A    between atoms: C_24  and  O_30
REMARK    9  A    between atoms: O_30  and  C_31
REMARK                            x       y       z     vdW  Elec       q    Type
REMARK                         _______ _______ _______ _____ _____    ______ ____
ROOT
ATOM      1  C   UNL     1       2.676  -0.121   2.744  0.00  0.00    +0.214 C 
ATOM      2  O   UNL     1       2.169  -0.983   3.430  0.00  0.00    -0.276 OA
ATOM      3  N   UNL     1       3.827   0.461   3.137  0.00  0.00    -0.315 N 
ATOM      4  H   UNL     1       4.233   1.151   2.589  0.00  0.00    +0.149 HD
ENDROOT
BRANCH   1   5
ATOM      5  C   UNL     1       2.021   0.300   1.454  0.00  0.00    +0.111 C 
BRANCH   5  17
ATOM      6  C   UNL     1      -0.019   1.526   0.010  0.00  0.00    +0.013 C 
ATOM      7  C   UNL     1       0.002  -0.004   0.002  0.00  0.00    +0.034 C 
ATOM      8  C   UNL     1       0.705  -0.489  -1.241  0.00  0.00    -0.001 A 
ATOM      9  C   UNL     1       0.474   0.181  -2.433  0.00  0.00    +0.011 A 
ATOM     10  C   UNL     1       1.090  -0.230  -3.597  0.00  0.00    +0.046 A 
ATOM     11  C   UNL     1       1.945  -1.323  -3.580  0.00  0.00    +0.120 A 
ATOM     12  C   UNL     1       2.180  -1.994  -2.391  0.00  0.00    +0.092 A 
ATOM     13  C   UNL     1       1.562  -1.575  -1.218  0.00  0.00    +0.139 A 
ATOM     14  O   UNL     1       1.836  -2.249  -0.069  0.00  0.00    -0.425 OA
ATOM     15  C   UNL     1       1.083  -1.967   1.014  0.00  0.00    +0.316 C 
ATOM     16  O   UNL     1       0.701  -2.835   1.762  0.00  0.00    -0.250 OA
ATOM     17  C   UNL     1       0.740  -0.510   1.245  0.00  0.00    +0.114 C 
BRANCH  11  18
ATOM     18  O   UNL     1       2.550  -1.734  -4.725  0.00  0.00    -0.507 OA
ATOM     19  H   UNL     1       3.407  -1.316  -4.889  0.00  0.00    +0.292 HD
ENDBRANCH  11  18
ENDBRANCH   5  17
ENDBRANCH   1   5
BRANCH   3  20
ATOM     20  C   UNL     1       4.464   0.053   4.391  0.00  0.00    +0.108 C 
BRANCH  20  21
ATOM     21  C   UNL     1       5.745   0.862   4.600  0.00  0.00    +0.052 C 
BRANCH  21  22
ATOM     22  C   UNL     1       6.401   0.442   5.890  0.00  0.00    -0.040 C 
ATOM     23  C   UNL     1       7.388  -0.470   6.041  0.00  0.00    +0.002 A 
ATOM     24  C   UNL     1       8.119  -1.312   5.088  0.00  0.00    +0.055 A 
ATOM     25  C   UNL     1       9.080  -2.153   5.542  0.00  0.00    +0.121 A 
ATOM     26  C   UNL     1       9.408  -2.252   6.905  0.00  0.00    +0.047 A 
ATOM     27  C   UNL     1       8.791  -1.519   7.856  0.00  0.00    +0.029 A 
ATOM     28  C   UNL     1       7.735  -0.576   7.477  0.00  0.00    +0.043 A 
ATOM     29  N   UNL     1       6.992   0.238   8.185  0.00  0.00    -0.380 N 
ATOM     30  C   UNL     1       6.092   0.959   7.277  0.00  0.00    +0.144 C 
ATOM     31  H   UNL     1       7.032   0.349   9.148  0.00  0.00    +0.160 HD
BRANCH  25  32
ATOM     32  O   UNL     1       9.749  -2.928   4.647  0.00  0.00    -0.495 OA
ATOM     33  C   UNL     1      10.754  -3.799   5.169  0.00  0.00    +0.277 C 
ENDBRANCH  25  32
ENDBRANCH  21  22
ENDBRANCH  20  21
ENDBRANCH   3  20
TORSDOF 7
