REMARK  Name = ZINC12465983
REMARK  7 active torsions:
REMARK  status: ('A' for Active; 'I' for Inactive)
REMARK    1  A    between atoms: C_1  and  C_2
REMARK    2  A    between atoms: C_7  and  C_8
REMARK    3  A    between atoms: C_9  and  N_19
REMARK    4  A    between atoms: C_10  and  O_18
REMARK    5  A    between atoms: C_12  and  C_16
REMARK    6  A    between atoms: C_12  and  C_17
REMARK    7  A    between atoms: C_14  and  C_15
REMARK                            x       y       z     vdW  Elec       q    Type
REMARK                         _______ _______ _______ _____ _____    ______ ____
ROOT
ATOM      1  C   UNL     1      -0.018   1.503   0.010  0.00  0.00    +0.044 C 
ATOM      2  C   UNL     1       0.002  -0.004   0.002  0.00  0.00    -0.046 A 
ATOM      3  C   UNL     1       0.005  -0.669  -1.217  0.00  0.00    +0.014 A 
ATOM      4  C   UNL     1       0.025  -2.062  -1.234  0.00  0.00    +0.002 A 
ATOM      5  C   UNL     1       0.040  -2.723  -0.015  0.00  0.00    +0.063 A 
ATOM      6  C   UNL     1       0.037  -2.073   1.212  0.00  0.00    +0.035 A 
ATOM      7  C   UNL     1       0.023  -0.679   1.209  0.00  0.00    -0.036 A 
ATOM      8  C   UNL     1       0.024   0.084   2.508  0.00  0.00    +0.045 C 
ATOM      9  C   UNL     1       0.058  -3.161   2.204  0.00  0.00    +0.154 A 
ATOM     10  C   UNL     1       0.072  -4.353   1.484  0.00  0.00    +0.223 A 
ATOM     11  N   UNL     1       0.061  -4.081   0.151  0.00  0.00    -0.300 N 
ATOM     12  C   UNL     1       0.067  -4.895  -1.074  0.00  0.00    +0.062 C 
ATOM     13  C   UNL     1       0.049  -4.184  -2.408  0.00  0.00    +0.005 C 
ATOM     14  C   UNL     1       0.030  -2.854  -2.478  0.00  0.00    -0.043 C 
ATOM     15  C   UNL     1       0.013  -2.164  -3.817  0.00  0.00    +0.044 C 
ATOM     16  C   UNL     1       1.313  -5.782  -1.037  0.00  0.00    +0.039 C 
ATOM     17  C   UNL     1      -1.152  -5.819  -1.024  0.00  0.00    +0.039 C 
ENDROOT
BRANCH   9  18
ATOM     18  N   UNL     1       0.063  -3.028   3.549  0.00  0.00    -0.152 NA
ATOM     19  N   UNL     1       0.081  -4.036   4.271  0.00  0.00    -0.203 NA
ATOM     20  H   UNL     1       0.085  -3.941   5.236  0.00  0.00    +0.212 HD
ENDBRANCH   9  18
BRANCH  10  21
ATOM     21  O   UNL     1       0.093  -5.592   2.027  0.00  0.00    -0.492 OA
ATOM     22  H   UNL     1      -0.783  -5.966   2.189  0.00  0.00    +0.294 HD
ENDBRANCH  10  21
TORSDOF 2
