REMARK  Name = ZINC04263947
REMARK  7 active torsions:
REMARK  status: ('A' for Active; 'I' for Inactive)
REMARK    1  A    between atoms: C_1  and  C_2
REMARK    2  A    between atoms: C_7  and  N_8
REMARK    3  A    between atoms: N_8  and  C_9
REMARK    4  A    between atoms: C_10  and  C_11
REMARK    5  A    between atoms: C_10  and  C_13
REMARK    6  A    between atoms: C_15  and  C_18
REMARK    7  A    between atoms: C_21  and  N_24
REMARK                            x       y       z     vdW  Elec       q    Type
REMARK                         _______ _______ _______ _____ _____    ______ ____
ROOT
ATOM      1  C   UNL     1      -0.055  -0.694   3.558  0.00  0.00    +0.093 C 
ATOM      2  C   UNL     1      -0.160   0.008   4.785  0.00  0.00    +0.098 C 
ENDROOT
BRANCH   2   3
ATOM      3  C   UNL     1      -0.244  -0.698   5.990  0.00  0.00    +0.120 A 
ATOM      4  N   UNL     1      -0.353  -0.212   7.236  0.00  0.00    -0.238 NA
ATOM      5  C   UNL     1      -0.420  -1.035   8.238  0.00  0.00    +0.079 A 
ATOM      6  C   UNL     1      -0.370  -2.475   7.922  0.00  0.00    +0.075 A 
ATOM      7  S   UNL     1      -0.242  -2.464   6.243  0.00  0.00    -0.074 S 
BRANCH   5   8
ATOM      8  C   UNL     1      -0.540  -0.553   9.626  0.00  0.00    +0.001 A 
ATOM      9  C   UNL     1      -0.604  -1.467  10.686  0.00  0.00    +0.012 A 
ATOM     10  C   UNL     1      -0.715  -1.009  11.980  0.00  0.00    +0.033 A 
ATOM     11  C   UNL     1      -0.764   0.352  12.235  0.00  0.00    +0.126 A 
ATOM     12  C   UNL     1      -0.702   1.262  11.193  0.00  0.00    +0.033 A 
ATOM     13  C   UNL     1      -0.585   0.821   9.893  0.00  0.00    +0.012 A 
BRANCH  11  14
ATOM     14  N   UNL     1      -0.884   0.836  13.629  0.00  0.00    +0.056 N 
ATOM     15  O   UNL     1      -0.943  -0.027  14.623  0.00  0.00    -0.126 OA
ATOM     16  O   UNL     1      -0.931   2.129  13.876  0.00  0.00    -0.126 OA
ENDBRANCH  11  14
ENDBRANCH   5   8
ENDBRANCH   2   3
BRANCH   1  17
ATOM     17  N   UNL     1       0.025  -0.022   2.412  0.00  0.00    -0.319 N 
ATOM     18  H   UNL     1       0.087   0.946   2.421  0.00  0.00    +0.152 HD
BRANCH  17  25
ATOM     19  C   UNL     1      -0.065   1.502   0.011  0.00  0.00    +0.045 C 
ATOM     20  C   UNL     1      -0.023  -0.004   0.002  0.00  0.00    -0.029 A 
ATOM     21  C   UNL     1      -0.022  -0.688  -1.196  0.00  0.00    +0.006 A 
ATOM     22  C   UNL     1       0.016  -2.071  -1.206  0.00  0.00    +0.020 A 
ATOM     23  C   UNL     1       0.053  -2.776  -0.014  0.00  0.00    +0.043 A 
ATOM     24  C   UNL     1       0.052  -2.099   1.190  0.00  0.00    +0.043 A 
ATOM     25  C   UNL     1       0.020  -0.707   1.204  0.00  0.00    +0.035 A 
ATOM     26 CL   UNL     1       0.102  -4.511  -0.034  0.00  0.00    -0.083 Cl
ENDBRANCH  17  25
ENDBRANCH   1  17
BRANCH   2  27
ATOM     27  C   UNL     1      -0.179   1.440   4.792  0.00  0.00    +0.103 C 
ATOM     28  N   UNL     1      -0.194   2.576   4.797  0.00  0.00    -0.191 NA
ENDBRANCH   2  27
TORSDOF 6
