REMARK  Name = ZINC67642395
REMARK  6 active torsions:
REMARK  status: ('A' for Active; 'I' for Inactive)
REMARK    1  A    between atoms: C_1  and  C_2
REMARK    2  A    between atoms: C_3  and  C_18
REMARK    3  A    between atoms: C_4  and  C_10
REMARK    4  A    between atoms: N_20  and  C_21
REMARK    5  A    between atoms: N_20  and  C_22
REMARK    6  A    between atoms: C_22  and  C_23
REMARK                            x       y       z     vdW  Elec       q    Type
REMARK                         _______ _______ _______ _____ _____    ______ ____
ROOT
ATOM      1  C   UNL     1      -0.074   1.582  -0.269  0.00  0.00    +0.061 C 
ATOM      2  C   UNL     1      -0.058   0.086  -0.085  0.00  0.00    +0.019 C 
ATOM      3  C   UNL     1      -1.213  -0.606  -0.175  0.00  0.00    +0.056 C 
ATOM      4  C   UNL     1      -1.151  -2.108   0.015  0.00  0.00    +0.146 C 
ATOM      5  N   UNL     1       0.173  -2.693   0.284  0.00  0.00    -0.288 N 
ATOM      6  C   UNL     1       1.238  -1.869   0.345  0.00  0.00    +0.304 C 
ATOM      7  O   UNL     1       2.336  -2.342   0.566  0.00  0.00    -0.252 OA
ATOM      8  N   UNL     1       1.127  -0.547   0.163  0.00  0.00    -0.273 N 
ATOM      9  H   UNL     1       0.276  -3.648   0.416  0.00  0.00    +0.151 HD
ATOM     10  H   UNL     1       1.932  -0.009   0.215  0.00  0.00    +0.156 HD
ENDROOT
BRANCH   4  11
ATOM     11  C   UNL     1      -1.701  -2.756  -1.229  0.00  0.00    +0.031 A 
ATOM     12  C   UNL     1      -0.946  -2.780  -2.389  0.00  0.00    +0.130 A 
ATOM     13  C   UNL     1      -1.452  -3.377  -3.531  0.00  0.00    +0.039 A 
ATOM     14  C   UNL     1      -2.710  -3.948  -3.513  0.00  0.00    +0.004 A 
ATOM     15  C   UNL     1      -3.465  -3.924  -2.355  0.00  0.00    +0.020 A 
ATOM     16  C   UNL     1      -2.958  -3.333  -1.211  0.00  0.00    +0.049 A 
ATOM     17 CL   UNL     1      -3.903  -3.310   0.245  0.00  0.00    -0.083 Cl
ATOM     18  F   UNL     1       0.284  -2.222  -2.406  0.00  0.00    -0.205 F 
ENDBRANCH   4  11
BRANCH   3  19
ATOM     19  C   UNL     1      -2.441   0.050  -0.438  0.00  0.00    +0.246 C 
ATOM     20  O   UNL     1      -2.876   0.096  -1.574  0.00  0.00    -0.270 OA
ATOM     21  N   UNL     1      -3.128   0.622   0.571  0.00  0.00    -0.295 N 
ATOM     22  C   UNL     1      -2.557   0.659   1.919  0.00  0.00    +0.132 C 
BRANCH  21  23
ATOM     23  C   UNL     1      -4.447   1.208   0.318  0.00  0.00    +0.164 C 
BRANCH  23  24
ATOM     24  C   UNL     1      -5.510   0.160   0.524  0.00  0.00    +0.077 A 
ATOM     25  C   UNL     1      -6.159   0.062   1.743  0.00  0.00    +0.135 A 
ATOM     26  N   UNL     1      -7.091  -0.856   1.924  0.00  0.00    -0.260 NA
ATOM     27  C   UNL     1      -7.404  -1.682   0.941  0.00  0.00    +0.130 A 
ATOM     28  C   UNL     1      -6.756  -1.585  -0.277  0.00  0.00    +0.131 A 
ATOM     29  N   UNL     1      -5.827  -0.662  -0.460  0.00  0.00    -0.255 NA
ENDBRANCH  23  24
ENDBRANCH  21  23
ENDBRANCH   3  19
TORSDOF 4
