REMARK  Name = ZINC39843869
REMARK  7 active torsions:
REMARK  status: ('A' for Active; 'I' for Inactive)
REMARK    1  A    between atoms: C_1  and  C_2
REMARK    2  A    between atoms: C_2  and  N_3
REMARK    3  A    between atoms: N_3  and  C_4
REMARK    4  A    between atoms: C_5  and  S_16
REMARK    5  A    between atoms: C_7  and  C_9
REMARK    6  A    between atoms: C_14  and  C_15
REMARK    7  A    between atoms: S_16  and  C_19
REMARK                            x       y       z     vdW  Elec       q    Type
REMARK                         _______ _______ _______ _____ _____    ______ ____
ROOT
ATOM      1  C   UNL     1      -1.003  -1.742   0.374  0.00  0.00    +0.233 A 
ATOM      2  C   UNL     1      -2.259  -2.209   0.580  0.00  0.00    +0.243 A 
ATOM      3  N   UNL     1      -2.214  -3.547   0.510  0.00  0.00    -0.188 NA
ATOM      4  C   UNL     1      -0.979  -3.916   0.268  0.00  0.00    +0.232 A 
ATOM      5  O   UNL     1      -0.210  -2.813   0.174  0.00  0.00    -0.420 OA
ENDROOT
BRANCH   4   6
ATOM      6  C   UNL     1      -0.509  -5.308   0.118  0.00  0.00    +0.040 A 
ATOM      7  C   UNL     1      -0.903  -6.284   1.036  0.00  0.00    +0.013 A 
ATOM      8  C   UNL     1      -0.462  -7.582   0.890  0.00  0.00    +0.001 A 
ATOM      9  C   UNL     1       0.371  -7.919  -0.163  0.00  0.00    +0.000 A 
ATOM     10  C   UNL     1       0.765  -6.957  -1.076  0.00  0.00    +0.004 A 
ATOM     11  C   UNL     1       0.326  -5.656  -0.945  0.00  0.00    -0.038 A 
ATOM     12  C   UNL     1       0.752  -4.611  -1.944  0.00  0.00    +0.044 C 
ENDBRANCH   4   6
BRANCH   2  13
ATOM     13  S   UNL     1      -3.693  -1.232   0.886  0.00  0.00    +0.047 S 
ATOM     14  O   UNL     1      -4.614  -2.067   1.576  0.00  0.00    -0.163 OA
ATOM     15  O   UNL     1      -3.237   0.003   1.421  0.00  0.00    -0.163 OA
BRANCH  13  16
ATOM     16  C   UNL     1      -4.418  -0.866  -0.677  0.00  0.00    +0.096 A 
ATOM     17  C   UNL     1      -4.036   0.269  -1.367  0.00  0.00    +0.029 A 
ATOM     18  C   UNL     1      -4.604   0.556  -2.594  0.00  0.00    +0.022 A 
ATOM     19  C   UNL     1      -5.556  -0.293  -3.131  0.00  0.00    +0.041 A 
ATOM     20  C   UNL     1      -5.937  -1.429  -2.440  0.00  0.00    +0.022 A 
ATOM     21  C   UNL     1      -5.364  -1.718  -1.216  0.00  0.00    +0.029 A 
ATOM     22 CL   UNL     1      -6.270   0.068  -4.672  0.00  0.00    -0.084 Cl
ENDBRANCH  13  16
ENDBRANCH   2  13
BRANCH   1  23
ATOM     23  N   UNL     1      -0.609  -0.409   0.363  0.00  0.00    -0.313 N 
ATOM     24  H   UNL     1      -1.262   0.291   0.518  0.00  0.00    +0.149 HD
BRANCH  23  26
ATOM     25  C   UNL     1       0.956   1.459   0.160  0.00  0.00    +0.024 C 
ATOM     26  C   UNL     1       0.793  -0.061   0.118  0.00  0.00    +0.101 C 
ENDBRANCH  23  26
ENDBRANCH   1  23
TORSDOF 5
