REMARK  Name = ZINC00191449
REMARK  4 active torsions:
REMARK  status: ('A' for Active; 'I' for Inactive)
REMARK    1  A    between atoms: C_1  and  C_2
REMARK    2  A    between atoms: C_2  and  C_3
REMARK    3  A    between atoms: C_2  and  C_4
REMARK    4  A    between atoms: C_7  and  C_12
REMARK                            x       y       z     vdW  Elec       q    Type
REMARK                         _______ _______ _______ _____ _____    ______ ____
ROOT
ATOM      1  C   UNL     1       0.742  -0.511   1.242  0.00  0.00    +0.121 C 
ATOM      2  C   UNL     1       0.763  -2.042   1.233  0.00  0.00    +0.041 C 
ATOM      3  C   UNL     1       1.557  -2.540   2.445  0.00  0.00    +0.043 C 
ATOM      4  C   UNL     1       2.966  -1.939   2.401  0.00  0.00    +0.038 C 
ATOM      5  C   UNL     1       2.859  -0.412   2.364  0.00  0.00    +0.161 C 
ATOM      6  O   UNL     1       2.083  -0.017   1.231  0.00  0.00    -0.376 OA
ENDROOT
BRANCH   3   7
ATOM      7  C   UNL     1       1.648  -4.044   2.404  0.00  0.00    +0.054 A 
ATOM      8  C   UNL     1       2.615  -4.675   1.696  0.00  0.00    +0.072 A 
ATOM      9  S   UNL     1       2.210  -6.382   2.028  0.00  0.00    -0.061 S 
ATOM     10  C   UNL     1       0.875  -6.117   3.017  0.00  0.00    +0.156 A 
ATOM     11  N   UNL     1       0.791  -4.805   3.062  0.00  0.00    -0.230 NA
ATOM     12  N   UNL     1       0.063  -7.054   3.638  0.00  0.00    -0.338 N 
ATOM     13  H   UNL     1       0.240  -8.001   3.524  0.00  0.00    +0.144 HD
ATOM     14  H   UNL     1      -0.682  -6.763   4.186  0.00  0.00    +0.144 HD
ENDBRANCH   3   7
BRANCH   1  16
ATOM     15  C   UNL     1      -0.019   1.526   0.010  0.00  0.00    +0.010 C 
ATOM     16  C   UNL     1       0.002  -0.004   0.002  0.00  0.00    +0.012 C 
ATOM     17  C   UNL     1       0.718  -0.497  -1.257  0.00  0.00    +0.010 C 
ENDBRANCH   1  16
TORSDOF 2
