REMARK  Name = ZINC61700317
REMARK  8 active torsions:
REMARK  status: ('A' for Active; 'I' for Inactive)
REMARK    1  A    between atoms: C_1  and  C_2
REMARK    2  A    between atoms: C_2  and  N_3
REMARK    3  A    between atoms: N_3  and  C_4
REMARK    4  A    between atoms: C_4  and  C_6
REMARK    5  A    between atoms: C_4  and  C_7
REMARK    6  A    between atoms: C_10  and  S_14
REMARK    7  A    between atoms: S_14  and  C_15
REMARK    8  A    between atoms: C_19  and  N_21
REMARK                            x       y       z     vdW  Elec       q    Type
REMARK                         _______ _______ _______ _____ _____    ______ ____
ROOT
ATOM      1  C   UNL     1       0.956  -3.131   2.471  0.00  0.00    -0.061 A 
ATOM      2  C   UNL     1       2.037  -2.342   2.822  0.00  0.00    +0.003 A 
ATOM      3  C   UNL     1       2.728  -2.594   3.990  0.00  0.00    +0.016 A 
ATOM      4  C   UNL     1       2.336  -3.640   4.816  0.00  0.00    +0.030 A 
ATOM      5  C   UNL     1       1.249  -4.431   4.462  0.00  0.00    +0.032 A 
ATOM      6  C   UNL     1       0.560  -4.170   3.293  0.00  0.00    +0.018 A 
ATOM      7 BR   UNL     1       0.711  -5.857   5.580  0.00  0.00    -0.049 Br
ENDROOT
BRANCH   1   8
ATOM      8  C   UNL     1       0.205  -2.852   1.195  0.00  0.00    -0.044 C 
ATOM      9  C   UNL     1       0.970  -3.451   0.013  0.00  0.00    -0.009 C 
BRANCH   8  10
ATOM     10  N   UNL     1       0.075  -1.401   1.010  0.00  0.00    +0.383 N 
ATOM     11  H   UNL     1       0.990  -0.996   0.875  0.00  0.00    -0.085 HD
ATOM     12  H   UNL     1      -0.355  -0.995   1.827  0.00  0.00    -0.085 HD
BRANCH  10  14
ATOM     13  C   UNL     1      -0.894   0.381  -0.362  0.00  0.00    -0.017 C 
ATOM     14  C   UNL     1      -0.758  -1.131  -0.169  0.00  0.00    -0.085 C 
ENDBRANCH  10  14
ENDBRANCH   8  10
ENDBRANCH   1   8
BRANCH   4  15
ATOM     15  S   UNL     1       3.215  -3.965   6.308  0.00  0.00    -0.049 S 
BRANCH  15  16
ATOM     16  C   UNL     1       2.163  -3.329   7.570  0.00  0.00    +0.196 A 
ATOM     17  N   UNL     1       1.058  -2.685   7.224  0.00  0.00    -0.207 NA
ATOM     18  C   UNL     1       0.239  -2.190   8.150  0.00  0.00    +0.122 A 
ATOM     19  C   UNL     1       0.558  -2.357   9.495  0.00  0.00    +0.086 A 
ATOM     20  C   UNL     1       1.728  -3.039   9.819  0.00  0.00    +0.122 A 
ATOM     21  N   UNL     1       2.495  -3.511   8.839  0.00  0.00    -0.207 NA
ATOM     22  N   UNL     1      -0.915  -1.518   7.780  0.00  0.00    -0.343 N 
ATOM     23  H   UNL     1      -1.130  -1.405   6.841  0.00  0.00    +0.144 HD
ATOM     24  H   UNL     1      -1.507  -1.160   8.460  0.00  0.00    +0.144 HD
BRANCH  20  25
ATOM     25  N   UNL     1       2.085  -3.229  11.145  0.00  0.00    -0.343 N 
ATOM     26  H   UNL     1       1.519  -2.886  11.854  0.00  0.00    +0.144 HD
ATOM     27  H   UNL     1       2.901  -3.705  11.364  0.00  0.00    +0.144 HD
ENDBRANCH  20  25
ENDBRANCH  15  16
ENDBRANCH   4  15
TORSDOF 6
