REMARK  Name = ZINC50033295
REMARK  5 active torsions:
REMARK  status: ('A' for Active; 'I' for Inactive)
REMARK    1  A    between atoms: C_2  and  C_19
REMARK    2  A    between atoms: C_3  and  N_18
REMARK    3  A    between atoms: C_6  and  N_7
REMARK    4  A    between atoms: N_7  and  C_8
REMARK    5  A    between atoms: N_12  and  C_14
REMARK                            x       y       z     vdW  Elec       q    Type
REMARK                         _______ _______ _______ _____ _____    ______ ____
ROOT
ATOM      1  C   UNL     1      -0.078   1.253   0.014  0.00  0.00    +0.042 A 
ATOM      2  C   UNL     1       1.050   2.082  -0.024  0.00  0.00    +0.086 A 
ATOM      3  C   UNL     1       2.333   1.510  -0.043  0.00  0.00    +0.042 A 
ATOM      4  C   UNL     1       2.472   0.128  -0.025  0.00  0.00    +0.063 A 
ATOM      5  C   UNL     1       1.353  -0.681   0.012  0.00  0.00    +0.146 A 
ATOM      6  C   UNL     1       0.077  -0.118   0.032  0.00  0.00    +0.064 A 
ATOM      7  F   UNL     1       1.496  -2.024   0.029  0.00  0.00    -0.203 F 
ENDROOT
BRANCH   3   8
ATOM      8  N   UNL     1       3.459   2.323  -0.081  0.00  0.00    -0.357 N 
ATOM      9  H   UNL     1       3.365   3.286  -0.010  0.00  0.00    +0.142 HD
ATOM     10  H   UNL     1       4.340   1.928  -0.179  0.00  0.00    +0.142 HD
ENDBRANCH   3   8
BRANCH   2  11
ATOM     11  C   UNL     1       0.894   3.543  -0.044  0.00  0.00    +0.388 C 
ATOM     12  O   UNL     1      -0.222   4.037  -0.143  0.00  0.00    -0.241 OA
ATOM     13  O   UNL     1       1.878   4.265   0.040  0.00  0.00    -0.241 OA
ENDBRANCH   2  11
BRANCH   6  14
ATOM     14  N   UNL     1      -1.052  -0.949   0.070  0.00  0.00    -0.341 N 
ATOM     15  H   UNL     1      -0.945  -1.913   0.082  0.00  0.00    +0.146 HD
BRANCH  14  16
ATOM     16  C   UNL     1      -2.393  -0.360   0.091  0.00  0.00    +0.052 C 
ATOM     17  C   UNL     1      -2.895  -0.116  -1.351  0.00  0.00    +0.002 C 
ATOM     18  C   UNL     1      -3.766  -1.367  -1.631  0.00  0.00    -0.077 C 
ATOM     19  N   UNL     1      -4.427  -1.619  -0.326  0.00  0.00    +0.383 N 
ATOM     20  C   UNL     1      -3.401  -1.349   0.707  0.00  0.00    -0.056 C 
ATOM     21  H   UNL     1      -5.212  -0.997  -0.207  0.00  0.00    -0.081 HD
BRANCH  19  22
ATOM     22  C   UNL     1      -4.871  -3.018  -0.245  0.00  0.00    -0.069 C 
ATOM     23  C   UNL     1      -6.378  -3.280  -0.220  0.00  0.00    -0.017 C 
ATOM     24  C   UNL     1      -5.547  -3.470   1.051  0.00  0.00    -0.017 C 
ENDBRANCH  19  22
ENDBRANCH  14  16
ENDBRANCH   6  14
TORSDOF 5
