REMARK  Name = ZINC57286372
REMARK  10 active torsions:
REMARK  status: ('A' for Active; 'I' for Inactive)
REMARK    1  A    between atoms: C_1  and  C_2
REMARK    2  A    between atoms: C_2  and  N_3
REMARK    3  A    between atoms: N_3  and  C_4
REMARK    4  A    between atoms: N_3  and  C_24
REMARK    5  A    between atoms: C_4  and  C_5
REMARK    6  A    between atoms: C_9  and  C_12
REMARK    7  A    between atoms: N_20  and  C_21
REMARK    8  A    between atoms: C_21  and  C_22
REMARK    9  A    between atoms: C_24  and  C_25
REMARK   10  A    between atoms: N_27  and  C_28
REMARK                            x       y       z     vdW  Elec       q    Type
REMARK                         _______ _______ _______ _____ _____    ______ ____
ROOT
ATOM      1  C   UNL     1       1.991  -2.152  -0.227  0.00  0.00    +0.129 A 
ATOM      2  N   UNL     1       2.389  -1.115  -0.913  0.00  0.00    -0.225 NA
ATOM      3  C   UNL     1       3.186  -1.255  -1.969  0.00  0.00    +0.116 A 
ATOM      4  C   UNL     1       3.636  -2.515  -2.396  0.00  0.00    +0.080 A 
ATOM      5  C   UNL     1       4.502  -2.496  -3.569  0.00  0.00    +0.004 A 
ATOM      6  C   UNL     1       4.799  -1.304  -4.141  0.00  0.00    +0.056 A 
ATOM      7  S   UNL     1       3.922  -0.130  -3.126  0.00  0.00    -0.076 S 
ATOM      8  C   UNL     1       3.183  -3.631  -1.623  0.00  0.00    +0.264 A 
ATOM      9  O   UNL     1       3.521  -4.765  -1.915  0.00  0.00    -0.267 OA
ATOM     10  N   UNL     1       2.382  -3.408  -0.565  0.00  0.00    -0.281 N 
ENDROOT
BRANCH   5  11
ATOM     11  C   UNL     1       5.049  -3.757  -4.125  0.00  0.00    -0.017 A 
ATOM     12  C   UNL     1       5.676  -4.677  -3.286  0.00  0.00    +0.008 A 
ATOM     13  C   UNL     1       6.182  -5.850  -3.809  0.00  0.00    +0.001 A 
ATOM     14  C   UNL     1       6.069  -6.112  -5.162  0.00  0.00    +0.000 A 
ATOM     15  C   UNL     1       5.448  -5.203  -5.999  0.00  0.00    +0.001 A 
ATOM     16  C   UNL     1       4.933  -4.029  -5.487  0.00  0.00    +0.008 A 
ENDBRANCH   5  11
BRANCH   1  17
ATOM     17  C   UNL     1       1.089  -1.952   0.963  0.00  0.00    +0.159 C 
BRANCH  17  18
ATOM     18  N   UNL     1       0.806  -0.520   1.128  0.00  0.00    -0.287 NA
BRANCH  18  20
ATOM     19  C   UNL     1       0.088   1.522  -0.017  0.00  0.00    +0.020 C 
ATOM     20  C   UNL     1       0.017  -0.006   0.001  0.00  0.00    +0.082 C 
ENDBRANCH  18  20
BRANCH  18  21
ATOM     21  C   UNL     1       0.130  -0.261   2.406  0.00  0.00    +0.180 C 
BRANCH  21  22
ATOM     22  C   UNL     1       1.114  -0.420   3.537  0.00  0.00    +0.227 C 
ATOM     23  O   UNL     1       2.248  -0.784   3.307  0.00  0.00    -0.274 OA
ATOM     24  N   UNL     1       0.734  -0.157   4.803  0.00  0.00    -0.310 N 
ATOM     25  H   UNL     1      -0.173   0.135   4.986  0.00  0.00    +0.149 HD
BRANCH  24  26
ATOM     26  C   UNL     1       1.690  -0.312   5.902  0.00  0.00    +0.095 C 
ATOM     27  C   UNL     1       1.685  -1.768   6.394  0.00  0.00    +0.046 C 
ATOM     28  C   UNL     1       2.438  -1.873   7.742  0.00  0.00    +0.168 C 
ATOM     29  S   UNL     1       2.198  -0.200   8.469  0.00  0.00    -0.029 S 
ATOM     30  O   UNL     1       3.464   0.429   8.609  0.00  0.00    -0.174 OA
ATOM     31  O   UNL     1       1.341  -0.306   9.598  0.00  0.00    -0.174 OA
ATOM     32  C   UNL     1       1.277   0.603   7.090  0.00  0.00    +0.188 C 
ENDBRANCH  24  26
ENDBRANCH  21  22
ENDBRANCH  18  21
ENDBRANCH  17  18
ENDBRANCH   1  17
BRANCH  10  33
ATOM     33  C   UNL     1       1.918  -4.544   0.236  0.00  0.00    +0.245 C 
BRANCH  33  34
ATOM     34  C   UNL     1       0.651  -5.049  -0.318  0.00  0.00    +0.084 C 
ATOM     35  N   UNL     1      -0.327  -5.439  -0.745  0.00  0.00    -0.195 NA
ENDBRANCH  33  34
ENDBRANCH  10  33
TORSDOF 9
