REMARK  Name = ZINC14544780
REMARK  3 active torsions:
REMARK  status: ('A' for Active; 'I' for Inactive)
REMARK    1  A    between atoms: C_7  and  C_11
REMARK    2  A    between atoms: C_22  and  S_27
REMARK    3  A    between atoms: S_27  and  N_30
REMARK                            x       y       z     vdW  Elec       q    Type
REMARK                         _______ _______ _______ _____ _____    ______ ____
ROOT
ATOM      1  C   UNL     1       1.110   6.732  -0.029  0.00  0.00    +0.107 C 
ATOM      2  C   UNL     1       2.135   5.937  -0.819  0.00  0.00    +0.029 C 
ATOM      3  C   UNL     1       3.580   6.453  -0.847  0.00  0.00    +0.033 C 
ATOM      4  C   UNL     1       4.367   5.153  -1.024  0.00  0.00    -0.030 C 
ATOM      5  C   UNL     1       3.670   4.131  -0.543  0.00  0.00    -0.023 C 
ATOM      6  C   UNL     1       2.395   4.648   0.018  0.00  0.00    +0.049 C 
ATOM      7  C   UNL     1       1.154   3.844   0.007  0.00  0.00    -0.018 A 
ATOM      8  C   UNL     1       1.166   2.466   0.004  0.00  0.00    +0.034 A 
ATOM      9  C   UNL     1      -0.022   1.758   0.012  0.00  0.00    +0.106 A 
ATOM     10  C   UNL     1      -1.229   2.433   0.021  0.00  0.00    +0.030 A 
ATOM     11  C   UNL     1      -1.251   3.813   0.028  0.00  0.00    +0.025 A 
ATOM     12  C   UNL     1      -0.063   4.534   0.012  0.00  0.00    +0.031 A 
ATOM     13  N   UNL     1      -0.121   5.912  -0.038  0.00  0.00    -0.336 N 
ATOM     14  H   UNL     1      -0.986   6.352  -0.058  0.00  0.00    +0.147 HD
ENDROOT
BRANCH   1  21
ATOM     15  C   UNL     1       3.900   9.917   1.981  0.00  0.00    +0.001 A 
ATOM     16  C   UNL     1       4.064   9.709   3.344  0.00  0.00    +0.002 A 
ATOM     17  C   UNL     1       3.440   8.655   3.974  0.00  0.00    +0.026 A 
ATOM     18  C   UNL     1       2.638   7.788   3.239  0.00  0.00    +0.047 A 
ATOM     19  C   UNL     1       2.480   7.999   1.857  0.00  0.00    +0.005 A 
ATOM     20  C   UNL     1       3.116   9.078   1.241  0.00  0.00    +0.010 A 
ATOM     21  C   UNL     1       1.588   6.938   1.385  0.00  0.00    -0.002 A 
ATOM     22  C   UNL     1       1.282   6.180   2.450  0.00  0.00    +0.089 A 
ATOM     23  N   UNL     1       1.900   6.673   3.567  0.00  0.00    -0.360 N 
ATOM     24  H   UNL     1       1.828   6.293   4.456  0.00  0.00    +0.165 HD
ENDBRANCH   1  21
BRANCH   9  25
ATOM     25  S   UNL     1       0.002  -0.004   0.002  0.00  0.00    +0.061 S 
ATOM     26  O   UNL     1      -1.243  -0.424  -0.539  0.00  0.00    -0.153 OA
ATOM     27  O   UNL     1       1.248  -0.390  -0.563  0.00  0.00    -0.153 OA
BRANCH  25  28
ATOM     28  N   UNL     1       0.024  -0.502   1.581  0.00  0.00    -0.172 NA
ATOM     29  C   UNL     1       1.295  -0.719   2.290  0.00  0.00    +0.137 C 
ATOM     30  C   UNL     1       1.236   0.043   3.623  0.00  0.00    +0.177 C 
ATOM     31  O   UNL     1       0.048  -0.330   4.325  0.00  0.00    -0.377 OA
ATOM     32  C   UNL     1      -1.164   0.011   3.646  0.00  0.00    +0.177 C 
ATOM     33  C   UNL     1      -1.228  -0.747   2.316  0.00  0.00    +0.137 C 
ENDBRANCH  25  28
ENDBRANCH   9  25
TORSDOF 3
