REMARK  Name = ZINC49513819
REMARK  4 active torsions:
REMARK  status: ('A' for Active; 'I' for Inactive)
REMARK    1  A    between atoms: C_1  and  C_2
REMARK    2  A    between atoms: C_2  and  C_4
REMARK    3  A    between atoms: C_2  and  N_11
REMARK    4  A    between atoms: C_13  and  N_19
REMARK                            x       y       z     vdW  Elec       q    Type
REMARK                         _______ _______ _______ _____ _____    ______ ____
ROOT
ATOM      1  N   UNL     1       0.609  -0.970  -1.153  0.00  0.00    -0.321 N 
ATOM      2  C   UNL     1      -0.055  -0.859  -2.370  0.00  0.00    +0.151 A 
ATOM      3  C   UNL     1       0.661  -0.966  -3.558  0.00  0.00    +0.166 A 
ATOM      4  C   UNL     1      -0.011  -0.853  -4.761  0.00  0.00    +0.039 A 
ATOM      5  C   UNL     1      -1.381  -0.635  -4.738  0.00  0.00    +0.042 A 
ATOM      6  C   UNL     1      -2.030  -0.539  -3.521  0.00  0.00    +0.131 A 
ATOM      7  N   UNL     1      -1.363  -0.656  -2.387  0.00  0.00    -0.218 NA
ATOM      8 CL   UNL     1      -3.744  -0.266  -3.483  0.00  0.00    -0.062 Cl
ATOM      9  H   UNL     1       1.550  -1.202  -1.134  0.00  0.00    +0.148 HD
ENDROOT
BRANCH   3  10
ATOM     10  N   UNL     1       2.123  -1.198  -3.534  0.00  0.00    +0.060 N 
ATOM     11  O   UNL     1       2.804  -0.673  -2.684  0.00  0.00    -0.126 OA
ATOM     12  O   UNL     1       2.635  -1.913  -4.363  0.00  0.00    -0.126 OA
ENDBRANCH   3  10
BRANCH   1  14
ATOM     13  C   UNL     1      -0.127   0.760   0.411  0.00  0.00    +0.033 C 
ATOM     14  C   UNL     1      -0.115  -0.738   0.099  0.00  0.00    +0.100 C 
BRANCH  14  15
ATOM     15  C   UNL     1       0.570  -1.478   1.219  0.00  0.00    -0.009 A 
ATOM     16  C   UNL     1       1.916  -1.778   1.128  0.00  0.00    +0.007 A 
ATOM     17  C   UNL     1       2.544  -2.457   2.155  0.00  0.00    +0.000 A 
ATOM     18  C   UNL     1       1.827  -2.836   3.275  0.00  0.00    +0.001 A 
ATOM     19  C   UNL     1       0.481  -2.537   3.367  0.00  0.00    +0.020 A 
ATOM     20  C   UNL     1      -0.147  -1.852   2.341  0.00  0.00    +0.046 A 
ATOM     21 CL   UNL     1      -1.837  -1.470   2.459  0.00  0.00    -0.083 Cl
ENDBRANCH  14  15
ENDBRANCH   1  14
TORSDOF 3
