REMARK  Name = ZINC09685446
REMARK  6 active torsions:
REMARK  status: ('A' for Active; 'I' for Inactive)
REMARK    1  A    between atoms: C_1  and  C_2
REMARK    2  A    between atoms: C_7  and  S_8
REMARK    3  A    between atoms: S_8  and  N_11
REMARK    4  A    between atoms: N_14  and  C_17
REMARK    5  A    between atoms: C_30  and  C_32
REMARK    6  A    between atoms: C_30  and  C_33
REMARK                            x       y       z     vdW  Elec       q    Type
REMARK                         _______ _______ _______ _____ _____    ______ ____
ROOT
ATOM      1  C   UNL     1       3.912   4.988  -0.025  0.00  0.00    +0.046 C 
ATOM      2  C   UNL     1       2.902   3.871  -0.091  0.00  0.00    -0.023 A 
ATOM      3  C   UNL     1       1.565   4.144   0.093  0.00  0.00    +0.016 A 
ATOM      4  C   UNL     1       0.632   3.111   0.033  0.00  0.00    +0.011 A 
ATOM      5  C   UNL     1       1.060   1.794  -0.215  0.00  0.00    +0.049 A 
ATOM      6  C   UNL     1       2.415   1.540  -0.398  0.00  0.00    +0.055 A 
ATOM      7  C   UNL     1       3.325   2.573  -0.336  0.00  0.00    +0.110 A 
ATOM      8  N   UNL     1      -0.058   0.979  -0.220  0.00  0.00    -0.357 N 
ATOM      9  H   UNL     1      -0.042   0.021  -0.372  0.00  0.00    +0.166 HD
ATOM     10  C   UNL     1      -1.167   1.696   0.006  0.00  0.00    +0.028 A 
ATOM     11  C   UNL     1      -0.823   3.030   0.174  0.00  0.00    +0.046 A 
ATOM     12  C   UNL     1      -1.782   4.040   0.427  0.00  0.00    +0.166 C 
ATOM     13  O   UNL     1      -1.448   5.194   0.602  0.00  0.00    -0.292 OA
ATOM     14  C   UNL     1      -3.238   3.629   0.473  0.00  0.00    +0.086 C 
ATOM     15  C   UNL     1      -3.363   2.202   1.006  0.00  0.00    -0.023 C 
ATOM     16  C   UNL     1      -2.598   1.223   0.107  0.00  0.00    +0.060 C 
ATOM     17  C   UNL     1      -2.788   2.141   2.422  0.00  0.00    +0.011 C 
ATOM     18  C   UNL     1      -4.840   1.804   1.043  0.00  0.00    +0.011 C 
ENDROOT
BRANCH   7  19
ATOM     19  S   UNL     1       5.039   2.241  -0.569  0.00  0.00    +0.061 S 
ATOM     20  O   UNL     1       5.731   2.940   0.457  0.00  0.00    -0.153 OA
ATOM     21  O   UNL     1       5.161   0.837  -0.750  0.00  0.00    -0.153 OA
BRANCH  19  22
ATOM     22  N   UNL     1       5.483   2.943  -2.002  0.00  0.00    -0.174 NA
ATOM     23  C   UNL     1       5.287   2.241  -3.279  0.00  0.00    +0.128 C 
ATOM     24  C   UNL     1       4.545   3.185  -4.239  0.00  0.00    +0.122 C 
ATOM     25  N   UNL     1       5.279   4.454  -4.335  0.00  0.00    -0.327 N 
ATOM     26  C   UNL     1       5.322   5.144  -3.038  0.00  0.00    +0.122 C 
ATOM     27  C   UNL     1       6.090   4.283  -2.030  0.00  0.00    +0.128 C 
BRANCH  25  28
ATOM     28  C   UNL     1       4.731   5.276  -5.322  0.00  0.00    +0.030 A 
ATOM     29  C   UNL     1       4.309   6.561  -5.002  0.00  0.00    +0.023 A 
ATOM     30  C   UNL     1       3.772   7.373  -5.982  0.00  0.00    +0.002 A 
ATOM     31  C   UNL     1       3.644   6.905  -7.277  0.00  0.00    +0.000 A 
ATOM     32  C   UNL     1       4.059   5.625  -7.597  0.00  0.00    +0.002 A 
ATOM     33  C   UNL     1       4.601   4.810  -6.624  0.00  0.00    +0.023 A 
ENDBRANCH  25  28
ENDBRANCH  19  22
ENDBRANCH   7  19
TORSDOF 3
