REMARK  Name = ZINC48765177
REMARK  4 active torsions:
REMARK  status: ('A' for Active; 'I' for Inactive)
REMARK    1  A    between atoms: C_5  and  N_7
REMARK    2  A    between atoms: N_10  and  C_13
REMARK    3  A    between atoms: C_13  and  C_14
REMARK    4  A    between atoms: C_14  and  C_15
REMARK                            x       y       z     vdW  Elec       q    Type
REMARK                         _______ _______ _______ _____ _____    ______ ____
ROOT
ATOM      1  C   UNL     1      -0.017   1.373   0.010  0.00  0.00    +0.003 A 
ATOM      2  C   UNL     1       1.169   2.097   0.002  0.00  0.00    +0.014 A 
ATOM      3  C   UNL     1       2.383   1.433  -0.013  0.00  0.00    +0.051 A 
ATOM      4  C   UNL     1       2.412   0.022  -0.021  0.00  0.00    +0.070 A 
ATOM      5  C   UNL     1       1.217  -0.694  -0.013  0.00  0.00    +0.038 A 
ATOM      6  C   UNL     1       0.002  -0.004   0.002  0.00  0.00    +0.023 A 
ATOM      7  C   UNL     1       3.836  -0.353  -0.036  0.00  0.00    +0.256 C 
ATOM      8  O   UNL     1       4.270  -1.488  -0.047  0.00  0.00    -0.269 OA
ATOM      9  N   UNL     1       4.577   0.770  -0.037  0.00  0.00    -0.234 N 
ATOM     10  C   UNL     1       3.796   1.865  -0.024  0.00  0.00    +0.254 C 
ATOM     11  O   UNL     1       4.186   3.016  -0.021  0.00  0.00    -0.270 OA
ENDROOT
BRANCH   5  12
ATOM     12  N   UNL     1       1.233  -2.081  -0.021  0.00  0.00    -0.357 N 
ATOM     13  H   UNL     1       2.078  -2.556  -0.032  0.00  0.00    +0.142 HD
ATOM     14  H   UNL     1       0.398  -2.575  -0.015  0.00  0.00    +0.142 HD
ENDBRANCH   5  12
BRANCH   9  15
ATOM     15  C   UNL     1       6.042   0.797  -0.051  0.00  0.00    +0.121 C 
BRANCH  15  16
ATOM     16  C   UNL     1       6.538   0.814  -1.498  0.00  0.00    +0.054 C 
BRANCH  16  17
ATOM     17  C   UNL     1       8.045   0.841  -1.513  0.00  0.00    -0.046 A 
ATOM     18  C   UNL     1       8.714   2.051  -1.507  0.00  0.00    +0.005 A 
ATOM     19  C   UNL     1      10.096   2.077  -1.520  0.00  0.00    +0.020 A 
ATOM     20  C   UNL     1      10.809   0.892  -1.539  0.00  0.00    +0.041 A 
ATOM     21  C   UNL     1      10.139  -0.319  -1.544  0.00  0.00    +0.020 A 
ATOM     22  C   UNL     1       8.757  -0.343  -1.526  0.00  0.00    +0.005 A 
ATOM     23 CL   UNL     1      12.545   0.923  -1.556  0.00  0.00    -0.084 Cl
ENDBRANCH  16  17
ENDBRANCH  15  16
ENDBRANCH   9  15
TORSDOF 4
