REMARK  Name = ZINC04615230
REMARK  3 active torsions:
REMARK  status: ('A' for Active; 'I' for Inactive)
REMARK    1  A    between atoms: C_6  and  C_7
REMARK    2  A    between atoms: N_8  and  N_9
REMARK    3  A    between atoms: C_12  and  N_21
REMARK                            x       y       z     vdW  Elec       q    Type
REMARK                         _______ _______ _______ _____ _____    ______ ____
ROOT
ATOM      1  N   UNL     1      -4.837   0.935   0.029  0.00  0.00    -0.221 N 
ATOM      2  C   UNL     1      -6.045   1.617   0.038  0.00  0.00    +0.145 A 
ATOM      3  C   UNL     1      -7.249   0.918   0.034  0.00  0.00    +0.089 A 
ATOM      4  C   UNL     1      -8.436   1.645   0.050  0.00  0.00    +0.128 A 
ATOM      5  N   UNL     1      -8.381   2.975   0.057  0.00  0.00    -0.199 NA
ATOM      6  C   UNL     1      -7.217   3.606   0.055  0.00  0.00    +0.221 A 
ATOM      7  N   UNL     1      -6.068   2.948   0.046  0.00  0.00    -0.198 NA
ATOM      8  N   UNL     1      -7.201   4.990   0.063  0.00  0.00    -0.300 N 
ATOM      9  C   UNL     1      -7.827   5.523   1.300  0.00  0.00    +0.108 C 
ATOM     10  C   UNL     1      -7.265   6.963   1.391  0.00  0.00    +0.020 C 
ATOM     11  C   UNL     1      -5.810   6.798   0.894  0.00  0.00    +0.020 C 
ATOM     12  C   UNL     1      -5.814   5.504   0.060  0.00  0.00    +0.108 C 
ATOM     13  H   UNL     1      -4.828  -0.035   0.023  0.00  0.00    +0.176 HD
ENDROOT
BRANCH   4  14
ATOM     14  N   UNL     1      -9.659   0.992   0.051  0.00  0.00    -0.315 N 
ATOM     15  C   UNL     1      -9.823   0.172   1.279  0.00  0.00    +0.106 C 
ATOM     16  C   UNL     1     -11.356  -0.030   1.369  0.00  0.00    +0.020 C 
ATOM     17  C   UNL     1     -11.912   1.331   0.890  0.00  0.00    +0.020 C 
ATOM     18  C   UNL     1     -10.777   1.961   0.062  0.00  0.00    +0.106 C 
ENDBRANCH   4  14
BRANCH   1  20
ATOM     19  C   UNL     1      -2.501   1.010   0.019  0.00  0.00    +0.138 C 
ATOM     20  N   UNL     1      -3.631   1.648   0.028  0.00  0.00    -0.189 NA
BRANCH  19  26
ATOM     21  C   UNL     1      -0.013   1.076   0.008  0.00  0.00    +0.010 A 
ATOM     22  C   UNL     1       1.171   1.783   0.001  0.00  0.00    +0.016 A 
ATOM     23  C   UNL     1       1.154   3.168   0.008  0.00  0.00    +0.018 A 
ATOM     24  C   UNL     1      -0.050   3.851   0.024  0.00  0.00    +0.016 A 
ATOM     25  C   UNL     1      -1.241   3.156   0.032  0.00  0.00    +0.010 A 
ATOM     26  C   UNL     1      -1.231   1.759   0.017  0.00  0.00    -0.005 A 
ATOM     27 BR   UNL     1       2.783   4.129  -0.002  0.00  0.00    -0.050 Br
ENDBRANCH  19  26
ENDBRANCH   1  20
TORSDOF 3
