REMARK  Name = ZINC43867027
REMARK  8 active torsions:
REMARK  status: ('A' for Active; 'I' for Inactive)
REMARK    1  A    between atoms: C_1  and  C_2
REMARK    2  A    between atoms: C_9  and  O_20
REMARK    3  A    between atoms: C_12  and  C_14
REMARK    4  A    between atoms: C_23  and  O_40
REMARK    5  A    between atoms: C_24  and  C_31
REMARK    6  A    between atoms: C_27  and  O_30
REMARK    7  A    between atoms: N_32  and  N_33
REMARK    8  A    between atoms: N_33  and  C_34
REMARK                            x       y       z     vdW  Elec       q    Type
REMARK                         _______ _______ _______ _____ _____    ______ ____
ROOT
ATOM      1  C   UNL     1       0.458   1.625   0.046  0.00  0.00    +0.014 C 
ATOM      2  C   UNL     1       0.256   0.109   0.076  0.00  0.00    +0.004 C 
ATOM      3  C   UNL     1      -1.206  -0.188   0.321  0.00  0.00    +0.010 C 
ATOM      4  C   UNL     1      -1.441  -1.685   0.517  0.00  0.00    +0.005 C 
ATOM      5  C   UNL     1      -0.611  -2.154   1.718  0.00  0.00    +0.009 C 
ATOM      6  C   UNL     1       0.868  -1.955   1.398  0.00  0.00    +0.025 C 
ATOM      7  C   UNL     1       1.181  -0.497   1.147  0.00  0.00    +0.075 C 
ATOM      8  C   UNL     1       2.562  -0.458   0.427  0.00  0.00    +0.036 C 
ATOM      9  C   UNL     1       2.229  -0.845  -1.030  0.00  0.00    +0.011 C 
ATOM     10  C   UNL     1       0.746  -0.485  -1.251  0.00  0.00    +0.027 C 
ATOM     11  C   UNL     1       1.721  -2.466   2.562  0.00  0.00    +0.009 C 
ATOM     12  C   UNL     1       1.448  -3.955   2.784  0.00  0.00    +0.036 C 
ATOM     13  C   UNL     1       0.402  -4.439   1.777  0.00  0.00    +0.079 C 
ATOM     14  C   UNL     1      -0.903  -3.635   1.975  0.00  0.00    +0.039 C 
ATOM     15  C   UNL     1      -1.964  -4.121   0.985  0.00  0.00    +0.018 C 
ATOM     16  C   UNL     1      -2.258  -5.601   1.236  0.00  0.00    +0.032 C 
ATOM     17  C   UNL     1      -0.975  -6.413   1.044  0.00  0.00    +0.117 C 
ATOM     18  C   UNL     1       0.123  -5.925   2.012  0.00  0.00    +0.067 C 
ENDROOT
BRANCH  10  19
ATOM     19  C   UNL     1       0.617   0.533  -2.354  0.00  0.00    -0.022 C 
ATOM     20  C   UNL     1       1.602   1.245  -2.897  0.00  0.00    +0.094 C 
ATOM     21  C   UNL     1       1.046   2.116  -3.937  0.00  0.00    +0.332 C 
ATOM     22  O   UNL     1       1.690   2.889  -4.619  0.00  0.00    -0.246 OA
ATOM     23  O   UNL     1      -0.284   1.929  -4.024  0.00  0.00    -0.457 OA
ATOM     24  C   UNL     1      -0.655   0.937  -3.062  0.00  0.00    +0.264 C 
ENDBRANCH  10  19
BRANCH   7  25
ATOM     25  O   UNL     1       1.165   0.253   2.364  0.00  0.00    -0.388 OA
ATOM     26  H   UNL     1       1.738  -0.106   3.054  0.00  0.00    +0.210 HD
ENDBRANCH   7  25
BRANCH  17  27
ATOM     27  O   UNL     1      -0.495  -6.238  -0.290  0.00  0.00    -0.392 OA
ATOM     28  H   UNL     1      -1.118  -6.524  -0.973  0.00  0.00    +0.210 HD
ENDBRANCH  17  27
BRANCH  14  29
ATOM     29  C   UNL     1      -1.410  -3.811   3.383  0.00  0.00    +0.113 C 
ATOM     30  N   UNL     1      -2.572  -4.307   3.588  0.00  0.00    -0.194 NA
BRANCH  30  31
ATOM     31  N   UNL     1      -3.043  -4.471   4.898  0.00  0.00    -0.238 N 
ATOM     32  H   UNL     1      -2.489  -4.208   5.649  0.00  0.00    +0.174 HD
BRANCH  31  33
ATOM     33  C   UNL     1      -4.310  -5.012   5.121  0.00  0.00    +0.048 A 
ATOM     34  C   UNL     1      -5.104  -5.395   4.046  0.00  0.00    +0.025 A 
ATOM     35  C   UNL     1      -6.357  -5.930   4.271  0.00  0.00    +0.002 A 
ATOM     36  C   UNL     1      -6.822  -6.085   5.564  0.00  0.00    +0.000 A 
ATOM     37  C   UNL     1      -6.036  -5.705   6.636  0.00  0.00    +0.002 A 
ATOM     38  C   UNL     1      -4.779  -5.175   6.419  0.00  0.00    +0.025 A 
ENDBRANCH  31  33
ENDBRANCH  30  31
ENDBRANCH  14  29
BRANCH  13  39
ATOM     39  O   UNL     1       0.894  -4.250   0.449  0.00  0.00    -0.388 OA
ATOM     40  H   UNL     1       1.713  -4.729   0.261  0.00  0.00    +0.210 HD
ENDBRANCH  13  39
TORSDOF 7
