REMARK  Name = ZINC09370777
REMARK  8 active torsions:
REMARK  status: ('A' for Active; 'I' for Inactive)
REMARK    1  A    between atoms: C_1  and  C_2
REMARK    2  A    between atoms: C_8  and  C_24
REMARK    3  A    between atoms: C_10  and  C_11
REMARK    4  A    between atoms: C_11  and  C_12
REMARK    5  A    between atoms: C_27  and  C_30
REMARK    6  A    between atoms: C_30  and  C_31
REMARK    7  A    between atoms: C_30  and  C_32
REMARK    8  A    between atoms: C_30  and  C_33
REMARK                            x       y       z     vdW  Elec       q    Type
REMARK                         _______ _______ _______ _____ _____    ______ ____
ROOT
ATOM      1  C   UNL     1       0.340   1.492   0.260  0.00  0.00    +0.075 C 
ATOM      2  C   UNL     1       0.270  -0.012   0.196  0.00  0.00    +0.101 A 
ATOM      3  N   UNL     1       0.139  -0.810  -0.845  0.00  0.00    -0.145 NA
ATOM      4  N   UNL     1       0.097  -2.065  -0.728  0.00  0.00    -0.125 NA
ATOM      5  C   UNL     1       0.182  -2.661   0.454  0.00  0.00    +0.191 A 
ATOM      6  S   UNL     1       0.349  -1.225   1.511  0.00  0.00    -0.035 S 
ATOM      7  N   UNL     1       0.154  -4.010   0.779  0.00  0.00    -0.230 N 
ATOM      8  C   UNL     1       0.024  -5.124  -0.168  0.00  0.00    +0.152 C 
ATOM      9  C   UNL     1       0.045  -6.387   0.661  0.00  0.00    +0.077 C 
ATOM     10  C   UNL     1       0.176  -6.003   1.954  0.00  0.00    +0.250 C 
ATOM     11  O   UNL     1       0.236  -6.837   3.017  0.00  0.00    -0.282 OA
ATOM     12  C   UNL     1       0.248  -4.529   2.017  0.00  0.00    +0.293 C 
ATOM     13  O   UNL     1       0.370  -3.880   3.037  0.00  0.00    -0.266 OA
ENDROOT
BRANCH   8  14
ATOM     14  C   UNL     1      -1.280  -5.018  -0.917  0.00  0.00    -0.022 A 
ATOM     15  C   UNL     1      -2.442  -4.698  -0.239  0.00  0.00    +0.006 A 
ATOM     16  C   UNL     1      -3.637  -4.601  -0.926  0.00  0.00    +0.004 A 
ATOM     17  C   UNL     1      -3.671  -4.823  -2.290  0.00  0.00    -0.042 A 
ATOM     18  C   UNL     1      -2.509  -5.141  -2.968  0.00  0.00    +0.004 A 
ATOM     19  C   UNL     1      -1.312  -5.234  -2.281  0.00  0.00    +0.006 A 
BRANCH  17  20
ATOM     20  C   UNL     1      -4.975  -4.717  -3.039  0.00  0.00    -0.013 C 
ATOM     21  C   UNL     1      -5.542  -3.305  -2.880  0.00  0.00    +0.015 C 
ATOM     22  C   UNL     1      -4.736  -5.007  -4.522  0.00  0.00    +0.015 C 
ATOM     23  C   UNL     1      -5.970  -5.733  -2.474  0.00  0.00    +0.015 C 
ENDBRANCH  17  20
ENDBRANCH   8  14
BRANCH   9  24
ATOM     24  C   UNL     1      -0.055  -7.761   0.164  0.00  0.00    +0.195 C 
ATOM     25  O   UNL     1      -1.024  -8.441   0.446  0.00  0.00    -0.287 OA
BRANCH  24  26
ATOM     26  C   UNL     1       1.020  -8.322  -0.681  0.00  0.00    +0.022 A 
ATOM     27  C   UNL     1       2.190  -7.591  -0.904  0.00  0.00    +0.013 A 
ATOM     28  C   UNL     1       3.189  -8.120  -1.693  0.00  0.00    +0.021 A 
ATOM     29  C   UNL     1       3.036  -9.373  -2.264  0.00  0.00    +0.041 A 
ATOM     30  C   UNL     1       1.878 -10.102  -2.047  0.00  0.00    +0.021 A 
ATOM     31  C   UNL     1       0.874  -9.587  -1.255  0.00  0.00    +0.013 A 
ATOM     32 CL   UNL     1       4.299 -10.031  -3.257  0.00  0.00    -0.084 Cl
ENDBRANCH  24  26
ENDBRANCH   9  24
TORSDOF 4
