REMARK  Name = ZINC20443114
REMARK  2 active torsions:
REMARK  status: ('A' for Active; 'I' for Inactive)
REMARK    1  A    between atoms: C_1  and  C_2
REMARK    2  A    between atoms: C_3  and  C_7
REMARK                            x       y       z     vdW  Elec       q    Type
REMARK                         _______ _______ _______ _____ _____    ______ ____
ROOT
ATOM      1  C   UNL     1      -1.286   2.118   0.020  0.00  0.00    +0.069 C 
ATOM      2  C   UNL     1      -0.016   1.306   0.009  0.00  0.00    +0.079 A 
ATOM      3  C   UNL     1       1.257   1.876   0.000  0.00  0.00    +0.094 A 
ATOM      4  S   UNL     1       2.258   0.399  -0.017  0.00  0.00    +0.039 S 
ATOM      5  N   UNL     1       1.097  -0.673  -0.012  0.00  0.00    -0.110 NA
ATOM      6  N   UNL     1       0.002  -0.004   0.002  0.00  0.00    -0.146 NA
ENDROOT
BRANCH   3   7
ATOM      7  C   UNL     1       1.658   3.283   0.004  0.00  0.00    +0.269 C 
ATOM      8  O   UNL     1       0.814   4.154   0.016  0.00  0.00    -0.295 OA
ENDBRANCH   3   7
TORSDOF 1
