REMARK  Name = ZINC53493851
REMARK  5 active torsions:
REMARK  status: ('A' for Active; 'I' for Inactive)
REMARK    1  A    between atoms: C_3  and  C_6
REMARK    2  A    between atoms: C_6  and  C_8
REMARK    3  A    between atoms: C_6  and  N_21
REMARK    4  A    between atoms: C_8  and  N_9
REMARK    5  A    between atoms: C_15  and  C_18
REMARK                            x       y       z     vdW  Elec       q    Type
REMARK                         _______ _______ _______ _____ _____    ______ ____
ROOT
ATOM      1  N   UNL     1       5.727   1.922  -1.618  0.00  0.00    -0.297 N 
ATOM      2  C   UNL     1       6.367   1.769  -2.794  0.00  0.00    +0.302 C 
ATOM      3  O   UNL     1       5.747   1.435  -3.785  0.00  0.00    -0.253 OA
ATOM      4  N   UNL     1       7.695   1.986  -2.872  0.00  0.00    -0.286 N 
ATOM      5  C   UNL     1       8.440   2.494  -1.711  0.00  0.00    +0.110 C 
ATOM      6  C   UNL     1       9.217   3.744  -2.132  0.00  0.00    +0.032 C 
ATOM      7  C   UNL     1      10.092   3.413  -3.344  0.00  0.00    +0.078 C 
ATOM      8  C   UNL     1       9.204   2.980  -4.513  0.00  0.00    +0.032 C 
ATOM      9  C   UNL     1       8.427   1.715  -4.116  0.00  0.00    +0.110 C 
ATOM     10  H   UNL     1       6.207   2.257  -0.844  0.00  0.00    +0.150 HD
ENDROOT
BRANCH   7  11
ATOM     11  C   UNL     1      10.884   4.632  -3.740  0.00  0.00    +0.214 C 
ATOM     12  O   UNL     1      10.761   5.664  -3.115  0.00  0.00    -0.276 OA
ATOM     13  N   UNL     1      11.728   4.575  -4.789  0.00  0.00    -0.329 N 
ATOM     14  H   UNL     1      11.826   3.750  -5.289  0.00  0.00    +0.145 HD
ATOM     15  H   UNL     1      12.238   5.360  -5.044  0.00  0.00    +0.145 HD
ENDBRANCH   7  11
BRANCH   1  16
ATOM     16  C   UNL     1       4.307   1.581  -1.508  0.00  0.00    +0.130 C 
BRANCH  16  17
ATOM     17  C   UNL     1       3.828   1.845  -0.078  0.00  0.00    +0.111 C 
BRANCH  17  18
ATOM     18  N   UNL     1       4.682   1.112   0.867  0.00  0.00    -0.289 NA
ATOM     19  C   UNL     1       4.796  -0.303   0.485  0.00  0.00    +0.113 C 
ATOM     20  C   UNL     1       5.739  -1.014   1.459  0.00  0.00    +0.175 C 
ATOM     21  O   UNL     1       5.250  -0.851   2.793  0.00  0.00    -0.377 OA
ATOM     22  C   UNL     1       5.127   0.515   3.198  0.00  0.00    +0.175 C 
ATOM     23  C   UNL     1       4.177   1.242   2.242  0.00  0.00    +0.113 C 
ENDBRANCH  17  18
BRANCH  17  26
ATOM     24  C   UNL     1       0.058   1.470   0.314  0.00  0.00    +0.008 A 
ATOM     25  C   UNL     1       1.272   2.119   0.192  0.00  0.00    +0.013 A 
ATOM     26  C   UNL     1       2.402   1.380   0.068  0.00  0.00    +0.008 A 
ATOM     27  S   UNL     1       1.763  -0.286   0.122  0.00  0.00    -0.100 S 
ATOM     28  C   UNL     1       0.033   0.115   0.307  0.00  0.00    +0.045 A 
ENDBRANCH  17  26
ENDBRANCH  16  17
ENDBRANCH   1  16
TORSDOF 5
