REMARK  Name = ZINC40109083
REMARK  10 active torsions:
REMARK  status: ('A' for Active; 'I' for Inactive)
REMARK    1  A    between atoms: C_1  and  C_2
REMARK    2  A    between atoms: C_5  and  C_8
REMARK    3  A    between atoms: C_8  and  O_9
REMARK    4  A    between atoms: O_9  and  C_10
REMARK    5  A    between atoms: C_14  and  C_16
REMARK    6  A    between atoms: C_16  and  C_18
REMARK    7  A    between atoms: N_22  and  C_32
REMARK    8  A    between atoms: C_23  and  C_25
REMARK    9  A    between atoms: C_32  and  C_33
REMARK   10  A    between atoms: C_33  and  O_34
REMARK                            x       y       z     vdW  Elec       q    Type
REMARK                         _______ _______ _______ _____ _____    ______ ____
ROOT
ATOM      1  C   UNL     1       4.818 -10.206   0.217  0.00  0.00    +0.076 C 
ATOM      2  C   UNL     1       5.698 -10.952  -0.490  0.00  0.00    +0.249 C 
ATOM      3  C   UNL     1       5.451 -12.383  -0.216  0.00  0.00    +0.288 C 
ATOM      4  O   UNL     1       6.077 -13.305  -0.701  0.00  0.00    -0.266 OA
ATOM      5  N   UNL     1       4.430 -12.515   0.650  0.00  0.00    -0.281 N 
ATOM      6  C   UNL     1       3.955 -11.171   0.996  0.00  0.00    +0.145 C 
ATOM      7  O   UNL     1       6.652 -10.466  -1.317  0.00  0.00    -0.282 OA
ENDROOT
BRANCH   6   8
ATOM      8  C   UNL     1       4.112 -10.928   2.475  0.00  0.00    -0.021 A 
ATOM      9  C   UNL     1       5.362 -11.007   3.060  0.00  0.00    +0.006 A 
ATOM     10  C   UNL     1       5.506 -10.784   4.417  0.00  0.00    +0.001 A 
ATOM     11  C   UNL     1       4.400 -10.482   5.189  0.00  0.00    +0.015 A 
ATOM     12  C   UNL     1       3.149 -10.402   4.604  0.00  0.00    +0.018 A 
ATOM     13  C   UNL     1       3.006 -10.620   3.245  0.00  0.00    +0.021 A 
ATOM     14 BR   UNL     1       1.635  -9.989   5.660  0.00  0.00    -0.050 Br
ENDBRANCH   6   8
BRANCH   1  15
ATOM     15  C   UNL     1       4.725  -8.743   0.230  0.00  0.00    +0.195 C 
ATOM     16  O   UNL     1       5.638  -8.079   0.683  0.00  0.00    -0.287 OA
BRANCH  15  21
ATOM     17  C   UNL     1       2.257  -6.069  -0.720  0.00  0.00    +0.122 A 
ATOM     18  C   UNL     1       1.260  -6.827  -1.321  0.00  0.00    +0.046 A 
ATOM     19  C   UNL     1       1.391  -8.200  -1.416  0.00  0.00    +0.004 A 
ATOM     20  C   UNL     1       2.513  -8.828  -0.914  0.00  0.00    +0.012 A 
ATOM     21  C   UNL     1       3.521  -8.074  -0.309  0.00  0.00    +0.026 A 
ATOM     22  C   UNL     1       3.390  -6.687  -0.219  0.00  0.00    +0.057 A 
BRANCH  17  23
ATOM     23  O   UNL     1       2.123  -4.720  -0.629  0.00  0.00    -0.487 OA
BRANCH  23  24
ATOM     24  C   UNL     1       0.929  -4.149  -1.167  0.00  0.00    +0.264 C 
BRANCH  24  29
ATOM     25  C   UNL     1       1.033   1.583  -0.439  0.00  0.00    +0.044 C 
ATOM     26  C   UNL     1       1.006   0.088  -0.628  0.00  0.00    -0.050 A 
ATOM     27  C   UNL     1       1.532  -0.472  -1.777  0.00  0.00    +0.004 A 
ATOM     28  C   UNL     1       1.508  -1.844  -1.951  0.00  0.00    +0.007 A 
ATOM     29  C   UNL     1       0.957  -2.654  -0.976  0.00  0.00    -0.010 A 
ATOM     30  C   UNL     1       0.431  -2.094   0.173  0.00  0.00    +0.007 A 
ATOM     31  C   UNL     1       0.460  -0.723   0.349  0.00  0.00    +0.004 A 
ENDBRANCH  24  29
ENDBRANCH  23  24
ENDBRANCH  17  23
ENDBRANCH  15  21
ENDBRANCH   1  15
BRANCH   5  32
ATOM     32  C   UNL     1       3.890 -13.778   1.161  0.00  0.00    +0.137 C 
BRANCH  32  33
ATOM     33  C   UNL     1       4.751 -14.265   2.329  0.00  0.00    +0.175 C 
BRANCH  33  34
ATOM     34  O   UNL     1       4.563 -13.401   3.451  0.00  0.00    -0.393 OA
ATOM     35  H   UNL     1       5.080 -13.650   4.230  0.00  0.00    +0.209 HD
ENDBRANCH  33  34
ENDBRANCH  32  33
ENDBRANCH   5  32
TORSDOF 9
