REMARK  Name = ZINC20804755
REMARK  8 active torsions:
REMARK  status: ('A' for Active; 'I' for Inactive)
REMARK    1  A    between atoms: C_1  and  C_2
REMARK    2  A    between atoms: C_5  and  N_9
REMARK    3  A    between atoms: C_6  and  C_8
REMARK    4  A    between atoms: C_10  and  C_12
REMARK    5  A    between atoms: C_13  and  C_30
REMARK    6  A    between atoms: C_17  and  C_29
REMARK    7  A    between atoms: C_20  and  C_22
REMARK    8  A    between atoms: C_25  and  O_28
REMARK                            x       y       z     vdW  Elec       q    Type
REMARK                         _______ _______ _______ _____ _____    ______ ____
ROOT
ATOM      1  C   UNL     1      -2.442   3.627   7.058  0.00  0.00    +0.060 C 
ATOM      2  C   UNL     1      -1.627   3.862   8.096  0.00  0.00    +0.018 C 
ATOM      3  N   UNL     1      -2.091   4.331   9.300  0.00  0.00    -0.287 N 
ATOM      4  C   UNL     1      -3.399   4.797   9.344  0.00  0.00    +0.219 A 
ATOM      5  N   UNL     1      -4.018   5.482  10.266  0.00  0.00    -0.198 NA
ATOM      6  C   UNL     1      -5.275   5.720   9.878  0.00  0.00    +0.150 A 
ATOM      7  N   UNL     1      -5.471   5.183   8.699  0.00  0.00    -0.153 NA
ATOM      8  N   UNL     1      -4.271   4.575   8.330  0.00  0.00    -0.221 N 
ATOM      9  C   UNL     1      -3.933   3.830   7.121  0.00  0.00    +0.177 C 
ATOM     10  C   UNL     1      -6.304   6.484  10.671  0.00  0.00    +0.090 C 
ATOM     11  C   UNL     1      -0.150   3.608   7.934  0.00  0.00    +0.061 C 
ATOM     12  H   UNL     1      -1.434   4.328  10.182  0.00  0.00    +0.155 HD
ENDROOT
BRANCH   9  13
ATOM     13  C   UNL     1      -4.622   2.490   7.148  0.00  0.00    -0.018 A 
ATOM     14  C   UNL     1      -4.357   1.598   8.171  0.00  0.00    +0.009 A 
ATOM     15  C   UNL     1      -4.992   0.371   8.201  0.00  0.00    +0.046 A 
ATOM     16  C   UNL     1      -5.886   0.030   7.197  0.00  0.00    +0.117 A 
ATOM     17  C   UNL     1      -6.146   0.924   6.168  0.00  0.00    +0.046 A 
ATOM     18  C   UNL     1      -5.513   2.152   6.146  0.00  0.00    +0.009 A 
BRANCH  16  19
ATOM     19  O   UNL     1      -6.506  -1.179   7.220  0.00  0.00    -0.507 OA
ATOM     20  H   UNL     1      -7.215  -1.449   6.424  0.00  0.00    +0.292 HD
ENDBRANCH  16  19
ENDBRANCH   9  13
BRANCH   1  22
ATOM     21  N   UNL     1      -1.647   1.844   5.674  0.00  0.00    -0.281 N 
ATOM     22  C   UNL     1      -1.876   3.161   5.848  0.00  0.00    +0.248 C 
ATOM     23  O   UNL     1      -1.596   3.949   4.963  0.00  0.00    -0.270 OA
ATOM     24  H   UNL     1      -1.984   1.123   6.433  0.00  0.00    +0.155 HD
BRANCH  21  29
ATOM     25  C   UNL     1       1.052   0.024   1.030  0.00  0.00    +0.044 C 
ATOM     26  C   UNL     1       0.335   0.507   2.264  0.00  0.00    -0.050 A 
ATOM     27  C   UNL     1       0.534   1.799   2.715  0.00  0.00    +0.005 A 
ATOM     28  C   UNL     1      -0.122   2.246   3.846  0.00  0.00    +0.024 A 
ATOM     29  C   UNL     1      -0.981   1.395   4.529  0.00  0.00    +0.037 A 
ATOM     30  C   UNL     1      -1.178   0.098   4.074  0.00  0.00    -0.029 A 
ATOM     31  C   UNL     1      -0.523  -0.340   2.939  0.00  0.00    +0.008 A 
ATOM     32  C   UNL     1      -2.110  -0.828   4.812  0.00  0.00    +0.045 C 
ENDBRANCH  21  29
ENDBRANCH   1  22
TORSDOF 4
