REMARK  Name = ZINC34677379
REMARK  16 active torsions:
REMARK  status: ('A' for Active; 'I' for Inactive)
REMARK    1  A    between atoms: C_1  and  C_2
REMARK    2  A    between atoms: C_2  and  C_3
REMARK    3  A    between atoms: C_3  and  C_5
REMARK    4  A    between atoms: C_3  and  C_6
REMARK    5  A    between atoms: C_6  and  N_7
REMARK    6  A    between atoms: C_8  and  C_10
REMARK    7  A    between atoms: C_13  and  C_15
REMARK    8  A    between atoms: C_15  and  N_16
REMARK    9  A    between atoms: N_19  and  C_22
REMARK   10  A    between atoms: C_22  and  C_23
REMARK   11  A    between atoms: C_23  and  C_25
REMARK   12  A    between atoms: C_23  and  O_30
REMARK   13  A    between atoms: C_25  and  O_26
REMARK   14  A    between atoms: O_26  and  C_27
REMARK   15  A    between atoms: C_27  and  C_28
REMARK   16  A    between atoms: C_27  and  C_29
REMARK                            x       y       z     vdW  Elec       q    Type
REMARK                         _______ _______ _______ _____ _____    ______ ____
ROOT
ATOM      1  N   UNL     1       5.997  -3.510  -6.346  0.00  0.00    +0.387 N 
ATOM      2  C   UNL     1       6.055  -2.389  -5.399  0.00  0.00    -0.063 C 
ATOM      3  C   UNL     1       7.512  -2.119  -5.017  0.00  0.00    +0.066 C 
ATOM      4  N   UNL     1       8.283  -1.801  -6.227  0.00  0.00    -0.303 NA
ATOM      5  C   UNL     1       8.213  -2.905  -7.195  0.00  0.00    +0.066 C 
ATOM      6  C   UNL     1       6.751  -3.168  -7.560  0.00  0.00    -0.063 C 
ATOM      7  H   UNL     1       6.401  -4.331  -5.920  0.00  0.00    -0.081 HD
ENDROOT
BRANCH   1   8
ATOM      8  C   UNL     1       4.597  -3.781  -6.699  0.00  0.00    +0.019 C 
BRANCH   8  12
ATOM      9  C   UNL     1       2.679  -4.262  -3.664  0.00  0.00    +0.163 A 
ATOM     10  C   UNL     1       3.001  -5.551  -3.957  0.00  0.00    +0.230 A 
ATOM     11  O   UNL     1       3.729  -5.527  -5.085  0.00  0.00    -0.449 OA
ATOM     12  C   UNL     1       3.852  -4.250  -5.476  0.00  0.00    +0.179 A 
ATOM     13  N   UNL     1       3.224  -3.482  -4.637  0.00  0.00    -0.210 NA
BRANCH   9  15
ATOM     14  N   UNL     1       1.639  -2.482  -2.350  0.00  0.00    -0.310 N 
ATOM     15  C   UNL     1       1.885  -3.797  -2.512  0.00  0.00    +0.266 C 
ATOM     16  O   UNL     1       1.453  -4.601  -1.708  0.00  0.00    -0.268 OA
ATOM     17  H   UNL     1       1.984  -1.842  -2.991  0.00  0.00    +0.149 HD
BRANCH  14  18
ATOM     18  C   UNL     1       0.849  -2.021  -1.205  0.00  0.00    +0.107 C 
BRANCH  18  19
ATOM     19  C   UNL     1       0.718  -0.497  -1.257  0.00  0.00    +0.003 C 
ATOM     20  C   UNL     1      -0.089  -0.097  -2.493  0.00  0.00    +0.009 C 
BRANCH  19  22
ATOM     21  C   UNL     1      -0.019   1.526   0.010  0.00  0.00    +0.004 C 
ATOM     22  C   UNL     1       0.002  -0.004   0.002  0.00  0.00    +0.001 C 
ENDBRANCH  19  22
ENDBRANCH  18  19
ENDBRANCH  14  18
ENDBRANCH   9  15
ENDBRANCH   8  12
ENDBRANCH   1   8
BRANCH   4  23
ATOM     23  C   UNL     1       9.677  -1.480  -5.894  0.00  0.00    +0.117 C 
BRANCH  23  24
ATOM     24  C   UNL     1      10.380  -0.917  -7.131  0.00  0.00    +0.154 C 
BRANCH  24  25
ATOM     25  O   UNL     1       9.781   0.329  -7.494  0.00  0.00    -0.388 OA
ATOM     26  H   UNL     1       9.831   1.005  -6.804  0.00  0.00    +0.210 HD
ENDBRANCH  24  25
BRANCH  24  27
ATOM     27  C   UNL     1      11.862  -0.699  -6.820  0.00  0.00    +0.192 C 
BRANCH  27  28
ATOM     28  O   UNL     1      12.541  -0.284  -8.007  0.00  0.00    -0.375 OA
BRANCH  28  29
ATOM     29  C   UNL     1      13.940  -0.052  -7.825  0.00  0.00    +0.112 C 
ATOM     30  C   UNL     1      14.710  -1.347  -8.087  0.00  0.00    +0.037 C 
ATOM     31  C   UNL     1      14.409   1.027  -8.803  0.00  0.00    +0.037 C 
ENDBRANCH  28  29
ENDBRANCH  27  28
ENDBRANCH  24  27
ENDBRANCH  23  24
ENDBRANCH   4  23
TORSDOF 12
