REMARK  Name = ZINC40824675
REMARK  6 active torsions:
REMARK  status: ('A' for Active; 'I' for Inactive)
REMARK    1  A    between atoms: C_1  and  C_2
REMARK    2  A    between atoms: C_6  and  C_7
REMARK    3  A    between atoms: N_9  and  C_10
REMARK    4  A    between atoms: N_24  and  N_25
REMARK    5  A    between atoms: N_25  and  C_26
REMARK    6  A    between atoms: C_26  and  N_28
REMARK                            x       y       z     vdW  Elec       q    Type
REMARK                         _______ _______ _______ _____ _____    ______ ____
ROOT
ATOM      1  C   UNL     1      -0.007   1.502   0.010  0.00  0.00    +0.048 C 
ATOM      2  C   UNL     1       0.020  -0.004   0.002  0.00  0.00    +0.009 A 
ATOM      3  C   UNL     1       0.038  -0.839  -1.123  0.00  0.00    +0.042 A 
ATOM      4  C   UNL     1       0.059  -2.138  -0.673  0.00  0.00    +0.115 A 
ATOM      5  O   UNL     1       0.057  -2.112   0.658  0.00  0.00    -0.454 OA
ATOM      6  C   UNL     1       0.038  -0.831   1.091  0.00  0.00    +0.193 A 
ATOM      7  C   UNL     1       0.077  -3.326  -1.600  0.00  0.00    +0.075 C 
ATOM      8  C   UNL     1      -0.440  -2.905  -2.978  0.00  0.00    +0.014 C 
ATOM      9  C   UNL     1       0.329  -1.684  -3.493  0.00  0.00    +0.058 C 
ATOM     10  C   UNL     1       0.039  -0.512  -2.566  0.00  0.00    +0.070 C 
ATOM     11  N   UNL     1      -0.192   0.685  -3.010  0.00  0.00    -0.185 NA
ENDROOT
BRANCH   6  12
ATOM     12  C   UNL     1       0.035  -0.400   2.493  0.00  0.00    +0.284 C 
ATOM     13  O   UNL     1       0.014   0.786   2.765  0.00  0.00    -0.266 OA
ATOM     14  N   UNL     1       0.055  -1.318   3.480  0.00  0.00    -0.277 N 
ATOM     15  H   UNL     1      -0.010  -2.262   3.266  0.00  0.00    +0.155 HD
BRANCH  14  16
ATOM     16  C   UNL     1       0.168  -0.910   4.810  0.00  0.00    +0.060 A 
ATOM     17  C   UNL     1       0.755   0.298   5.118  0.00  0.00    +0.025 A 
ATOM     18  C   UNL     1       0.874   0.716   6.440  0.00  0.00    +0.003 A 
ATOM     19  C   UNL     1       0.414  -0.055   7.464  0.00  0.00    +0.010 A 
ATOM     20  C   UNL     1      -0.191  -1.293   7.191  0.00  0.00    +0.002 A 
ATOM     21  C   UNL     1      -0.324  -1.729   5.850  0.00  0.00    +0.092 A 
ATOM     22  N   UNL     1      -0.903  -2.903   5.586  0.00  0.00    -0.253 NA
ATOM     23  C   UNL     1      -1.362  -3.668   6.547  0.00  0.00    +0.111 A 
ATOM     24  C   UNL     1      -1.269  -3.297   7.887  0.00  0.00    +0.020 A 
ATOM     25  C   UNL     1      -0.677  -2.114   8.226  0.00  0.00    +0.011 A 
ENDBRANCH  14  16
ENDBRANCH   6  12
BRANCH  11  26
ATOM     26  N   UNL     1      -0.178   0.936  -4.388  0.00  0.00    -0.218 N 
ATOM     27  H   UNL     1       0.003   0.215  -5.011  0.00  0.00    +0.176 HD
BRANCH  26  28
ATOM     28  C   UNL     1      -0.418   2.180  -4.848  0.00  0.00    +0.147 C 
ATOM     29  S   UNL     1      -0.401   2.488  -6.532  0.00  0.00    -0.017 S 
BRANCH  28  30
ATOM     30  N   UNL     1      -0.670   3.182  -3.982  0.00  0.00    -0.339 N 
ATOM     31  H   UNL     1      -0.679   3.008  -3.028  0.00  0.00    +0.144 HD
ATOM     32  H   UNL     1      -0.842   4.078  -4.314  0.00  0.00    +0.144 HD
ENDBRANCH  28  30
ENDBRANCH  26  28
ENDBRANCH  11  26
TORSDOF 5
