REMARK  Name = ZINC23362811
REMARK  3 active torsions:
REMARK  status: ('A' for Active; 'I' for Inactive)
REMARK    1  A    between atoms: C_8  and  C_13
REMARK    2  A    between atoms: C_13  and  C_14
REMARK    3  A    between atoms: C_14  and  C_15
REMARK                            x       y       z     vdW  Elec       q    Type
REMARK                         _______ _______ _______ _____ _____    ______ ____
ROOT
ATOM      1  C   UNL     1       1.909   1.135   2.270  0.00  0.00    +0.097 C 
ENDROOT
BRANCH   1   2
ATOM      2  C   UNL     1       2.260   1.543   3.678  0.00  0.00    +0.220 C 
ATOM      3  O   UNL     1       2.291   2.717   3.980  0.00  0.00    -0.275 OA
ATOM      4  N   UNL     1       2.539   0.602   4.602  0.00  0.00    -0.261 N 
ATOM      5  C   UNL     1       2.502  -0.828   4.263  0.00  0.00    +0.209 C 
ATOM      6  C   UNL     1       1.845  -1.585   5.384  0.00  0.00    +0.235 C 
ATOM      7  O   UNL     1       1.245  -2.611   5.142  0.00  0.00    -0.274 OA
ATOM      8  N   UNL     1       1.912  -1.137   6.652  0.00  0.00    -0.283 N 
ATOM      9  C   UNL     1       2.554   0.069   6.951  0.00  0.00    +0.055 A 
ATOM     10  C   UNL     1       2.868   0.957   5.920  0.00  0.00    +0.058 A 
ATOM     11  C   UNL     1       3.492   2.158   6.202  0.00  0.00    +0.025 A 
ATOM     12  C   UNL     1       3.807   2.477   7.511  0.00  0.00    +0.002 A 
ATOM     13  C   UNL     1       3.501   1.599   8.534  0.00  0.00    +0.002 A 
ATOM     14  C   UNL     1       2.876   0.396   8.258  0.00  0.00    +0.025 A 
ATOM     15  H   UNL     1       1.458  -1.721   7.466  0.00  0.00    +0.155 HD
ENDBRANCH   1   2
BRANCH   1  16
ATOM     16  C   UNL     1       1.640   2.385   1.430  0.00  0.00    +0.022 C 
BRANCH  16  24
ATOM     17  C   UNL     1      -1.322   6.012  -0.250  0.00  0.00    +0.000 A 
ATOM     18  C   UNL     1      -2.445   5.310   0.148  0.00  0.00    +0.002 A 
ATOM     19  C   UNL     1      -2.408   3.932   0.228  0.00  0.00    +0.023 A 
ATOM     20  C   UNL     1      -1.240   3.250  -0.091  0.00  0.00    +0.037 A 
ATOM     21  C   UNL     1      -0.119   3.957  -0.501  0.00  0.00    -0.025 A 
ATOM     22  C   UNL     1      -0.161   5.336  -0.575  0.00  0.00    +0.005 A 
ATOM     23  C   UNL     1       1.145   3.222  -0.869  0.00  0.00    +0.049 C 
ATOM     24  C   UNL     1       1.284   1.972   0.000  0.00  0.00    +0.080 C 
ATOM     25  C   UNL     1      -0.014   1.209   0.009  0.00  0.00    +0.221 C 
ATOM     26  O   UNL     1       0.002  -0.004   0.002  0.00  0.00    -0.275 OA
ATOM     27  N   UNL     1      -1.191   1.858   0.018  0.00  0.00    -0.285 N 
ATOM     28  H   UNL     1      -2.123   1.281   0.112  0.00  0.00    +0.155 HD
ENDBRANCH  16  24
ENDBRANCH   1  16
TORSDOF 3
