REMARK  Name = ZINC37734473
REMARK  7 active torsions:
REMARK  status: ('A' for Active; 'I' for Inactive)
REMARK    1  A    between atoms: C_1  and  C_2
REMARK    2  A    between atoms: C_2  and  C_3
REMARK    3  A    between atoms: C_3  and  C_4
REMARK    4  A    between atoms: C_9  and  S_12
REMARK    5  A    between atoms: S_12  and  C_13
REMARK    6  A    between atoms: C_16  and  C_20
REMARK    7  A    between atoms: C_18  and  C_19
REMARK                            x       y       z     vdW  Elec       q    Type
REMARK                         _______ _______ _______ _____ _____    ______ ____
ROOT
ATOM      1  C   UNL     1       4.055  -3.574   1.035  0.00  0.00    +0.018 A 
ATOM      2  C   UNL     1       3.714  -2.227   0.945  0.00  0.00    +0.016 A 
ATOM      3  C   UNL     1       4.508  -1.274   1.540  0.00  0.00    +0.012 A 
ATOM      4  C   UNL     1       5.657  -1.659   2.237  0.00  0.00    +0.012 A 
ATOM      5  C   UNL     1       5.996  -3.011   2.326  0.00  0.00    +0.015 A 
ATOM      6  C   UNL     1       5.195  -3.961   1.733  0.00  0.00    -0.036 A 
ATOM      7  C   UNL     1       5.557  -5.420   1.835  0.00  0.00    +0.045 C 
ENDROOT
BRANCH   4   8
ATOM      8  C   UNL     1       6.511  -0.637   2.877  0.00  0.00    +0.094 C 
ATOM      9  N   UNL     1       6.591   0.586   2.355  0.00  0.00    -0.387 N 
ATOM     10  N   UNL     1       7.202  -0.940   3.976  0.00  0.00    -0.345 N 
ATOM     11  H   UNL     1       7.152   1.257   2.776  0.00  0.00    +0.157 HD
ATOM     12  H   UNL     1       7.144  -1.831   4.355  0.00  0.00    +0.144 HD
ATOM     13  H   UNL     1       7.763  -0.270   4.396  0.00  0.00    +0.144 HD
ATOM     14  H   UNL     1       6.088   0.807   1.556  0.00  0.00    +0.157 HD
ENDBRANCH   4   8
BRANCH   1  15
ATOM     15  S   UNL     1       3.037  -4.792   0.271  0.00  0.00    -0.052 S 
BRANCH  15  21
ATOM     16  C   UNL     1       5.745  -4.916  -2.568  0.00  0.00    +0.049 A 
ATOM     17  C   UNL     1       5.332  -5.929  -3.385  0.00  0.00    +0.093 A 
ATOM     18  C   UNL     1       4.155  -6.627  -3.061  0.00  0.00    +0.252 A 
ATOM     19  O   UNL     1       3.758  -7.538  -3.769  0.00  0.00    -0.268 OA
ATOM     20  N   UNL     1       3.474  -6.270  -1.952  0.00  0.00    -0.302 N 
ATOM     21  C   UNL     1       3.933  -5.251  -1.175  0.00  0.00    +0.174 A 
ATOM     22  N   UNL     1       5.041  -4.605  -1.483  0.00  0.00    -0.228 NA
ATOM     23  H   UNL     1       2.659  -6.738  -1.710  0.00  0.00    +0.171 HD
BRANCH  16  24
ATOM     24  C   UNL     1       7.003  -4.153  -2.894  0.00  0.00    +0.055 C 
BRANCH  24  26
ATOM     25  C   UNL     1       7.920  -2.112  -4.005  0.00  0.00    +0.004 C 
ATOM     26  C   UNL     1       6.643  -2.887  -3.675  0.00  0.00    +0.003 C 
ENDBRANCH  24  26
ENDBRANCH  16  24
ENDBRANCH  15  21
ENDBRANCH   1  15
TORSDOF 5
