REMARK  Name = ZINC06413446
REMARK  6 active torsions:
REMARK  status: ('A' for Active; 'I' for Inactive)
REMARK    1  A    between atoms: C_1  and  C_2
REMARK    2  A    between atoms: C_5  and  C_8
REMARK    3  A    between atoms: C_8  and  N_9
REMARK    4  A    between atoms: C_11  and  N_14
REMARK    5  A    between atoms: C_15  and  C_20
REMARK    6  A    between atoms: C_22  and  C_26
REMARK                            x       y       z     vdW  Elec       q    Type
REMARK                         _______ _______ _______ _____ _____    ______ ____
ROOT
ATOM      1  N   UNL     1       1.447  -4.746  -0.032  0.00  0.00    -0.265 N 
ATOM      2  C   UNL     1       2.001  -5.604   0.853  0.00  0.00    +0.135 A 
ATOM      3  C   UNL     1       3.299  -5.782   0.496  0.00  0.00    +0.088 A 
ATOM      4  C   UNL     1       3.540  -5.005  -0.646  0.00  0.00    +0.160 A 
ATOM      5  N   UNL     1       2.430  -4.390  -0.964  0.00  0.00    -0.177 NA
ENDROOT
BRANCH   3   6
ATOM      6  N   UNL     1       4.236  -6.602   1.155  0.00  0.00    -0.265 N 
ATOM      7  C   UNL     1       5.374  -6.199   1.817  0.00  0.00    +0.190 A 
ATOM      8  N   UNL     1       5.953  -7.282   2.282  0.00  0.00    -0.126 NA
ATOM      9  N   UNL     1       5.266  -8.320   1.961  0.00  0.00    -0.121 NA
ATOM     10  C   UNL     1       4.202  -7.963   1.276  0.00  0.00    +0.207 A 
ATOM     11  S   UNL     1       2.966  -9.040   0.631  0.00  0.00    -0.009 SA
BRANCH   7  12
ATOM     12  C   UNL     1       5.853  -4.809   1.975  0.00  0.00    +0.130 A 
ATOM     13  C   UNL     1       7.024  -4.406   2.650  0.00  0.00    +0.055 A 
ATOM     14  C   UNL     1       7.106  -3.061   2.570  0.00  0.00    +0.034 A 
ATOM     15  N   UNL     1       6.037  -2.618   1.873  0.00  0.00    -0.281 N 
ATOM     16  N   UNL     1       5.266  -3.728   1.504  0.00  0.00    -0.170 NA
ATOM     17  H   UNL     1       5.839  -1.692   1.663  0.00  0.00    +0.189 HD
ATOM     18  C   UNL     1       8.199  -2.204   3.154  0.00  0.00    +0.065 C 
ENDBRANCH   7  12
ENDBRANCH   3   6
BRANCH   1  19
ATOM     19  C   UNL     1       0.059  -4.275  -0.021  0.00  0.00    +0.178 C 
BRANCH  19  24
ATOM     20  C   UNL     1      -0.018   1.503   0.010  0.00  0.00    +0.044 C 
ATOM     21  C   UNL     1       0.002  -0.004   0.002  0.00  0.00    -0.050 A 
ATOM     22  C   UNL     1       0.006  -0.689  -1.199  0.00  0.00    +0.004 A 
ATOM     23  C   UNL     1       0.025  -2.071  -1.206  0.00  0.00    +0.006 A 
ATOM     24  C   UNL     1       0.040  -2.768  -0.013  0.00  0.00    -0.026 A 
ATOM     25  C   UNL     1       0.037  -2.084   1.188  0.00  0.00    +0.006 A 
ATOM     26  C   UNL     1       0.023  -0.702   1.195  0.00  0.00    +0.004 A 
ENDBRANCH  19  24
ENDBRANCH   1  19
TORSDOF 4
