REMARK  Name = ZINC58157696
REMARK  6 active torsions:
REMARK  status: ('A' for Active; 'I' for Inactive)
REMARK    1  A    between atoms: C_1  and  C_2
REMARK    2  A    between atoms: C_3  and  S_27
REMARK    3  A    between atoms: C_8  and  C_10
REMARK    4  A    between atoms: N_15  and  C_17
REMARK    5  A    between atoms: C_21  and  N_23
REMARK    6  A    between atoms: S_27  and  C_28
REMARK                            x       y       z     vdW  Elec       q    Type
REMARK                         _______ _______ _______ _____ _____    ______ ____
ROOT
ATOM      1  C   UNL     1       0.092  -5.133   3.217  0.00  0.00    +0.102 C 
ATOM      2  C   UNL     1       1.387  -4.971   4.047  0.00  0.00    +0.110 C 
ATOM      3  C   UNL     1       1.721  -6.378   4.491  0.00  0.00    +0.221 C 
ATOM      4  O   UNL     1       2.493  -6.661   5.382  0.00  0.00    -0.275 OA
ATOM      5  N   UNL     1       1.037  -7.270   3.754  0.00  0.00    -0.271 N 
ATOM      6  C   UNL     1       0.196  -6.602   2.753  0.00  0.00    +0.127 C 
ENDROOT
BRANCH   1  14
ATOM      7  C   UNL     1       0.014   1.504   0.004  0.00  0.00    +0.067 C 
ATOM      8  C   UNL     1       0.037  -0.003  -0.005  0.00  0.00    +0.061 A 
ATOM      9  C   UNL     1       0.055  -0.681  -1.187  0.00  0.00    +0.069 A 
ATOM     10  S   UNL     1       0.077  -2.369  -0.598  0.00  0.00    -0.046 S 
ATOM     11  C   UNL     1       0.059  -1.994   1.150  0.00  0.00    +0.166 A 
ATOM     12  N   UNL     1       0.044  -0.674   1.132  0.00  0.00    -0.229 NA
ATOM     13  N   UNL     1       0.065  -2.861   2.239  0.00  0.00    -0.264 N 
ATOM     14  C   UNL     1       0.086  -4.194   2.038  0.00  0.00    +0.224 C 
ATOM     15  O   UNL     1       0.101  -4.637   0.910  0.00  0.00    -0.275 OA
ATOM     16  H   UNL     1       0.053  -2.506   3.141  0.00  0.00    +0.157 HD
BRANCH   9  17
ATOM     17  S   UNL     1       0.056  -0.065  -2.838  0.00  0.00    -0.120 S 
ATOM     18  C   UNL     1       0.086  -1.560  -3.864  0.00  0.00    +0.090 C 
ENDBRANCH   9  17
ENDBRANCH   1  14
BRANCH   5  19
ATOM     19  C   UNL     1       1.116  -8.659   3.919  0.00  0.00    +0.039 A 
ATOM     20  C   UNL     1       2.024  -9.201   4.819  0.00  0.00    +0.026 A 
ATOM     21  C   UNL     1       2.100 -10.570   4.981  0.00  0.00    +0.042 A 
ATOM     22  C   UNL     1       1.272 -11.402   4.247  0.00  0.00    +0.154 A 
ATOM     23  C   UNL     1       0.365 -10.864   3.349  0.00  0.00    +0.163 A 
ATOM     24  C   UNL     1       0.282  -9.494   3.189  0.00  0.00    +0.059 A 
ATOM     25  F   UNL     1       1.348 -12.742   4.406  0.00  0.00    -0.203 F 
BRANCH  23  26
ATOM     26  N   UNL     1      -0.519 -11.755   2.566  0.00  0.00    +0.059 N 
ATOM     27  O   UNL     1      -1.310 -11.285   1.782  0.00  0.00    -0.126 OA
ATOM     28  O   UNL     1      -0.449 -12.954   2.709  0.00  0.00    -0.126 OA
ENDBRANCH  23  26
ENDBRANCH   5  19
TORSDOF 4
