REMARK  Name = ZINC20841817
REMARK  10 active torsions:
REMARK  status: ('A' for Active; 'I' for Inactive)
REMARK    1  A    between atoms: C_1  and  C_2
REMARK    2  A    between atoms: C_2  and  C_3
REMARK    3  A    between atoms: C_2  and  C_4
REMARK    4  A    between atoms: C_2  and  C_5
REMARK    5  A    between atoms: C_8  and  S_11
REMARK    6  A    between atoms: N_9  and  N_10
REMARK    7  A    between atoms: S_11  and  C_12
REMARK    8  A    between atoms: C_12  and  C_13
REMARK    9  A    between atoms: N_15  and  C_16
REMARK   10  A    between atoms: C_17  and  C_25
REMARK                            x       y       z     vdW  Elec       q    Type
REMARK                         _______ _______ _______ _____ _____    ______ ____
ROOT
ATOM      1  C   UNL     1      -1.456   7.480  -3.019  0.00  0.00    +0.228 C 
ATOM      2  O   UNL     1      -1.577   6.541  -3.777  0.00  0.00    -0.275 OA
ATOM      3  N   UNL     1      -0.841   7.312  -1.831  0.00  0.00    -0.278 N 
ATOM      4  H   UNL     1      -0.731   8.163  -1.143  0.00  0.00    +0.155 HD
ENDROOT
BRANCH   3   5
ATOM      5  C   UNL     1      -0.348   6.064  -1.475  0.00  0.00    +0.090 A 
ATOM      6  C   UNL     1       0.307   5.697  -0.309  0.00  0.00    +0.084 A 
ATOM      7  C   UNL     1       0.727   4.313  -0.181  0.00  0.00    -0.018 A 
ATOM      8  C   UNL     1       0.426   3.521  -1.235  0.00  0.00    -0.004 A 
ATOM      9  S   UNL     1      -0.401   4.588  -2.380  0.00  0.00    -0.077 S 
ATOM     10  C   UNL     1       0.732   2.063  -1.385  0.00  0.00    +0.043 C 
ATOM     11  C   UNL     1       1.773   1.675  -0.324  0.00  0.00    +0.005 C 
ATOM     12  C   UNL     1       1.329   2.232   1.033  0.00  0.00    +0.005 C 
ATOM     13  C   UNL     1       1.454   3.756   1.036  0.00  0.00    +0.037 C 
BRANCH   6  14
ATOM     14  C   UNL     1       0.560   6.649   0.731  0.00  0.00    +0.102 C 
ATOM     15  N   UNL     1       0.761   7.403   1.556  0.00  0.00    -0.191 NA
ENDBRANCH   6  14
ENDBRANCH   3   5
BRANCH   1  16
ATOM     16  C   UNL     1      -1.991   8.835  -3.405  0.00  0.00    +0.173 C 
BRANCH  16  17
ATOM     17  S   UNL     1      -2.753   8.737  -5.044  0.00  0.00    -0.075 S 
BRANCH  17  21
ATOM     18  C   UNL     1      -4.132  12.254  -6.018  0.00  0.00    +0.156 A 
ATOM     19  N   UNL     1      -3.621  12.468  -4.838  0.00  0.00    -0.131 NA
ATOM     20  N   UNL     1      -3.120  11.381  -4.370  0.00  0.00    -0.121 NA
ATOM     21  C   UNL     1      -3.278  10.408  -5.237  0.00  0.00    +0.209 A 
ATOM     22  N   UNL     1      -3.932  10.934  -6.314  0.00  0.00    -0.227 N 
BRANCH  18  24
ATOM     23  C   UNL     1      -6.202  12.758  -7.287  0.00  0.00    +0.019 C 
ATOM     24  C   UNL     1      -4.816  13.272  -6.893  0.00  0.00    +0.024 C 
ATOM     25  C   UNL     1      -4.960  14.589  -6.127  0.00  0.00    +0.019 C 
ATOM     26  C   UNL     1      -3.981  13.505  -8.154  0.00  0.00    +0.019 C 
ENDBRANCH  18  24
BRANCH  22  27
ATOM     27  N   UNL     1      -4.308  10.278  -7.452  0.00  0.00    -0.295 N 
ATOM     28  H   UNL     1      -4.086   9.207  -7.569  0.00  0.00    +0.163 HD
ATOM     29  H   UNL     1      -4.832  10.821  -8.252  0.00  0.00    +0.163 HD
ENDBRANCH  22  27
ENDBRANCH  17  21
ENDBRANCH  16  17
ENDBRANCH   1  16
TORSDOF 7
