REMARK  Name = ZINC13338590
REMARK  8 active torsions:
REMARK  status: ('A' for Active; 'I' for Inactive)
REMARK    1  A    between atoms: C_4  and  C_23
REMARK    2  A    between atoms: C_5  and  C_7
REMARK    3  A    between atoms: N_8  and  N_9
REMARK    4  A    between atoms: N_9  and  C_10
REMARK    5  A    between atoms: C_10  and  N_12
REMARK    6  A    between atoms: N_12  and  C_13
REMARK    7  A    between atoms: C_16  and  S_19
REMARK    8  A    between atoms: S_19  and  C_20
REMARK                            x       y       z     vdW  Elec       q    Type
REMARK                         _______ _______ _______ _____ _____    ______ ____
ROOT
ATOM      1  C   UNL     1       2.413  -2.737  -0.209  0.00  0.00    +0.154 C 
ATOM      2  S   UNL     1       3.883  -1.860  -0.261  0.00  0.00    -0.017 S 
ENDROOT
BRANCH   1   3
ATOM      3  N   UNL     1       2.424  -4.079  -0.333  0.00  0.00    -0.218 N 
ATOM      4  H   UNL     1       3.268  -4.555  -0.377  0.00  0.00    +0.176 HD
BRANCH   3   6
ATOM      5  C   UNL     1       1.225  -6.067  -0.613  0.00  0.00    +0.139 C 
ATOM      6  N   UNL     1       1.217  -4.786  -0.397  0.00  0.00    -0.188 NA
BRANCH   5  11
ATOM      7  C   UNL     1      -2.432  -6.775  -1.050  0.00  0.00    +0.001 A 
ATOM      8  C   UNL     1      -2.441  -8.159  -1.123  0.00  0.00    +0.001 A 
ATOM      9  C   UNL     1      -1.264  -8.872  -1.033  0.00  0.00    +0.016 A 
ATOM     10  C   UNL     1      -0.052  -8.200  -0.865  0.00  0.00    +0.072 A 
ATOM     11  C   UNL     1      -0.043  -6.792  -0.790  0.00  0.00    +0.009 A 
ATOM     12  C   UNL     1      -1.247  -6.090  -0.879  0.00  0.00    +0.010 A 
BRANCH  10  13
ATOM     13  C   UNL     1       1.208  -8.957  -0.767  0.00  0.00    +0.387 C 
ATOM     14  O   UNL     1       2.244  -8.380  -0.502  0.00  0.00    -0.241 OA
ATOM     15  O   UNL     1       1.212 -10.289  -0.972  0.00  0.00    -0.241 OA
ENDBRANCH  10  13
ENDBRANCH   5  11
ENDBRANCH   3   6
ENDBRANCH   1   3
BRANCH   1  16
ATOM     16  N   UNL     1       1.245  -2.084  -0.046  0.00  0.00    -0.296 N 
ATOM     17  H   UNL     1       0.422  -2.585   0.064  0.00  0.00    +0.154 HD
BRANCH  16  18
ATOM     18  C   UNL     1       1.221  -0.684  -0.035  0.00  0.00    +0.033 A 
ATOM     19  C   UNL     1       2.004   0.031  -0.932  0.00  0.00    +0.024 A 
ATOM     20  C   UNL     1       1.980   1.411  -0.922  0.00  0.00    +0.017 A 
ATOM     21  C   UNL     1       1.172   2.085  -0.015  0.00  0.00    +0.013 A 
ATOM     22  C   UNL     1       0.388   1.370   0.882  0.00  0.00    +0.017 A 
ATOM     23  C   UNL     1       0.412  -0.011   0.871  0.00  0.00    +0.024 A 
BRANCH  21  24
ATOM     24  S   UNL     1       1.141   3.847  -0.001  0.00  0.00    -0.056 S 
BRANCH  24  25
ATOM     25  C   UNL     1      -0.032   4.255   1.322  0.00  0.00    +0.404 C 
ATOM     26  F   UNL     1      -1.284   3.708   1.020  0.00  0.00    -0.197 F 
ATOM     27  F   UNL     1       0.429   3.727   2.533  0.00  0.00    -0.197 F 
ENDBRANCH  24  25
ENDBRANCH  21  24
ENDBRANCH  16  18
ENDBRANCH   1  16
TORSDOF 8
