REMARK  Name = ZINC67128204
REMARK  7 active torsions:
REMARK  status: ('A' for Active; 'I' for Inactive)
REMARK    1  A    between atoms: C_1  and  C_2
REMARK    2  A    between atoms: C_5  and  C_8
REMARK    3  A    between atoms: N_11  and  C_13
REMARK    4  A    between atoms: C_13  and  C_14
REMARK    5  A    between atoms: C_14  and  C_16
REMARK    6  A    between atoms: C_16  and  C_27
REMARK    7  A    between atoms: N_25  and  C_26
REMARK                            x       y       z     vdW  Elec       q    Type
REMARK                         _______ _______ _______ _____ _____    ______ ____
ROOT
ATOM      1  C   UNL     1       1.526  -7.844   1.761  0.00  0.00    +0.199 C 
ATOM      2  O   UNL     1       2.442  -7.177   1.319  0.00  0.00    -0.289 OA
ENDROOT
BRANCH   1   3
ATOM      3  C   UNL     1       1.798  -8.976   2.548  0.00  0.00    +0.132 C 
ATOM      4  C   UNL     1       3.129  -9.338   2.824  0.00  0.00    +0.116 C 
ATOM      5  N   UNL     1       4.231  -8.741   2.300  0.00  0.00    -0.300 N 
ATOM      6  C   UNL     1       5.356  -9.378   2.811  0.00  0.00    +0.054 A 
ATOM      7  C   UNL     1       6.718  -9.191   2.623  0.00  0.00    +0.025 A 
ATOM      8  C   UNL     1       7.621 -10.000   3.283  0.00  0.00    +0.002 A 
ATOM      9  C   UNL     1       7.173 -10.999   4.131  0.00  0.00    +0.002 A 
ATOM     10  C   UNL     1       5.821 -11.194   4.324  0.00  0.00    +0.025 A 
ATOM     11  C   UNL     1       4.904 -10.386   3.666  0.00  0.00    +0.056 A 
ATOM     12  N   UNL     1       3.515 -10.335   3.661  0.00  0.00    -0.289 N 
ATOM     13  C   UNL     1       2.622 -11.209   4.425  0.00  0.00    +0.137 C 
ATOM     14  H   UNL     1       4.232  -7.999   1.676  0.00  0.00    +0.153 HD
BRANCH   3  15
ATOM     15  C   UNL     1       0.720  -9.760   3.070  0.00  0.00    +0.106 C 
ATOM     16  N   UNL     1      -0.136 -10.383   3.483  0.00  0.00    -0.191 NA
ENDBRANCH   3  15
ENDBRANCH   1   3
BRANCH   1  17
ATOM     17  C   UNL     1       0.101  -7.456   1.466  0.00  0.00    +0.248 C 
BRANCH  17  21
ATOM     18  C   UNL     1       0.052  -4.231   0.034  0.00  0.00    +0.205 A 
ATOM     19  N   UNL     1       0.074  -5.010  -1.058  0.00  0.00    -0.108 NA
ATOM     20  N   UNL     1       0.093  -6.234  -0.654  0.00  0.00    -0.045 NA
ATOM     21  N   UNL     1       0.085  -6.250   0.633  0.00  0.00    -0.155 N 
ATOM     22  N   UNL     1       0.066  -5.040   1.075  0.00  0.00    -0.130 NA
BRANCH  18  27
ATOM     23  C   UNL     1      -0.054   1.527   0.150  0.00  0.00    +0.044 C 
ATOM     24  C   UNL     1      -0.026   0.020   0.120  0.00  0.00    -0.050 A 
ATOM     25  C   UNL     1      -0.012  -0.644  -1.093  0.00  0.00    +0.004 A 
ATOM     26  C   UNL     1       0.014  -2.024  -1.127  0.00  0.00    +0.012 A 
ATOM     27  C   UNL     1       0.026  -2.747   0.064  0.00  0.00    +0.023 A 
ATOM     28  C   UNL     1       0.012  -2.073   1.282  0.00  0.00    +0.012 A 
ATOM     29  C   UNL     1      -0.009  -0.693   1.305  0.00  0.00    +0.004 A 
ENDBRANCH  18  27
ENDBRANCH  17  21
ENDBRANCH   1  17
TORSDOF 5
