REMARK  Name = ZINC16447441
REMARK  2 active torsions:
REMARK  status: ('A' for Active; 'I' for Inactive)
REMARK    1  A    between atoms: C_9  and  C_12
REMARK    2  A    between atoms: C_17  and  C_22
REMARK                            x       y       z     vdW  Elec       q    Type
REMARK                         _______ _______ _______ _____ _____    ______ ____
ROOT
ATOM      1  C   UNL     1       2.486  -0.346   2.954  0.00  0.00    +0.143 C 
ATOM      2  C   UNL     1       1.862   0.356   1.771  0.00  0.00    +0.037 C 
ATOM      3  C   UNL     1       2.234   1.548   1.277  0.00  0.00    +0.017 C 
ATOM      4  C   UNL     1       1.519   2.141   0.073  0.00  0.00    +0.059 C 
ATOM      5  C   UNL     1       0.055   1.708   0.069  0.00  0.00    +0.032 C 
ATOM      6  C   UNL     1       0.020   0.176   0.013  0.00  0.00    +0.088 C 
ATOM      7  C   UNL     1       0.792  -0.359   1.182  0.00  0.00    +0.163 C 
ATOM      8  O   UNL     1       0.489  -1.443   1.639  0.00  0.00    -0.292 OA
ATOM      9  N   UNL     1       3.251   2.308   1.760  0.00  0.00    -0.316 N 
ATOM     10  C   UNL     1       3.462   2.594   3.106  0.00  0.00    +0.052 A 
ATOM     11  C   UNL     1       3.415   3.882   3.607  0.00  0.00    +0.025 A 
ATOM     12  C   UNL     1       3.719   4.102   4.940  0.00  0.00    +0.002 A 
ATOM     13  C   UNL     1       4.064   3.043   5.760  0.00  0.00    +0.002 A 
ATOM     14  C   UNL     1       4.089   1.751   5.264  0.00  0.00    +0.025 A 
ATOM     15  C   UNL     1       3.767   1.524   3.935  0.00  0.00    +0.049 A 
ATOM     16  N   UNL     1       3.730   0.236   3.408  0.00  0.00    -0.331 N 
ATOM     17  H   UNL     1       3.876   2.681   1.119  0.00  0.00    +0.152 HD
ATOM     18  H   UNL     1       4.550  -0.278   3.345  0.00  0.00    +0.147 HD
ENDROOT
BRANCH   1  27
ATOM     19  C   UNL     1      -0.214  -1.829   8.392  0.00  0.00    +0.001 A 
ATOM     20  C   UNL     1      -1.242  -0.905   8.270  0.00  0.00    +0.004 A 
ATOM     21  C   UNL     1      -1.325  -0.086   7.165  0.00  0.00    +0.047 A 
ATOM     22  C   UNL     1      -0.372  -0.183   6.157  0.00  0.00    +0.138 A 
ATOM     23  C   UNL     1       0.667  -1.118   6.282  0.00  0.00    +0.064 A 
ATOM     24  C   UNL     1       0.741  -1.941   7.405  0.00  0.00    +0.015 A 
ATOM     25  C   UNL     1       1.667  -1.201   5.199  0.00  0.00    +0.198 A 
ATOM     26  O   UNL     1       2.592  -1.993   5.248  0.00  0.00    -0.287 OA
ATOM     27  C   UNL     1       1.504  -0.320   4.098  0.00  0.00    +0.059 A 
ATOM     28  C   UNL     1       0.472   0.543   4.084  0.00  0.00    +0.205 A 
ATOM     29  O   UNL     1      -0.433   0.608   5.066  0.00  0.00    -0.462 OA
ENDBRANCH   1  27
BRANCH   5  30
ATOM     30  C   UNL     1      -0.643   2.279  -1.139  0.00  0.00    -0.043 A 
ATOM     31  C   UNL     1      -0.176   1.990  -2.407  0.00  0.00    +0.005 A 
ATOM     32  C   UNL     1      -0.819   2.509  -3.515  0.00  0.00    +0.020 A 
ATOM     33  C   UNL     1      -1.923   3.327  -3.355  0.00  0.00    +0.041 A 
ATOM     34  C   UNL     1      -2.386   3.620  -2.084  0.00  0.00    +0.020 A 
ATOM     35  C   UNL     1      -1.746   3.096  -0.977  0.00  0.00    +0.005 A 
ATOM     36 CL   UNL     1      -2.727   3.984  -4.746  0.00  0.00    -0.084 Cl
ENDBRANCH   5  30
TORSDOF 2
