REMARK  Name = ZINC20706465
REMARK  3 active torsions:
REMARK  status: ('A' for Active; 'I' for Inactive)
REMARK    1  A    between atoms: C_6  and  C_7
REMARK    2  A    between atoms: C_23  and  C_26
REMARK    3  A    between atoms: C_28  and  N_33
REMARK                            x       y       z     vdW  Elec       q    Type
REMARK                         _______ _______ _______ _____ _____    ______ ____
ROOT
ATOM      1  C   UNL     1      -0.435   4.052  -0.729  0.00  0.00    +0.015 A 
ATOM      2  C   UNL     1       0.300   2.930  -0.422  0.00  0.00    +0.024 A 
ATOM      3  C   UNL     1       1.446   3.034   0.361  0.00  0.00    +0.031 A 
ATOM      4  C   UNL     1       1.862   4.268   0.849  0.00  0.00    -0.019 A 
ATOM      5  C   UNL     1       1.120   5.396   0.547  0.00  0.00    +0.019 A 
ATOM      6  C   UNL     1      -0.030   5.296  -0.237  0.00  0.00    +0.037 A 
ATOM      7  C   UNL     1       3.087   4.422   1.671  0.00  0.00    +0.049 C 
ATOM      8  C   UNL     1       2.733   4.644   3.144  0.00  0.00    -0.023 C 
ATOM      9  C   UNL     1       3.603   4.044   3.920  0.00  0.00    -0.030 C 
ATOM     10  C   UNL     1       4.661   3.344   3.090  0.00  0.00    +0.033 C 
ATOM     11  C   UNL     1       3.970   3.160   1.707  0.00  0.00    +0.029 C 
ATOM     12  C   UNL     1       3.090   1.910   1.801  0.00  0.00    +0.106 C 
ATOM     13  N   UNL     1       2.176   1.885   0.654  0.00  0.00    -0.336 N 
ATOM     14  H   UNL     1       2.080   0.972   0.048  0.00  0.00    +0.147 HD
ENDROOT
BRANCH   6  15
ATOM     15  C   UNL     1      -0.814   6.505  -0.554  0.00  0.00    +0.247 C 
ATOM     16  O   UNL     1      -0.259   7.583  -0.645  0.00  0.00    -0.270 OA
ATOM     17  N   UNL     1      -2.145   6.415  -0.742  0.00  0.00    -0.298 N 
ATOM     18  C   UNL     1      -2.753   5.104  -0.773  0.00  0.00    +0.108 C 
ATOM     19  C   UNL     1      -2.748   4.557  -2.216  0.00  0.00    +0.019 C 
ATOM     20  C   UNL     1      -3.715   5.293  -3.044  0.00  0.00    +0.002 C 
ATOM     21  C   UNL     1      -3.406   6.779  -3.201  0.00  0.00    +0.002 C 
ATOM     22  C   UNL     1      -3.977   7.535  -2.026  0.00  0.00    +0.019 C 
ATOM     23  C   UNL     1      -2.922   7.658  -0.912  0.00  0.00    +0.108 C 
ENDBRANCH   6  15
BRANCH  12  24
ATOM     24  C   UNL     1       2.293   1.949   3.080  0.00  0.00    -0.007 A 
ATOM     25  C   UNL     1       1.106   2.656   3.133  0.00  0.00    +0.039 A 
ATOM     26  C   UNL     1       0.375   2.691   4.306  0.00  0.00    +0.127 A 
ATOM     27  C   UNL     1       0.831   2.021   5.426  0.00  0.00    +0.034 A 
ATOM     28  C   UNL     1       2.017   1.314   5.373  0.00  0.00    +0.022 A 
ATOM     29  C   UNL     1       2.747   1.274   4.198  0.00  0.00    +0.046 A 
ATOM     30 CL   UNL     1       4.234   0.381   4.129  0.00  0.00    -0.083 Cl
BRANCH  26  31
ATOM     31  N   UNL     1      -0.895   3.448   4.363  0.00  0.00    +0.056 N 
ATOM     32  O   UNL     1      -1.297   4.039   3.377  0.00  0.00    -0.126 OA
ATOM     33  O   UNL     1      -1.540   3.480   5.396  0.00  0.00    -0.126 OA
ENDBRANCH  26  31
ENDBRANCH  12  24
TORSDOF 3
