REMARK  Name = ZINC61913909
REMARK  5 active torsions:
REMARK  status: ('A' for Active; 'I' for Inactive)
REMARK    1  A    between atoms: C_1  and  C_2
REMARK    2  A    between atoms: C_2  and  C_4
REMARK    3  A    between atoms: C_2  and  N_16
REMARK    4  A    between atoms: N_6  and  C_7
REMARK    5  A    between atoms: C_10  and  N_14
REMARK                            x       y       z     vdW  Elec       q    Type
REMARK                         _______ _______ _______ _____ _____    ______ ____
ROOT
ATOM      1  C   UNL     1      -1.244  -0.908  -0.421  0.00  0.00    +0.203 C 
ATOM      2  O   UNL     1      -1.452  -1.973   0.121  0.00  0.00    -0.277 OA
ATOM      3  N   UNL     1      -2.270  -0.207  -0.944  0.00  0.00    -0.284 N 
ATOM      4  H   UNL     1      -2.115   0.678  -1.310  0.00  0.00    +0.155 HD
ENDROOT
BRANCH   3   5
ATOM      5  C   UNL     1      -3.560  -0.756  -0.959  0.00  0.00    +0.070 A 
ATOM      6  C   UNL     1      -4.115  -1.259   0.211  0.00  0.00    +0.065 A 
ATOM      7  C   UNL     1      -5.386  -1.800   0.197  0.00  0.00    +0.044 A 
ATOM      8  C   UNL     1      -6.109  -1.842  -0.988  0.00  0.00    +0.027 A 
ATOM      9  C   UNL     1      -5.555  -1.341  -2.159  0.00  0.00    +0.044 A 
ATOM     10  C   UNL     1      -4.286  -0.793  -2.143  0.00  0.00    +0.065 A 
ATOM     11 CL   UNL     1      -3.596  -0.159  -3.604  0.00  0.00    -0.082 Cl
ATOM     12 CL   UNL     1      -3.211  -1.207   1.693  0.00  0.00    -0.082 Cl
BRANCH   8  13
ATOM     13  N   UNL     1      -7.396  -2.390  -1.003  0.00  0.00    -0.358 N 
ATOM     14  H   UNL     1      -7.783  -2.741  -0.186  0.00  0.00    +0.142 HD
ATOM     15  H   UNL     1      -7.901  -2.420  -1.831  0.00  0.00    +0.142 HD
ENDBRANCH   8  13
ENDBRANCH   3   5
BRANCH   1  17
ATOM     16  C   UNL     1       0.460   0.479   0.727  0.00  0.00    -0.004 C 
ATOM     17  C   UNL     1       0.160  -0.369  -0.510  0.00  0.00    +0.016 C 
BRANCH  17  18
ATOM     18  N   UNL     1       1.110  -1.488  -0.580  0.00  0.00    +0.389 N 
ATOM     19  C   UNL     1       2.483  -0.946  -0.578  0.00  0.00    -0.075 C 
ATOM     20  C   UNL     1       3.436  -2.022  -0.121  0.00  0.00    +0.009 C 
ATOM     21  C   UNL     1       4.000  -2.821  -1.308  0.00  0.00    +0.158 C 
ATOM     22  O   UNL     1       2.996  -3.107  -2.302  0.00  0.00    -0.382 OA
ATOM     23  C   UNL     1       1.732  -3.494  -1.823  0.00  0.00    +0.141 C 
ATOM     24  C   UNL     1       0.826  -2.251  -1.722  0.00  0.00    -0.049 C 
ATOM     25  H   UNL     1       0.990  -2.067   0.237  0.00  0.00    -0.081 HD
ENDBRANCH  17  18
ENDBRANCH   1  17
TORSDOF 4
