REMARK  Name = ZINC10450611
REMARK  9 active torsions:
REMARK  status: ('A' for Active; 'I' for Inactive)
REMARK    1  A    between atoms: C_4  and  O_7
REMARK    2  A    between atoms: O_7  and  C_8
REMARK    3  A    between atoms: C_8  and  C_9
REMARK    4  A    between atoms: N_11  and  N_12
REMARK    5  A    between atoms: N_12  and  C_13
REMARK    6  A    between atoms: C_13  and  N_15
REMARK    7  A    between atoms: C_16  and  C_18
REMARK    8  A    between atoms: C_19  and  C_20
REMARK    9  A    between atoms: C_24  and  N_26
REMARK                            x       y       z     vdW  Elec       q    Type
REMARK                         _______ _______ _______ _____ _____    ______ ____
ROOT
ATOM      1  C   UNL     1       6.626  -5.799  -0.096  0.00  0.00    +0.153 C 
ATOM      2  S   UNL     1       8.218  -6.430  -0.115  0.00  0.00    -0.017 S 
ENDROOT
BRANCH   1   3
ATOM      3  N   UNL     1       5.570  -6.635  -0.089  0.00  0.00    -0.263 N 
ATOM      4  C   UNL     1       5.766  -7.969  -0.098  0.00  0.00    +0.242 C 
ATOM      5  O   UNL     1       6.897  -8.417  -0.112  0.00  0.00    -0.270 OA
ATOM      6  H   UNL     1       4.668  -6.278  -0.078  0.00  0.00    +0.157 HD
BRANCH   4   7
ATOM      7  C   UNL     1       4.619  -8.877  -0.091  0.00  0.00    +0.068 C 
ATOM      8  C   UNL     1       4.815 -10.211  -0.101  0.00  0.00    +0.013 C 
BRANCH   8   9
ATOM      9  C   UNL     1       3.661 -11.125  -0.093  0.00  0.00    -0.023 A 
ATOM     10  C   UNL     1       2.359 -10.613  -0.083  0.00  0.00    +0.008 A 
ATOM     11  C   UNL     1       1.283 -11.475  -0.076  0.00  0.00    +0.003 A 
ATOM     12  C   UNL     1       1.489 -12.844  -0.080  0.00  0.00    +0.033 A 
ATOM     13  C   UNL     1       2.773 -13.358  -0.090  0.00  0.00    +0.127 A 
ATOM     14  C   UNL     1       3.860 -12.509  -0.103  0.00  0.00    +0.040 A 
BRANCH  13  15
ATOM     15  N   UNL     1       2.982 -14.824  -0.093  0.00  0.00    +0.056 N 
ATOM     16  O   UNL     1       2.031 -15.570  -0.086  0.00  0.00    -0.126 OA
ATOM     17  O   UNL     1       4.104 -15.274  -0.102  0.00  0.00    -0.126 OA
ENDBRANCH  13  15
ENDBRANCH   8   9
ENDBRANCH   4   7
ENDBRANCH   1   3
BRANCH   1  18
ATOM     18  N   UNL     1       6.430  -4.465  -0.086  0.00  0.00    -0.245 N 
ATOM     19  H   UNL     1       7.191  -3.863  -0.091  0.00  0.00    +0.172 HD
BRANCH  18  22
ATOM     20  C   UNL     1       4.932  -2.615  -0.061  0.00  0.00    +0.267 C 
ATOM     21  O   UNL     1       5.883  -1.863  -0.067  0.00  0.00    -0.271 OA
ATOM     22  N   UNL     1       5.128  -3.949  -0.070  0.00  0.00    -0.232 N 
ATOM     23  H   UNL     1       4.368  -4.551  -0.066  0.00  0.00    +0.173 HD
BRANCH  20  24
ATOM     24  C   UNL     1       3.531  -2.060  -0.044  0.00  0.00    +0.326 C 
BRANCH  24  25
ATOM     25  O   UNL     1       3.586  -0.632  -0.037  0.00  0.00    -0.483 OA
BRANCH  25  29
ATOM     26  C   UNL     1      -0.017   1.378   0.010  0.00  0.00    +0.000 A 
ATOM     27  C   UNL     1       1.170   2.088   0.002  0.00  0.00    +0.004 A 
ATOM     28  C   UNL     1       2.377   1.417  -0.013  0.00  0.00    +0.045 A 
ATOM     29  C   UNL     1       2.399   0.030  -0.021  0.00  0.00    +0.121 A 
ATOM     30  C   UNL     1       1.207  -0.680  -0.013  0.00  0.00    +0.045 A 
ATOM     31  C   UNL     1       0.002  -0.004   0.002  0.00  0.00    +0.004 A 
ENDBRANCH  25  29
ENDBRANCH  24  25
ENDBRANCH  20  24
ENDBRANCH  18  22
ENDBRANCH   1  18
TORSDOF 9
