REMARK  Name = ZINC26846923
REMARK  11 active torsions:
REMARK  status: ('A' for Active; 'I' for Inactive)
REMARK    1  A    between atoms: C_1  and  C_2
REMARK    2  A    between atoms: C_2  and  C_3
REMARK    3  A    between atoms: C_2  and  C_4
REMARK    4  A    between atoms: C_7  and  C_10
REMARK    5  A    between atoms: C_12  and  C_15
REMARK    6  A    between atoms: C_15  and  C_16
REMARK    7  A    between atoms: C_16  and  C_17
REMARK    8  A    between atoms: N_19  and  N_20
REMARK    9  A    between atoms: N_20  and  C_21
REMARK   10  A    between atoms: C_21  and  N_23
REMARK   11  A    between atoms: N_23  and  C_24
REMARK                            x       y       z     vdW  Elec       q    Type
REMARK                         _______ _______ _______ _____ _____    ______ ____
ROOT
ATOM      1  C   UNL     1      -4.033   5.366   7.048  0.00  0.00    +0.108 C 
ENDROOT
BRANCH   1   4
ATOM      2  C   UNL     1      -2.708   2.943   4.747  0.00  0.00    +0.202 A 
ATOM      3  N   UNL     1      -2.914   4.232   5.100  0.00  0.00    -0.191 NA
ATOM      4  C   UNL     1      -3.562   4.186   6.237  0.00  0.00    +0.228 A 
ATOM      5  O   UNL     1      -3.723   2.896   6.546  0.00  0.00    -0.338 OA
ATOM      6  N   UNL     1      -3.230   2.198   5.686  0.00  0.00    -0.056 NA
BRANCH   2  10
ATOM      7  C   UNL     1      -0.718   1.572   1.248  0.00  0.00    -0.045 A 
ATOM      8  C   UNL     1      -0.854   2.929   1.476  0.00  0.00    +0.004 A 
ATOM      9  C   UNL     1      -1.504   3.380   2.607  0.00  0.00    +0.012 A 
ATOM     10  C   UNL     1      -2.013   2.465   3.526  0.00  0.00    +0.022 A 
ATOM     11  C   UNL     1      -1.868   1.098   3.294  0.00  0.00    +0.012 A 
ATOM     12  C   UNL     1      -1.222   0.659   2.157  0.00  0.00    +0.004 A 
BRANCH   7  14
ATOM     13  C   UNL     1       1.423   1.615  -0.003  0.00  0.00    +0.012 C 
ATOM     14  C   UNL     1      -0.013   1.086   0.008  0.00  0.00    +0.013 C 
ATOM     15  C   UNL     1      -0.753   1.593  -1.232  0.00  0.00    +0.012 C 
ENDBRANCH   7  14
ENDBRANCH   2  10
ENDBRANCH   1   4
BRANCH   1  16
ATOM     16  C   UNL     1      -5.448   5.753   6.613  0.00  0.00    +0.107 C 
BRANCH  16  17
ATOM     17  C   UNL     1      -5.918   6.933   7.423  0.00  0.00    +0.230 C 
ATOM     18  O   UNL     1      -5.193   7.417   8.267  0.00  0.00    -0.274 OA
ATOM     19  N   UNL     1      -7.144   7.450   7.212  0.00  0.00    -0.235 N 
ATOM     20  H   UNL     1      -7.802   7.011   6.447  0.00  0.00    +0.173 HD
BRANCH  19  21
ATOM     21  N   UNL     1      -7.582   8.547   7.965  0.00  0.00    -0.246 N 
ATOM     22  H   UNL     1      -6.924   8.986   8.730  0.00  0.00    +0.172 HD
BRANCH  21  23
ATOM     23  C   UNL     1      -8.808   9.064   7.754  0.00  0.00    +0.147 C 
ATOM     24  S   UNL     1      -9.342  10.405   8.675  0.00  0.00    -0.017 S 
BRANCH  23  25
ATOM     25  N   UNL     1      -9.614   8.526   6.817  0.00  0.00    -0.323 N 
ATOM     26  H   UNL     1      -9.271   7.665   6.225  0.00  0.00    +0.148 HD
BRANCH  25  27
ATOM     27  C   UNL     1     -10.947   9.088   6.587  0.00  0.00    +0.072 C 
ATOM     28  C   UNL     1     -12.108   8.107   6.420  0.00  0.00    +0.024 C 
ATOM     29  C   UNL     1     -11.575   8.875   5.208  0.00  0.00    +0.024 C 
ENDBRANCH  25  27
ENDBRANCH  23  25
ENDBRANCH  21  23
ENDBRANCH  19  21
ENDBRANCH  16  17
ENDBRANCH   1  16
TORSDOF 9
