REMARK  Name = ZINC16348313
REMARK  6 active torsions:
REMARK  status: ('A' for Active; 'I' for Inactive)
REMARK    1  A    between atoms: C_1  and  C_2
REMARK    2  A    between atoms: C_10  and  C_12
REMARK    3  A    between atoms: C_12  and  C_22
REMARK    4  A    between atoms: C_13  and  C_14
REMARK    5  A    between atoms: C_17  and  O_21
REMARK    6  A    between atoms: C_18  and  O_20
REMARK                            x       y       z     vdW  Elec       q    Type
REMARK                         _______ _______ _______ _____ _____    ______ ____
ROOT
ATOM      1  C   UNL     1      -0.014  -5.580   2.242  0.00  0.00    +0.094 C 
ATOM      2  C   UNL     1       0.101  -6.726   1.509  0.00  0.00    +0.030 C 
ENDROOT
BRANCH   1  12
ATOM      3  C   UNL     1      -0.062   1.513   0.072  0.00  0.00    +0.044 C 
ATOM      4  C   UNL     1      -0.004   0.007   0.054  0.00  0.00    -0.048 A 
ATOM      5  C   UNL     1       0.140  -0.662  -1.153  0.00  0.00    +0.005 A 
ATOM      6  C   UNL     1       0.194  -2.026  -1.191  0.00  0.00    +0.030 A 
ATOM      7  C   UNL     1       0.104  -2.761  -0.004  0.00  0.00    +0.089 A 
ATOM      8  C   UNL     1      -0.042  -2.083   1.219  0.00  0.00    +0.067 A 
ATOM      9  C   UNL     1      -0.090  -0.696   1.238  0.00  0.00    +0.031 A 
ATOM     10  N   UNL     1      -0.102  -3.057   2.197  0.00  0.00    -0.337 N 
ATOM     11  H   UNL     1      -0.203  -2.910   3.151  0.00  0.00    +0.167 HD
ATOM     12  C   UNL     1       0.004  -4.269   1.567  0.00  0.00    +0.150 A 
ATOM     13  N   UNL     1       0.126  -4.087   0.273  0.00  0.00    -0.227 NA
ENDBRANCH   1  12
BRANCH   2  14
ATOM     14  C   UNL     1       0.232  -8.020   2.187  0.00  0.00    -0.020 A 
ATOM     15  C   UNL     1      -0.255  -9.185   1.580  0.00  0.00    +0.012 A 
ATOM     16  C   UNL     1      -0.130 -10.398   2.219  0.00  0.00    +0.050 A 
ATOM     17  C   UNL     1       0.479 -10.471   3.466  0.00  0.00    +0.158 A 
ATOM     18  C   UNL     1       0.967  -9.316   4.077  0.00  0.00    +0.159 A 
ATOM     19  C   UNL     1       0.851  -8.096   3.442  0.00  0.00    +0.057 A 
BRANCH  18  20
ATOM     20  O   UNL     1       1.563  -9.393   5.298  0.00  0.00    -0.503 OA
ATOM     21  H   UNL     1       2.518  -9.540   5.261  0.00  0.00    +0.292 HD
ENDBRANCH  18  20
BRANCH  17  22
ATOM     22  O   UNL     1       0.600 -11.670   4.091  0.00  0.00    -0.503 OA
ATOM     23  H   UNL     1       1.417 -12.142   3.882  0.00  0.00    +0.292 HD
ENDBRANCH  17  22
ENDBRANCH   2  14
BRANCH   1  24
ATOM     24  C   UNL     1      -0.152  -5.651   3.666  0.00  0.00    +0.103 C 
ATOM     25  N   UNL     1      -0.261  -5.707   4.795  0.00  0.00    -0.191 NA
ENDBRANCH   1  24
TORSDOF 5
