REMARK  Name = ZINC10117309
REMARK  7 active torsions:
REMARK  status: ('A' for Active; 'I' for Inactive)
REMARK    1  A    between atoms: C_1  and  C_2
REMARK    2  A    between atoms: C_5  and  C_7
REMARK    3  A    between atoms: C_8  and  C_13
REMARK    4  A    between atoms: N_14  and  N_15
REMARK    5  A    between atoms: N_15  and  C_16
REMARK    6  A    between atoms: C_16  and  N_18
REMARK    7  A    between atoms: N_18  and  C_19
REMARK                            x       y       z     vdW  Elec       q    Type
REMARK                         _______ _______ _______ _____ _____    ______ ____
ROOT
ATOM      1  C   UNL     1       1.658  -3.225  -0.166  0.00  0.00    +0.136 A 
ATOM      2  C   UNL     1       2.943  -3.265  -0.871  0.00  0.00    +0.043 A 
ATOM      3  C   UNL     1       3.448  -4.524  -0.692  0.00  0.00    +0.115 A 
ATOM      4  N   UNL     1       2.572  -5.223   0.054  0.00  0.00    -0.283 N 
ATOM      5  H   UNL     1       2.684  -6.146   0.330  0.00  0.00    +0.188 HD
ATOM      6  N   UNL     1       1.480  -4.412   0.376  0.00  0.00    -0.170 NA
ENDROOT
BRANCH   1  11
ATOM      7  C   UNL     1      -0.009   1.487   0.284  0.00  0.00    +0.086 C 
ATOM      8  C   UNL     1       0.006  -0.011   0.121  0.00  0.00    +0.103 A 
ATOM      9  C   UNL     1      -1.080  -0.798  -0.007  0.00  0.00    +0.045 A 
ATOM     10  C   UNL     1      -0.616  -2.123  -0.134  0.00  0.00    +0.052 A 
ATOM     11  C   UNL     1       0.742  -2.071  -0.075  0.00  0.00    +0.156 A 
ATOM     12  O   UNL     1       1.105  -0.782   0.074  0.00  0.00    -0.458 OA
ENDBRANCH   1  11
BRANCH   2  13
ATOM     13  C   UNL     1       3.569  -2.164  -1.625  0.00  0.00    +0.142 C 
ATOM     14  N   UNL     1       4.668  -2.372  -2.284  0.00  0.00    -0.188 NA
BRANCH  14  15
ATOM     15  N   UNL     1       5.207  -1.356  -3.085  0.00  0.00    -0.218 N 
ATOM     16  H   UNL     1       4.799  -0.476  -3.091  0.00  0.00    +0.176 HD
BRANCH  15  17
ATOM     17  C   UNL     1       6.291  -1.603  -3.847  0.00  0.00    +0.150 C 
ATOM     18  S   UNL     1       7.026  -0.331  -4.727  0.00  0.00    -0.017 S 
BRANCH  17  19
ATOM     19  N   UNL     1       6.796  -2.850  -3.916  0.00  0.00    -0.328 N 
ATOM     20  C   UNL     1       8.037  -3.098  -4.655  0.00  0.00    +0.127 C 
ATOM     21  H   UNL     1       6.338  -3.584  -3.477  0.00  0.00    +0.147 HD
ENDBRANCH  17  19
ENDBRANCH  15  17
ENDBRANCH  14  15
ENDBRANCH   2  13
TORSDOF 5
