REMARK  Name = ZINC39609317
REMARK  10 active torsions:
REMARK  status: ('A' for Active; 'I' for Inactive)
REMARK    1  A    between atoms: C_1  and  C_2
REMARK    2  A    between atoms: C_5  and  C_9
REMARK    3  A    between atoms: C_7  and  C_8
REMARK    4  A    between atoms: C_9  and  C_10
REMARK    5  A    between atoms: C_10  and  N_11
REMARK    6  A    between atoms: C_12  and  C_14
REMARK    7  A    between atoms: C_25  and  C_27
REMARK    8  A    between atoms: C_28  and  C_38
REMARK    9  A    between atoms: C_31  and  C_32
REMARK   10  A    between atoms: C_34  and  C_37
REMARK                            x       y       z     vdW  Elec       q    Type
REMARK                         _______ _______ _______ _____ _____    ______ ____
ROOT
ATOM      1  C   UNL     1       2.723  -8.397  -0.059  0.00  0.00    +0.100 C 
ATOM      2  C   UNL     1       1.954  -8.938  -1.285  0.00  0.00    +0.121 C 
ATOM      3  N   UNL     1       3.000  -9.168  -2.310  0.00  0.00    -0.296 N 
ATOM      4  C   UNL     1       4.148  -9.717  -1.550  0.00  0.00    +0.115 C 
ATOM      5  C   UNL     1       4.161  -8.913  -0.234  0.00  0.00    -0.004 C 
ATOM      6  C   UNL     1       5.133  -7.742  -0.342  0.00  0.00    -0.010 C 
ATOM      7  C   UNL     1       6.561  -8.280  -0.459  0.00  0.00    -0.082 C 
ATOM      8  N   UNL     1       6.877  -9.097   0.720  0.00  0.00    +0.379 N 
ATOM      9  C   UNL     1       5.997 -10.271   0.765  0.00  0.00    -0.082 C 
ATOM     10  C   UNL     1       4.544  -9.817   0.933  0.00  0.00    -0.010 C 
ATOM     11  C   UNL     1       2.924  -8.931  -3.635  0.00  0.00    +0.252 C 
ATOM     12  O   UNL     1       3.876  -9.175  -4.352  0.00  0.00    -0.270 OA
ATOM     13  H   UNL     1       7.838  -9.400   0.670  0.00  0.00    -0.086 HD
ATOM     14  H   UNL     1       6.743  -8.546   1.554  0.00  0.00    -0.086 HD
ENDROOT
BRANCH  11  15
ATOM     15  C   UNL     1       1.688  -8.377  -4.214  0.00  0.00    +0.108 A 
ATOM     16  C   UNL     1       1.382  -7.004  -4.384  0.00  0.00    +0.093 A 
ATOM     17  N   UNL     1       0.204  -6.916  -4.927  0.00  0.00    -0.082 NA
ATOM     18  O   UNL     1      -0.304  -8.220  -5.133  0.00  0.00    -0.352 OA
ATOM     19  C   UNL     1       0.611  -9.103  -4.701  0.00  0.00    +0.201 A 
ATOM     20  C   UNL     1       2.268  -5.847  -4.002  0.00  0.00    +0.070 C 
BRANCH  19  21
ATOM     21  C   UNL     1       0.490 -10.576  -4.734  0.00  0.00    +0.152 A 
ATOM     22  C   UNL     1      -0.611 -11.313  -5.238  0.00  0.00    +0.079 A 
ATOM     23  C   UNL     1      -0.339 -12.622  -5.090  0.00  0.00    +0.135 A 
ATOM     24  O   UNL     1       0.872 -12.739  -4.523  0.00  0.00    -0.359 OA
ATOM     25  N   UNL     1       1.386 -11.436  -4.308  0.00  0.00    -0.075 NA
ATOM     26  C   UNL     1      -1.238 -13.761  -5.493  0.00  0.00    +0.089 C 
ENDBRANCH  19  21
ENDBRANCH  11  15
BRANCH   1  28
ATOM     27  N   UNL     1       2.865  -6.221   1.108  0.00  0.00    -0.315 N 
ATOM     28  C   UNL     1       2.703  -6.890  -0.050  0.00  0.00    +0.218 C 
ATOM     29  O   UNL     1       2.542  -6.280  -1.086  0.00  0.00    -0.275 OA
ATOM     30  H   UNL     1       2.994  -6.708   1.936  0.00  0.00    +0.149 HD
BRANCH  27  31
ATOM     31  C   UNL     1       2.846  -4.756   1.116  0.00  0.00    +0.109 C 
BRANCH  31  32
ATOM     32  C   UNL     1       3.050  -4.251   2.546  0.00  0.00    +0.054 C 
BRANCH  32  37
ATOM     33  C   UNL     1       2.976   1.527   2.581  0.00  0.00    +0.044 C 
ATOM     34  C   UNL     1       2.995   0.020   2.572  0.00  0.00    -0.048 A 
ATOM     35  C   UNL     1       1.819  -0.687   2.741  0.00  0.00    +0.004 A 
ATOM     36  C   UNL     1       1.837  -2.069   2.733  0.00  0.00    +0.004 A 
ATOM     37  C   UNL     1       3.030  -2.744   2.554  0.00  0.00    -0.046 A 
ATOM     38  C   UNL     1       4.206  -2.037   2.384  0.00  0.00    +0.007 A 
ATOM     39  C   UNL     1       4.187  -0.654   2.388  0.00  0.00    -0.047 A 
ATOM     40  C   UNL     1       5.468   0.117   2.197  0.00  0.00    +0.044 C 
ENDBRANCH  32  37
ENDBRANCH  31  32
ENDBRANCH  27  31
ENDBRANCH   1  28
TORSDOF 6
