REMARK  Name = ZINC01273514
REMARK  3 active torsions:
REMARK  status: ('A' for Active; 'I' for Inactive)
REMARK    1  A    between atoms: C_9  and  C_20
REMARK    2  A    between atoms: C_15  and  N_19
REMARK    3  A    between atoms: C_16  and  C_17
REMARK                            x       y       z     vdW  Elec       q    Type
REMARK                         _______ _______ _______ _____ _____    ______ ____
ROOT
ATOM      1  C   UNL     1      -0.017   1.386   0.010  0.00  0.00    +0.000 A 
ATOM      2  C   UNL     1       1.151   2.121   0.003  0.00  0.00    +0.002 A 
ATOM      3  C   UNL     1       2.398   1.516  -0.013  0.00  0.00    +0.023 A 
ATOM      4  C   UNL     1       2.431   0.121  -0.021  0.00  0.00    +0.038 A 
ATOM      5  C   UNL     1       1.238  -0.614  -0.013  0.00  0.00    -0.002 A 
ATOM      6  C   UNL     1       0.002  -0.004   0.002  0.00  0.00    +0.007 A 
ATOM      7  C   UNL     1       1.635  -2.054  -0.027  0.00  0.00    +0.145 C 
ATOM      8  C   UNL     1       1.137  -2.773   1.194  0.00  0.00    +0.067 A 
ATOM      9  C   UNL     1       1.524  -2.637   2.532  0.00  0.00    +0.108 A 
ATOM     10  N   UNL     1       0.806  -3.482   3.251  0.00  0.00    -0.170 NA
ATOM     11  N   UNL     1      -0.056  -4.176   2.387  0.00  0.00    -0.246 N 
ATOM     12  H   UNL     1      -0.695  -4.857   2.647  0.00  0.00    +0.192 HD
ATOM     13  C   UNL     1       0.161  -3.728   1.133  0.00  0.00    +0.224 A 
ATOM     14  O   UNL     1      -0.427  -4.097  -0.032  0.00  0.00    -0.423 OA
ATOM     15  C   UNL     1       0.148  -3.698  -1.185  0.00  0.00    +0.201 C 
ATOM     16  C   UNL     1       1.114  -2.752  -1.253  0.00  0.00    +0.110 C 
ATOM     17  C   UNL     1       3.148  -2.030  -0.041  0.00  0.00    +0.238 C 
ATOM     18  O   UNL     1       3.886  -2.992  -0.055  0.00  0.00    -0.274 OA
ATOM     19  N   UNL     1       3.521  -0.732  -0.037  0.00  0.00    -0.284 N 
ATOM     20  H   UNL     1       4.443  -0.433  -0.044  0.00  0.00    +0.155 HD
ENDROOT
BRANCH   9  21
ATOM     21  C   UNL     1       2.554  -1.711   3.050  0.00  0.00    +0.040 A 
ATOM     22  C   UNL     1       2.589  -1.038   4.241  0.00  0.00    +0.018 A 
ATOM     23  C   UNL     1       3.665  -0.220   4.509  0.00  0.00    +0.008 A 
ATOM     24  C   UNL     1       4.655  -0.107   3.587  0.00  0.00    +0.046 A 
ATOM     25  S   UNL     1       4.081  -1.187   2.287  0.00  0.00    -0.095 S 
ENDBRANCH   9  21
BRANCH  15  26
ATOM     26  N   UNL     1      -0.270  -4.283  -2.354  0.00  0.00    -0.328 N 
ATOM     27  H   UNL     1      -0.961  -4.963  -2.336  0.00  0.00    +0.145 HD
ATOM     28  H   UNL     1       0.125  -4.016  -3.199  0.00  0.00    +0.145 HD
ENDBRANCH  15  26
BRANCH  16  29
ATOM     29  C   UNL     1       1.657  -2.406  -2.532  0.00  0.00    +0.102 C 
ATOM     30  N   UNL     1       2.088  -2.131  -3.547  0.00  0.00    -0.191 NA
ENDBRANCH  16  29
TORSDOF 3
