REMARK  Name = ZINC03839153
REMARK  11 active torsions:
REMARK  status: ('A' for Active; 'I' for Inactive)
REMARK    1  A    between atoms: C_1  and  C_2
REMARK    2  A    between atoms: C_2  and  C_35
REMARK    3  A    between atoms: C_3  and  C_4
REMARK    4  A    between atoms: C_9  and  N_28
REMARK    5  A    between atoms: C_11  and  C_13
REMARK    6  A    between atoms: N_15  and  C_16
REMARK    7  A    between atoms: C_16  and  C_18
REMARK    8  A    between atoms: C_16  and  C_25
REMARK    9  A    between atoms: C_18  and  C_19
REMARK   10  A    between atoms: N_31  and  C_32
REMARK   11  A    between atoms: C_32  and  C_33
REMARK                            x       y       z     vdW  Elec       q    Type
REMARK                         _______ _______ _______ _____ _____    ______ ____
ROOT
ATOM      1  C   UNL     1      -2.321  -1.259   6.057  0.00  0.00    +0.240 C 
ATOM      2  O   UNL     1      -2.224  -2.205   5.298  0.00  0.00    -0.271 OA
ATOM      3  N   UNL     1      -2.479  -0.014   5.565  0.00  0.00    -0.285 N 
ATOM      4  C   UNL     1      -2.608   1.216   6.367  0.00  0.00    +0.111 C 
ATOM      5  C   UNL     1      -3.362   2.211   5.449  0.00  0.00    +0.043 C 
ATOM      6  C   UNL     1      -2.761   1.868   4.060  0.00  0.00    +0.105 C 
ATOM      7  C   UNL     1      -2.551   0.342   4.141  0.00  0.00    +0.182 C 
ENDROOT
BRANCH   6   8
ATOM      8  N   UNL     1      -3.703   2.206   2.990  0.00  0.00    -0.294 N 
ATOM      9  C   UNL     1      -3.659   3.423   2.412  0.00  0.00    +0.300 C 
ATOM     10  O   UNL     1      -2.836   4.240   2.779  0.00  0.00    -0.253 OA
ATOM     11  N   UNL     1      -4.526   3.734   1.428  0.00  0.00    -0.296 N 
ATOM     12  H   UNL     1      -4.359   1.554   2.698  0.00  0.00    +0.151 HD
ATOM     13  H   UNL     1      -5.182   3.082   1.136  0.00  0.00    +0.151 HD
BRANCH  11  14
ATOM     14  C   UNL     1      -4.477   5.056   0.800  0.00  0.00    +0.132 C 
BRANCH  14  15
ATOM     15  C   UNL     1      -5.543   5.147  -0.262  0.00  0.00    -0.016 C 
ATOM     16  C   UNL     1      -6.422   6.118  -0.226  0.00  0.00    +0.005 C 
ENDBRANCH  14  15
ENDBRANCH  11  14
ENDBRANCH   6   8
BRANCH   1  19
ATOM     17  C   UNL     1      -1.989  -3.874   7.056  0.00  0.00    +0.039 C 
ATOM     18  C   UNL     1      -2.109  -2.703   7.996  0.00  0.00    -0.071 C 
ATOM     19  C   UNL     1      -2.265  -1.474   7.511  0.00  0.00    +0.066 C 
ATOM     20  C   UNL     1      -2.052  -2.923   9.486  0.00  0.00    +0.039 C 
ENDBRANCH   1  19
BRANCH   7  21
ATOM     21  C   UNL     1      -1.265  -0.036   3.453  0.00  0.00    +0.236 C 
ATOM     22  O   UNL     1      -0.262  -0.233   4.106  0.00  0.00    -0.274 OA
ATOM     23  N   UNL     1      -1.228  -0.155   2.111  0.00  0.00    -0.302 N 
ATOM     24  H   UNL     1      -2.030   0.003   1.588  0.00  0.00    +0.150 HD
BRANCH  23  25
ATOM     25  C   UNL     1       0.023  -0.522   1.442  0.00  0.00    +0.163 C 
BRANCH  25  26
ATOM     26  C   UNL     1       0.167  -2.022   1.434  0.00  0.00    +0.231 C 
ATOM     27  O   UNL     1      -0.691  -2.716   1.938  0.00  0.00    -0.274 OA
ATOM     28  N   UNL     1       1.249  -2.592   0.867  0.00  0.00    -0.328 N 
ATOM     29  H   UNL     1       1.935  -2.037   0.465  0.00  0.00    +0.145 HD
ATOM     30  H   UNL     1       1.342  -3.558   0.863  0.00  0.00    +0.145 HD
ENDBRANCH  25  26
BRANCH  25  31
ATOM     31  C   UNL     1       0.002  -0.004   0.002  0.00  0.00    +0.067 C 
BRANCH  31  32
ATOM     32  C   UNL     1      -0.018   1.503   0.010  0.00  0.00    -0.045 A 
ATOM     33  C   UNL     1      -1.225   2.178   0.020  0.00  0.00    +0.004 A 
ATOM     34  C   UNL     1      -1.244   3.560   0.032  0.00  0.00    +0.000 A 
ATOM     35  C   UNL     1      -0.056   4.267   0.025  0.00  0.00    +0.000 A 
ATOM     36  C   UNL     1       1.151   3.592   0.010  0.00  0.00    +0.000 A 
ATOM     37  C   UNL     1       1.169   2.210   0.003  0.00  0.00    +0.004 A 
ENDBRANCH  31  32
ENDBRANCH  25  31
ENDBRANCH  23  25
ENDBRANCH   7  21
TORSDOF 9
