REMARK  Name = ZINC13242490
REMARK  9 active torsions:
REMARK  status: ('A' for Active; 'I' for Inactive)
REMARK    1  A    between atoms: C_1  and  C_2
REMARK    2  A    between atoms: C_2  and  C_3
REMARK    3  A    between atoms: C_2  and  C_4
REMARK    4  A    between atoms: C_4  and  N_5
REMARK    5  A    between atoms: C_15  and  S_16
REMARK    6  A    between atoms: S_16  and  C_17
REMARK    7  A    between atoms: C_17  and  C_18
REMARK    8  A    between atoms: N_20  and  C_21
REMARK    9  A    between atoms: C_26  and  C_27
REMARK                            x       y       z     vdW  Elec       q    Type
REMARK                         _______ _______ _______ _____ _____    ______ ____
ROOT
ATOM      1  S   UNL     1       0.913   3.706   1.009  0.00  0.00    -0.078 S 
ENDROOT
BRANCH   1  12
ATOM      2  N   UNL     1      -0.755   1.598   1.200  0.00  0.00    -0.287 N 
ATOM      3  C   UNL     1      -1.748   0.858   1.746  0.00  0.00    +0.262 A 
ATOM      4  O   UNL     1      -2.082  -0.207   1.262  0.00  0.00    -0.267 OA
ATOM      5  C   UNL     1      -2.409   1.390   2.946  0.00  0.00    +0.065 A 
ATOM      6  C   UNL     1      -3.441   0.704   3.584  0.00  0.00    +0.015 A 
ATOM      7  C   UNL     1      -4.021   1.244   4.698  0.00  0.00    +0.001 A 
ATOM      8  C   UNL     1      -3.593   2.467   5.200  0.00  0.00    +0.002 A 
ATOM      9  C   UNL     1      -2.583   3.160   4.595  0.00  0.00    +0.028 A 
ATOM     10  C   UNL     1      -1.970   2.635   3.453  0.00  0.00    +0.079 A 
ATOM     11  N   UNL     1      -0.970   3.285   2.825  0.00  0.00    -0.223 NA
ATOM     12  C   UNL     1      -0.391   2.789   1.760  0.00  0.00    +0.173 A 
BRANCH   2  13
ATOM     13  C   UNL     1      -0.062   1.115   0.003  0.00  0.00    +0.130 C 
BRANCH  13  15
ATOM     14  C   UNL     1      -0.681   3.150  -1.307  0.00  0.00    +0.009 C 
ATOM     15  C   UNL     1      -0.784   1.625  -1.246  0.00  0.00    +0.003 C 
ATOM     16  C   UNL     1      -0.137   1.020  -2.493  0.00  0.00    +0.009 C 
ENDBRANCH  13  15
ENDBRANCH   2  13
ENDBRANCH   1  12
BRANCH   1  17
ATOM     17  C   UNL     1       0.971   5.136   2.118  0.00  0.00    +0.173 C 
BRANCH  17  18
ATOM     18  C   UNL     1       2.047   6.085   1.658  0.00  0.00    +0.228 C 
ATOM     19  O   UNL     1       2.709   5.822   0.676  0.00  0.00    -0.275 OA
ATOM     20  N   UNL     1       2.273   7.227   2.336  0.00  0.00    -0.284 N 
ATOM     21  H   UNL     1       1.702   7.470   3.082  0.00  0.00    +0.155 HD
BRANCH  20  22
ATOM     22  C   UNL     1       3.327   8.060   1.967  0.00  0.00    +0.050 A 
ATOM     23  C   UNL     1       3.672   8.196   0.631  0.00  0.00    +0.062 A 
ATOM     24  C   UNL     1       4.716   9.027   0.266  0.00  0.00    +0.125 A 
ATOM     25  C   UNL     1       5.431   9.721   1.233  0.00  0.00    +0.039 A 
ATOM     26  C   UNL     1       5.104   9.593   2.564  0.00  0.00    +0.020 A 
ATOM     27  C   UNL     1       4.048   8.761   2.947  0.00  0.00    +0.084 A 
ATOM     28  F   UNL     1       5.044   9.160  -1.038  0.00  0.00    -0.205 F 
BRANCH  27  29
ATOM     29  C   UNL     1       3.694   8.620   4.369  0.00  0.00    +0.388 C 
ATOM     30  O   UNL     1       2.841   7.823   4.707  0.00  0.00    -0.241 OA
ATOM     31  O   UNL     1       4.316   9.376   5.296  0.00  0.00    -0.241 OA
ENDBRANCH  27  29
ENDBRANCH  20  22
ENDBRANCH  17  18
ENDBRANCH   1  17
TORSDOF 7
