REMARK  Name = ZINC62496733
REMARK  7 active torsions:
REMARK  status: ('A' for Active; 'I' for Inactive)
REMARK    1  A    between atoms: C_1  and  C_2
REMARK    2  A    between atoms: C_2  and  C_3
REMARK    3  A    between atoms: C_6  and  C_9
REMARK    4  A    between atoms: C_9  and  C_10
REMARK    5  A    between atoms: N_14  and  C_23
REMARK    6  A    between atoms: C_17  and  N_22
REMARK    7  A    between atoms: C_23  and  C_24
REMARK                            x       y       z     vdW  Elec       q    Type
REMARK                         _______ _______ _______ _____ _____    ______ ____
ROOT
ATOM      1  C   UNL     1       3.169  -0.668  -5.581  0.00  0.00    +0.263 C 
ATOM      2  C   UNL     1       3.982  -1.152  -6.755  0.00  0.00    +0.261 C 
ATOM      3  O   UNL     1       5.189  -1.234  -6.668  0.00  0.00    -0.271 OA
ATOM      4  N   UNL     1       3.361  -1.493  -7.904  0.00  0.00    -0.265 N 
ATOM      5  C   UNL     1       1.982  -1.272  -8.028  0.00  0.00    +0.080 A 
ATOM      6  C   UNL     1       1.277  -1.813  -9.091  0.00  0.00    +0.050 A 
ATOM      7  C   UNL     1      -0.091  -1.597  -9.193  0.00  0.00    +0.027 A 
ATOM      8  C   UNL     1      -0.748  -0.841  -8.231  0.00  0.00    +0.026 A 
ATOM      9  C   UNL     1      -0.043  -0.297  -7.173  0.00  0.00    +0.049 A 
ATOM     10  C   UNL     1       1.321  -0.505  -7.072  0.00  0.00    +0.143 A 
ATOM     11  O   UNL     1       2.028   0.053  -6.051  0.00  0.00    -0.477 OA
ENDROOT
BRANCH   7  12
ATOM     12  N   UNL     1      -0.807  -2.140 -10.265  0.00  0.00    -0.358 N 
ATOM     13  H   UNL     1      -0.348  -2.669 -10.937  0.00  0.00    +0.142 HD
ATOM     14  H   UNL     1      -1.762  -1.989 -10.336  0.00  0.00    +0.142 HD
ENDBRANCH   7  12
BRANCH   4  15
ATOM     15  C   UNL     1       4.119  -2.087  -9.008  0.00  0.00    +0.110 C 
ATOM     16  C   UNL     1       4.125  -3.610  -8.861  0.00  0.00    +0.025 C 
ENDBRANCH   4  15
BRANCH   1  17
ATOM     17  C   UNL     1       2.707  -1.868  -4.752  0.00  0.00    +0.089 C 
BRANCH  17  21
ATOM     18  C   UNL     1       0.707  -0.490  -1.238  0.00  0.00    -0.048 A 
ATOM     19  C   UNL     1      -0.011  -0.719  -2.397  0.00  0.00    +0.004 A 
ATOM     20  C   UNL     1       0.636  -1.164  -3.534  0.00  0.00    +0.004 A 
ATOM     21  C   UNL     1       2.002  -1.381  -3.513  0.00  0.00    -0.043 A 
ATOM     22  C   UNL     1       2.720  -1.152  -2.354  0.00  0.00    +0.004 A 
ATOM     23  C   UNL     1       2.073  -0.702  -1.218  0.00  0.00    +0.004 A 
BRANCH  18  25
ATOM     24  C   UNL     1      -0.019   1.526   0.010  0.00  0.00    +0.009 C 
ATOM     25  C   UNL     1       0.002  -0.004   0.002  0.00  0.00    +0.032 C 
ENDBRANCH  18  25
ENDBRANCH  17  21
ENDBRANCH   1  17
TORSDOF 5
