REMARK  Name = ZINC67620280
REMARK  13 active torsions:
REMARK  status: ('A' for Active; 'I' for Inactive)
REMARK    1  A    between atoms: C_1  and  C_2
REMARK    2  A    between atoms: N_5  and  C_8
REMARK    3  A    between atoms: C_8  and  C_9
REMARK    4  A    between atoms: C_9  and  C_11
REMARK    5  A    between atoms: C_9  and  O_29
REMARK    6  A    between atoms: C_11  and  N_12
REMARK    7  A    between atoms: N_15  and  C_16
REMARK    8  A    between atoms: C_16  and  C_18
REMARK    9  A    between atoms: C_16  and  C_19
REMARK   10  A    between atoms: C_23  and  O_25
REMARK   11  A    between atoms: O_25  and  C_26
REMARK   12  A    between atoms: C_26  and  C_27
REMARK   13  A    between atoms: C_26  and  C_28
REMARK                            x       y       z     vdW  Elec       q    Type
REMARK                         _______ _______ _______ _____ _____    ______ ____
ROOT
ATOM      1  N   UNL     1       4.393  -5.921   1.300  0.00  0.00    -0.297 N 
ATOM      2  C   UNL     1       4.724  -7.205   1.543  0.00  0.00    +0.300 C 
ATOM      3  O   UNL     1       4.263  -8.092   0.851  0.00  0.00    -0.253 OA
ATOM      4  N   UNL     1       5.566  -7.505   2.552  0.00  0.00    -0.293 N 
ATOM      5  H   UNL     1       4.761  -5.213   1.852  0.00  0.00    +0.150 HD
ATOM      6  H   UNL     1       5.934  -6.797   3.103  0.00  0.00    +0.151 HD
ENDROOT
BRANCH   4   7
ATOM      7  C   UNL     1       5.926  -8.900   2.815  0.00  0.00    +0.102 C 
ATOM      8  C   UNL     1       4.861  -9.541   3.708  0.00  0.00    +0.033 C 
BRANCH   7   9
ATOM      9  C   UNL     1       7.262  -8.952   3.510  0.00  0.00    -0.024 A 
ATOM     10  C   UNL     1       7.567  -8.025   4.490  0.00  0.00    +0.006 A 
ATOM     11  C   UNL     1       8.792  -8.070   5.130  0.00  0.00    +0.004 A 
ATOM     12  C   UNL     1       9.715  -9.041   4.791  0.00  0.00    +0.045 A 
ATOM     13  C   UNL     1       9.411  -9.972   3.808  0.00  0.00    +0.121 A 
ATOM     14  C   UNL     1       8.178  -9.928   3.172  0.00  0.00    +0.051 A 
BRANCH  13  15
ATOM     15  O   UNL     1      10.317 -10.928   3.473  0.00  0.00    -0.489 OA
BRANCH  15  16
ATOM     16  C   UNL     1      11.512 -10.991   4.252  0.00  0.00    +0.167 C 
ATOM     17  C   UNL     1      12.089 -12.406   4.188  0.00  0.00    +0.051 C 
ATOM     18  C   UNL     1      12.536  -9.998   3.698  0.00  0.00    +0.051 C 
ENDBRANCH  15  16
ENDBRANCH  13  15
ENDBRANCH   7   9
ENDBRANCH   4   7
BRANCH   1  19
ATOM     19  C   UNL     1       3.478  -5.595   0.204  0.00  0.00    +0.135 C 
BRANCH  19  20
ATOM     20  C   UNL     1       3.271  -4.080   0.146  0.00  0.00    +0.115 C 
BRANCH  20  21
ATOM     21  O   UNL     1       2.714  -3.628   1.381  0.00  0.00    -0.392 OA
ATOM     22  H   UNL     1       1.859  -4.025   1.596  0.00  0.00    +0.210 HD
ENDBRANCH  20  21
BRANCH  20  23
ATOM     23  C   UNL     1       2.315  -3.740  -1.000  0.00  0.00    -0.046 C 
BRANCH  23  28
ATOM     24  C   UNL     1       1.952   1.774  -2.410  0.00  0.00    +0.007 C 
ATOM     25  C   UNL     1       2.168   0.260  -2.462  0.00  0.00    -0.018 C 
ATOM     26  C   UNL     1       3.256  -0.136  -1.460  0.00  0.00    -0.016 C 
ATOM     27  C   UNL     1       3.412  -1.658  -1.459  0.00  0.00    -0.078 C 
ATOM     28  N   UNL     1       2.140  -2.283  -1.075  0.00  0.00    +0.381 N 
ATOM     29  C   UNL     1       1.109  -1.966  -2.070  0.00  0.00    -0.078 C 
ATOM     30  C   UNL     1       0.865  -0.456  -2.094  0.00  0.00    -0.016 C 
ATOM     31  H   UNL     1       1.854  -1.934  -0.172  0.00  0.00    -0.082 HD
ENDBRANCH  23  28
ENDBRANCH  20  23
ENDBRANCH  19  20
ENDBRANCH   1  19
TORSDOF 9
