REMARK  Name = ZINC63889915
REMARK  9 active torsions:
REMARK  status: ('A' for Active; 'I' for Inactive)
REMARK    1  A    between atoms: C_1  and  C_2
REMARK    2  A    between atoms: C_5  and  C_20
REMARK    3  A    between atoms: C_7  and  N_8
REMARK    4  A    between atoms: N_8  and  C_9
REMARK    5  A    between atoms: C_9  and  C_10
REMARK    6  A    between atoms: N_15  and  C_16
REMARK    7  A    between atoms: C_16  and  C_17
REMARK    8  A    between atoms: C_17  and  C_18
REMARK    9  A    between atoms: C_17  and  C_19
REMARK                            x       y       z     vdW  Elec       q    Type
REMARK                         _______ _______ _______ _____ _____    ______ ____
ROOT
ATOM      1  C   UNL     1       0.046  -0.745   3.682  0.00  0.00    +0.198 C 
ENDROOT
BRANCH   1   2
ATOM      2  C   UNL     1       0.043   0.230   4.830  0.00  0.00    +0.237 C 
ATOM      3  O   UNL     1       0.025   1.423   4.613  0.00  0.00    -0.274 OA
ATOM      4  N   UNL     1       0.062  -0.223   6.099  0.00  0.00    -0.239 N 
ATOM      5  C   UNL     1       0.059   0.649   7.127  0.00  0.00    +0.306 C 
ATOM      6  O   UNL     1       0.040   1.844   6.909  0.00  0.00    -0.252 OA
ATOM      7  N   UNL     1       0.077   0.195   8.396  0.00  0.00    -0.299 N 
ATOM      8  H   UNL     1       0.077  -1.178   6.273  0.00  0.00    +0.159 HD
ATOM      9  H   UNL     1       0.092  -0.759   8.570  0.00  0.00    +0.150 HD
BRANCH   7  10
ATOM     10  C   UNL     1       0.074   1.143   9.513  0.00  0.00    +0.108 C 
BRANCH  10  11
ATOM     11  C   UNL     1       0.097   0.374  10.835  0.00  0.00    -0.000 C 
ATOM     12  C   UNL     1       0.220   1.361  11.997  0.00  0.00    +0.009 C 
ATOM     13  C   UNL     1      -1.198  -0.427  10.981  0.00  0.00    +0.009 C 
ENDBRANCH  10  11
ENDBRANCH   7  10
ENDBRANCH   1   2
BRANCH   1  14
ATOM     14  N   UNL     1       0.025  -0.009   2.416  0.00  0.00    -0.335 N 
ATOM     15  H   UNL     1       0.011   0.961   2.419  0.00  0.00    +0.147 HD
BRANCH  14  22
ATOM     16  C   UNL     1      -0.018   1.503   0.010  0.00  0.00    +0.045 C 
ATOM     17  C   UNL     1       0.002  -0.004   0.002  0.00  0.00    -0.030 A 
ATOM     18  C   UNL     1       0.006  -0.686  -1.200  0.00  0.00    +0.006 A 
ATOM     19  C   UNL     1       0.024  -2.066  -1.216  0.00  0.00    +0.019 A 
ATOM     20  C   UNL     1       0.040  -2.778  -0.015  0.00  0.00    +0.054 A 
ATOM     21  C   UNL     1       0.037  -2.090   1.198  0.00  0.00    +0.042 A 
ATOM     22  C   UNL     1       0.023  -0.703   1.203  0.00  0.00    +0.032 A 
BRANCH  20  23
ATOM     23  C   UNL     1       0.059  -4.210  -0.029  0.00  0.00    +0.099 C 
ATOM     24  N   UNL     1       0.074  -5.346  -0.040  0.00  0.00    -0.191 NA
ENDBRANCH  20  23
ENDBRANCH  14  22
ENDBRANCH   1  14
TORSDOF 6
