REMARK  Name = ZINC09225290
REMARK  6 active torsions:
REMARK  status: ('A' for Active; 'I' for Inactive)
REMARK    1  A    between atoms: C_1  and  C_2
REMARK    2  A    between atoms: C_2  and  O_3
REMARK    3  A    between atoms: O_3  and  C_4
REMARK    4  A    between atoms: C_4  and  C_6
REMARK    5  A    between atoms: C_8  and  C_21
REMARK    6  A    between atoms: C_24  and  C_27
REMARK                            x       y       z     vdW  Elec       q    Type
REMARK                         _______ _______ _______ _____ _____    ______ ____
ROOT
ATOM      1  C   UNL     1       1.279   2.109   0.001  0.00  0.00    +0.210 C 
ATOM      2  C   UNL     1       0.980   3.615   0.012  0.00  0.00    +0.126 C 
ATOM      3  N   UNL     1       2.237   4.319  -0.293  0.00  0.00    -0.311 N 
ATOM      4  C   UNL     1       2.945   3.916  -1.390  0.00  0.00    +0.175 C 
ATOM      5  N   UNL     1       2.830   2.676  -1.837  0.00  0.00    -0.151 NA
ATOM      6  C   UNL     1       2.057   1.776  -1.246  0.00  0.00    +0.255 C 
ATOM      7  O   UNL     1       1.974   0.659  -1.719  0.00  0.00    -0.273 OA
ATOM      8  N   UNL     1       3.771   4.793  -2.026  0.00  0.00    -0.305 N 
ATOM      9  C   UNL     1       3.905   6.176  -1.548  0.00  0.00    +0.107 C 
ATOM     10  C   UNL     1       5.396   6.473  -1.326  0.00  0.00    +0.019 C 
ATOM     11  C   UNL     1       6.166   6.177  -2.615  0.00  0.00    +0.003 C 
ATOM     12  C   UNL     1       6.019   4.696  -2.971  0.00  0.00    +0.019 C 
ATOM     13  C   UNL     1       4.539   4.377  -3.207  0.00  0.00    +0.107 C 
ATOM     14  H   UNL     1       2.553   5.046   0.266  0.00  0.00    +0.149 HD
ENDROOT
BRANCH   2  15
ATOM     15  C   UNL     1      -0.056   3.939  -1.033  0.00  0.00    -0.026 A 
ATOM     16  C   UNL     1       0.315   4.067  -2.358  0.00  0.00    +0.006 A 
ATOM     17  C   UNL     1      -0.636   4.360  -3.317  0.00  0.00    +0.004 A 
ATOM     18  C   UNL     1      -1.957   4.533  -2.950  0.00  0.00    -0.050 A 
ATOM     19  C   UNL     1      -2.328   4.410  -1.624  0.00  0.00    +0.004 A 
ATOM     20  C   UNL     1      -1.377   4.113  -0.665  0.00  0.00    +0.006 A 
ATOM     21  C   UNL     1      -2.994   4.856  -3.995  0.00  0.00    +0.044 C 
ENDBRANCH   2  15
BRANCH   1  22
ATOM     22  C   UNL     1      -0.016   1.338   0.009  0.00  0.00    +0.321 C 
ATOM     23  O   UNL     1      -1.071   1.928   0.018  0.00  0.00    -0.250 OA
BRANCH  22  24
ATOM     24  O   UNL     1       0.002  -0.004   0.002  0.00  0.00    -0.464 OA
BRANCH  24  26
ATOM     25  C   UNL     1      -1.062  -2.195   0.000  0.00  0.00    +0.048 C 
ATOM     26  C   UNL     1      -1.282  -0.681   0.011  0.00  0.00    +0.229 C 
ENDBRANCH  24  26
ENDBRANCH  22  24
ENDBRANCH   1  22
TORSDOF 4
