REMARK  Name = ZINC39063057
REMARK  3 active torsions:
REMARK  status: ('A' for Active; 'I' for Inactive)
REMARK    1  A    between atoms: C_1  and  C_2
REMARK    2  A    between atoms: C_7  and  O_12
REMARK    3  A    between atoms: O_12  and  C_13
REMARK                            x       y       z     vdW  Elec       q    Type
REMARK                         _______ _______ _______ _____ _____    ______ ____
ROOT
ATOM      1  C   UNL     1      -0.108   1.506  -0.280  0.00  0.00    +0.028 C 
ATOM      2  C   UNL     1      -0.049  -0.017  -0.144  0.00  0.00    +0.075 C 
ATOM      3  C   UNL     1      -1.471  -0.581  -0.068  0.00  0.00    +0.022 C 
ATOM      4  C   UNL     1      -1.404  -2.085   0.206  0.00  0.00    +0.006 C 
ATOM      5  C   UNL     1      -0.714  -2.330   1.550  0.00  0.00    +0.052 C 
ATOM      6  C   UNL     1       0.716  -1.786   1.492  0.00  0.00    +0.208 C 
ATOM      7  N   UNL     1       0.672  -0.374   1.085  0.00  0.00    -0.275 N 
ATOM      8  C   UNL     1       1.277   0.574   1.827  0.00  0.00    +0.330 C 
ATOM      9  O   UNL     1       1.952   0.257   2.783  0.00  0.00    -0.279 OA
ENDROOT
BRANCH   6  10
ATOM     10  O   UNL     1       1.324  -1.897   2.781  0.00  0.00    -0.362 OA
ATOM     11  C   UNL     1       2.027  -3.123   2.989  0.00  0.00    +0.196 C 
ENDBRANCH   6  10
TORSDOF 1
