REMARK  Name = ZINC13451071
REMARK  13 active torsions:
REMARK  status: ('A' for Active; 'I' for Inactive)
REMARK    1  A    between atoms: C_1  and  C_2
REMARK    2  A    between atoms: C_3  and  C_23
REMARK    3  A    between atoms: C_7  and  S_9
REMARK    4  A    between atoms: S_9  and  C_10
REMARK    5  A    between atoms: C_10  and  C_12
REMARK    6  A    between atoms: C_10  and  C_13
REMARK    7  A    between atoms: N_18  and  C_19
REMARK    8  A    between atoms: C_19  and  C_20
REMARK    9  A    between atoms: C_19  and  C_21
REMARK   10  A    between atoms: C_19  and  C_22
REMARK   11  A    between atoms: C_23  and  C_24
REMARK   12  A    between atoms: C_24  and  C_25
REMARK   13  A    between atoms: C_25  and  O_27
REMARK                            x       y       z     vdW  Elec       q    Type
REMARK                         _______ _______ _______ _____ _____    ______ ____
ROOT
ATOM      1  C   UNL     1      -0.013   1.086   0.008  0.00  0.00    +0.066 C 
ATOM      2  C   UNL     1      -0.742   1.585  -1.213  0.00  0.00    +0.049 A 
ATOM      3  C   UNL     1      -2.090   1.794  -1.164  0.00  0.00    +0.038 A 
ATOM      4  C   UNL     1      -2.748   2.260  -2.315  0.00  0.00    +0.256 A 
ATOM      5  O   UNL     1      -3.952   2.457  -2.306  0.00  0.00    -0.267 OA
ATOM      6  N   UNL     1      -2.023   2.485  -3.431  0.00  0.00    -0.302 N 
ATOM      7  C   UNL     1      -0.680   2.259  -3.422  0.00  0.00    +0.170 A 
ATOM      8  N   UNL     1      -0.069   1.827  -2.335  0.00  0.00    -0.228 NA
ATOM      9  H   UNL     1      -2.457   2.806  -4.237  0.00  0.00    +0.171 HD
ENDROOT
BRANCH   7  10
ATOM     10  S   UNL     1       0.259   2.556  -4.883  0.00  0.00    -0.075 S 
BRANCH  10  11
ATOM     11  C   UNL     1       1.957   2.127  -4.409  0.00  0.00    +0.137 C 
ATOM     12  C   UNL     1       2.446   3.098  -3.332  0.00  0.00    +0.029 C 
BRANCH  11  13
ATOM     13  C   UNL     1       2.854   2.221  -5.615  0.00  0.00    +0.233 C 
ATOM     14  O   UNL     1       2.553   2.944  -6.540  0.00  0.00    -0.274 OA
ATOM     15  N   UNL     1       3.992   1.500  -5.666  0.00  0.00    -0.239 N 
ATOM     16  C   UNL     1       4.795   1.584  -6.745  0.00  0.00    +0.306 C 
ATOM     17  O   UNL     1       4.493   2.309  -7.673  0.00  0.00    -0.252 OA
ATOM     18  N   UNL     1       5.933   0.864  -6.796  0.00  0.00    -0.294 N 
ATOM     19  H   UNL     1       4.234   0.922  -4.926  0.00  0.00    +0.159 HD
ATOM     20  H   UNL     1       6.175   0.285  -6.056  0.00  0.00    +0.151 HD
BRANCH  18  21
ATOM     21  C   UNL     1       6.806   0.955  -7.970  0.00  0.00    +0.028 C 
ATOM     22  C   UNL     1       7.275   2.401  -8.145  0.00  0.00    +0.031 C 
ATOM     23  C   UNL     1       8.020   0.045  -7.774  0.00  0.00    +0.031 C 
ATOM     24  C   UNL     1       6.034   0.514  -9.215  0.00  0.00    +0.031 C 
ENDBRANCH  18  21
ENDBRANCH  11  13
ENDBRANCH  10  11
ENDBRANCH   7  10
BRANCH   3  25
ATOM     25  C   UNL     1      -2.860   1.528   0.104  0.00  0.00    +0.053 C 
BRANCH  25  26
ATOM     26  C   UNL     1      -3.002   2.829   0.897  0.00  0.00    +0.125 C 
BRANCH  26  27
ATOM     27  C   UNL     1      -3.772   2.564   2.165  0.00  0.00    +0.305 C 
ATOM     28  O   UNL     1      -4.167   1.448   2.409  0.00  0.00    -0.251 OA
BRANCH  27  29
ATOM     29  O   UNL     1      -4.019   3.566   3.022  0.00  0.00    -0.481 OA
ATOM     30  H   UNL     1      -4.519   3.300   3.806  0.00  0.00    +0.295 HD
ENDBRANCH  27  29
ENDBRANCH  26  27
ENDBRANCH  25  26
ENDBRANCH   3  25
TORSDOF 8
