REMARK  Name = ZINC18199065
REMARK  6 active torsions:
REMARK  status: ('A' for Active; 'I' for Inactive)
REMARK    1  A    between atoms: C_1  and  O_2
REMARK    2  A    between atoms: O_2  and  C_3
REMARK    3  A    between atoms: C_6  and  C_11
REMARK    4  A    between atoms: C_8  and  O_9
REMARK    5  A    between atoms: O_9  and  C_10
REMARK    6  A    between atoms: C_16  and  C_25
REMARK                            x       y       z     vdW  Elec       q    Type
REMARK                         _______ _______ _______ _____ _____    ______ ____
ROOT
ATOM      1  C   UNL     1      -5.117   3.490  -3.386  0.00  0.00    +0.032 C 
ATOM      2  C   UNL     1      -5.175   2.325  -2.397  0.00  0.00    +0.060 C 
ATOM      3  C   UNL     1      -4.417   2.687  -1.141  0.00  0.00    +0.020 C 
ATOM      4  C   UNL     1      -3.346   3.507  -1.190  0.00  0.00    +0.041 C 
ATOM      5  C   UNL     1      -2.553   3.868   0.047  0.00  0.00    +0.175 C 
ATOM      6  N   UNL     1      -3.299   3.498   1.243  0.00  0.00    -0.219 N 
ATOM      7  C   UNL     1      -4.380   2.681   1.225  0.00  0.00    +0.220 A 
ATOM      8  N   UNL     1      -4.808   2.546   2.451  0.00  0.00    -0.180 NA
ATOM      9  C   UNL     1      -4.032   3.261   3.277  0.00  0.00    +0.233 A 
ATOM     10  N   UNL     1      -3.095   3.860   2.574  0.00  0.00    -0.132 NA
ATOM     11  N   UNL     1      -4.191   3.355   4.660  0.00  0.00    -0.326 N 
ATOM     12  N   UNL     1      -4.862   2.146   0.042  0.00  0.00    -0.287 N 
ATOM     13  C   UNL     1      -2.921   4.067  -2.408  0.00  0.00    +0.164 C 
ATOM     14  O   UNL     1      -1.947   4.793  -2.420  0.00  0.00    -0.292 OA
ATOM     15  C   UNL     1      -3.645   3.788  -3.695  0.00  0.00    +0.088 C 
ATOM     16  H   UNL     1      -4.913   2.877   5.099  0.00  0.00    +0.145 HD
ATOM     17  H   UNL     1      -3.581   3.897   5.184  0.00  0.00    +0.145 HD
ATOM     18  H   UNL     1      -5.494   1.410   0.047  0.00  0.00    +0.155 HD
ENDROOT
BRANCH   5  19
ATOM     19  C   UNL     1      -1.238   3.133   0.030  0.00  0.00    -0.018 A 
ATOM     20  C   UNL     1      -1.219   1.751   0.017  0.00  0.00    +0.007 A 
ATOM     21  C   UNL     1      -0.013   1.076   0.008  0.00  0.00    +0.015 A 
ATOM     22  C   UNL     1       1.176   1.784   0.000  0.00  0.00    +0.018 A 
ATOM     23  C   UNL     1       1.156   3.167   0.007  0.00  0.00    +0.015 A 
ATOM     24  C   UNL     1      -0.050   3.841   0.022  0.00  0.00    +0.007 A 
ATOM     25 BR   UNL     1       2.826   0.861  -0.020  0.00  0.00    -0.050 Br
ENDBRANCH   5  19
BRANCH   1  29
ATOM     26  C   UNL     1      -7.159   2.424  -6.989  0.00  0.00    +0.161 A 
ATOM     27  C   UNL     1      -6.082   1.670  -6.550  0.00  0.00    +0.049 A 
ATOM     28  C   UNL     1      -5.423   2.018  -5.385  0.00  0.00    +0.008 A 
ATOM     29  C   UNL     1      -5.837   3.117  -4.655  0.00  0.00    -0.040 A 
ATOM     30  C   UNL     1      -6.914   3.870  -5.084  0.00  0.00    +0.053 A 
ATOM     31  C   UNL     1      -7.575   3.530  -6.254  0.00  0.00    +0.162 A 
BRANCH  26  33
ATOM     32  C   UNL     1      -7.325   0.936  -8.837  0.00  0.00    +0.277 C 
ATOM     33  O   UNL     1      -7.807   2.084  -8.134  0.00  0.00    -0.491 OA
ENDBRANCH  26  33
BRANCH  31  34
ATOM     34  O   UNL     1      -8.631   4.273  -6.681  0.00  0.00    -0.491 OA
ATOM     35  C   UNL     1      -9.002   5.394  -5.876  0.00  0.00    +0.277 C 
ENDBRANCH  31  34
ENDBRANCH   1  29
TORSDOF 4
