REMARK  Name = ZINC31641529
REMARK  9 active torsions:
REMARK  status: ('A' for Active; 'I' for Inactive)
REMARK    1  A    between atoms: C_1  and  C_2
REMARK    2  A    between atoms: C_2  and  C_3
REMARK    3  A    between atoms: C_3  and  C_4
REMARK    4  A    between atoms: C_4  and  C_5
REMARK    5  A    between atoms: C_5  and  C_27
REMARK    6  A    between atoms: N_8  and  C_12
REMARK    7  A    between atoms: C_12  and  C_13
REMARK    8  A    between atoms: N_15  and  C_16
REMARK    9  A    between atoms: C_17  and  C_24
REMARK                            x       y       z     vdW  Elec       q    Type
REMARK                         _______ _______ _______ _____ _____    ______ ____
ROOT
ATOM      1  C   UNL     1      -5.708  -0.274  -7.253  0.00  0.00    +0.138 C 
ATOM      2  C   UNL     1      -5.003   0.700  -6.329  0.00  0.00    +0.251 C 
ATOM      3  O   UNL     1      -5.334   1.837  -6.072  0.00  0.00    -0.272 OA
ATOM      4  N   UNL     1      -3.930   0.037  -5.853  0.00  0.00    -0.215 N 
ATOM      5  C   UNL     1      -3.858  -1.204  -6.346  0.00  0.00    +0.310 C 
ATOM      6  O   UNL     1      -2.976  -1.992  -6.066  0.00  0.00    -0.252 OA
ATOM      7  N   UNL     1      -4.873  -1.485  -7.183  0.00  0.00    -0.281 N 
ATOM      8  H   UNL     1      -5.150  -2.378  -7.762  0.00  0.00    +0.152 HD
ENDROOT
BRANCH   1   9
ATOM      9  C   UNL     1      -7.102  -0.561  -6.755  0.00  0.00    -0.015 A 
ATOM     10  C   UNL     1      -8.161   0.219  -7.180  0.00  0.00    +0.009 A 
ATOM     11  C   UNL     1      -9.440  -0.047  -6.729  0.00  0.00    +0.039 A 
ATOM     12  C   UNL     1      -9.658  -1.089  -5.843  0.00  0.00    +0.123 A 
ATOM     13  C   UNL     1      -8.595  -1.866  -5.414  0.00  0.00    +0.039 A 
ATOM     14  C   UNL     1      -7.318  -1.601  -5.871  0.00  0.00    +0.009 A 
ATOM     15  F   UNL     1     -10.907  -1.346  -5.397  0.00  0.00    -0.205 F 
ENDBRANCH   1   9
BRANCH   1  16
ATOM     16  C   UNL     1      -5.750   0.274  -8.681  0.00  0.00    +0.040 C 
BRANCH  16  17
ATOM     17  C   UNL     1      -4.325   0.390  -9.225  0.00  0.00    +0.003 C 
BRANCH  17  19
ATOM     18  C   UNL     1      -2.942   1.053 -11.197  0.00  0.00    +0.004 C 
ATOM     19  C   UNL     1      -4.367   0.937 -10.653  0.00  0.00    -0.003 C 
ENDBRANCH  17  19
ENDBRANCH  16  17
ENDBRANCH   1  16
BRANCH   4  20
ATOM     20  C   UNL     1      -2.960   0.608  -4.915  0.00  0.00    +0.214 C 
BRANCH  20  21
ATOM     21  C   UNL     1      -3.404   0.332  -3.502  0.00  0.00    +0.236 C 
ATOM     22  O   UNL     1      -4.429  -0.282  -3.298  0.00  0.00    -0.274 OA
ATOM     23  N   UNL     1      -2.660   0.767  -2.465  0.00  0.00    -0.278 N 
ATOM     24  H   UNL     1      -1.730   1.323  -2.651  0.00  0.00    +0.155 HD
BRANCH  23  25
ATOM     25  C   UNL     1      -3.069   0.512  -1.165  0.00  0.00    +0.084 A 
ATOM     26  C   UNL     1      -2.447   0.874   0.018  0.00  0.00    +0.068 A 
ATOM     27  C   UNL     1      -3.089   0.474   1.270  0.00  0.00    -0.023 A 
ATOM     28  C   UNL     1      -4.241  -0.206   1.129  0.00  0.00    -0.004 A 
ATOM     29  S   UNL     1      -4.479  -0.333  -0.626  0.00  0.00    -0.077 S 
ATOM     30  C   UNL     1      -4.842  -0.579   2.458  0.00  0.00    +0.043 C 
ATOM     31  C   UNL     1      -3.679  -0.420   3.467  0.00  0.00    +0.010 C 
ATOM     32  C   UNL     1      -2.800   0.632   2.763  0.00  0.00    +0.037 C 
BRANCH  26  33
ATOM     33  C   UNL     1      -1.187   1.624   0.017  0.00  0.00    +0.244 C 
ATOM     34  O   UNL     1      -1.204   2.841   0.023  0.00  0.00    -0.270 OA
ATOM     35  N   UNL     1      -0.011   0.966   0.007  0.00  0.00    -0.325 N 
ATOM     36  H   UNL     1       0.934   1.529   0.006  0.00  0.00    +0.145 HD
ATOM     37  H   UNL     1       0.004  -0.134   0.001  0.00  0.00    +0.145 HD
ENDBRANCH  26  33
ENDBRANCH  23  25
ENDBRANCH  20  21
ENDBRANCH   4  20
TORSDOF 8
