REMARK  Name = ZINC18271203
REMARK  9 active torsions:
REMARK  status: ('A' for Active; 'I' for Inactive)
REMARK    1  A    between atoms: C_1  and  C_2
REMARK    2  A    between atoms: C_2  and  C_3
REMARK    3  A    between atoms: C_2  and  C_4
REMARK    4  A    between atoms: C_4  and  C_6
REMARK    5  A    between atoms: C_4  and  N_24
REMARK    6  A    between atoms: C_6  and  O_8
REMARK    7  A    between atoms: O_8  and  C_9
REMARK    8  A    between atoms: C_9  and  C_10
REMARK    9  A    between atoms: C_25  and  C_27
REMARK                            x       y       z     vdW  Elec       q    Type
REMARK                         _______ _______ _______ _____ _____    ______ ____
ROOT
ATOM      1  O   UNL     1      -1.600  -0.774  -1.810  0.00  0.00    -0.455 OA
ENDROOT
BRANCH   1   2
ATOM      2  C   UNL     1      -2.732  -1.402  -2.166  0.00  0.00    +0.328 C 
ATOM      3  O   UNL     1      -3.439  -1.898  -1.320  0.00  0.00    -0.249 OA
BRANCH   2   4
ATOM      4  C   UNL     1      -3.122  -1.489  -3.619  0.00  0.00    +0.185 C 
BRANCH   4   5
ATOM      5  N   UNL     1      -4.387  -2.217  -3.743  0.00  0.00    -0.298 N 
ATOM      6  C   UNL     1      -4.687  -2.855  -4.892  0.00  0.00    +0.246 C 
ATOM      7  O   UNL     1      -3.908  -2.826  -5.825  0.00  0.00    -0.270 OA
ATOM      8  H   UNL     1      -5.008  -2.240  -2.999  0.00  0.00    +0.150 HD
BRANCH   6   9
ATOM      9  C   UNL     1      -5.963  -3.590  -5.017  0.00  0.00    +0.055 A 
ATOM     10  C   UNL     1      -6.857  -3.630  -3.945  0.00  0.00    +0.014 A 
ATOM     11  C   UNL     1      -8.049  -4.312  -4.071  0.00  0.00    +0.001 A 
ATOM     12  C   UNL     1      -8.355  -4.966  -5.251  0.00  0.00    +0.001 A 
ATOM     13  C   UNL     1      -7.473  -4.936  -6.315  0.00  0.00    +0.021 A 
ATOM     14  C   UNL     1      -6.278  -4.252  -6.206  0.00  0.00    +0.053 A 
ATOM     15 CL   UNL     1      -5.170  -4.215  -7.542  0.00  0.00    -0.083 Cl
ENDBRANCH   6   9
ENDBRANCH   4   5
BRANCH   4  17
ATOM     16  C   UNL     1      -1.966   0.682  -4.058  0.00  0.00    +0.009 C 
ATOM     17  C   UNL     1      -3.287  -0.078  -4.188  0.00  0.00    +0.014 C 
ATOM     18  C   UNL     1      -3.682  -0.166  -5.663  0.00  0.00    +0.009 C 
ENDBRANCH   4  17
ENDBRANCH   2   4
ENDBRANCH   1   2
BRANCH   1  19
ATOM     19  C   UNL     1      -1.289  -0.729  -0.393  0.00  0.00    +0.308 C 
BRANCH  19  20
ATOM     20  C   UNL     1       0.009   0.010  -0.187  0.00  0.00    +0.170 A 
ATOM     21  N   UNL     1       1.145  -0.664  -0.195  0.00  0.00    -0.214 NA
ATOM     22  C   UNL     1       2.316  -0.074  -0.019  0.00  0.00    +0.128 A 
ATOM     23  C   UNL     1       2.358   1.333   0.184  0.00  0.00    +0.051 A 
ATOM     24  C   UNL     1       3.523   2.194   0.398  0.00  0.00    -0.025 A 
ATOM     25  C   UNL     1       3.287   3.511   0.566  0.00  0.00    -0.004 A 
ATOM     26  S   UNL     1       1.527   3.684   0.452  0.00  0.00    -0.073 S 
ATOM     27  C   UNL     1       1.108   1.983   0.179  0.00  0.00    +0.114 A 
ATOM     28  N   UNL     1      -0.015   1.316  -0.003  0.00  0.00    -0.221 NA
ATOM     29  C   UNL     1       4.299   4.591   0.800  0.00  0.00    +0.043 C 
ATOM     30  C   UNL     1       5.629   3.933   1.193  0.00  0.00    +0.005 C 
ATOM     31  C   UNL     1       5.926   2.799   0.206  0.00  0.00    +0.005 C 
ATOM     32  C   UNL     1       4.947   1.646   0.432  0.00  0.00    +0.037 C 
ATOM     33  N   UNL     1       3.483  -0.816  -0.035  0.00  0.00    -0.343 N 
ATOM     34  H   UNL     1       3.481  -1.716  -0.395  0.00  0.00    +0.144 HD
ATOM     35  H   UNL     1       4.304  -0.435   0.315  0.00  0.00    +0.144 HD
ENDBRANCH  19  20
ENDBRANCH   1  19
TORSDOF 7
