REMARK  Name = ZINC43713249
REMARK  8 active torsions:
REMARK  status: ('A' for Active; 'I' for Inactive)
REMARK    1  A    between atoms: C_1  and  N_2
REMARK    2  A    between atoms: N_2  and  C_3
REMARK    3  A    between atoms: N_2  and  S_4
REMARK    4  A    between atoms: S_4  and  C_7
REMARK    5  A    between atoms: C_10  and  C_12
REMARK    6  A    between atoms: C_12  and  N_13
REMARK    7  A    between atoms: N_16  and  C_17
REMARK    8  A    between atoms: C_20  and  C_23
REMARK                            x       y       z     vdW  Elec       q    Type
REMARK                         _______ _______ _______ _____ _____    ______ ____
ROOT
ATOM      1  N   UNL     1      -4.795  -1.455  -5.565  0.00  0.00    -0.295 N 
ATOM      2  C   UNL     1      -5.558  -1.359  -6.671  0.00  0.00    +0.304 C 
ATOM      3  O   UNL     1      -5.137  -0.777  -7.652  0.00  0.00    -0.252 OA
ATOM      4  N   UNL     1      -6.789  -1.908  -6.691  0.00  0.00    -0.269 N 
ATOM      5  H   UNL     1      -5.131  -1.920  -4.782  0.00  0.00    +0.151 HD
ATOM      6  H   UNL     1      -7.099  -2.429  -5.934  0.00  0.00    +0.156 HD
ENDROOT
BRANCH   4   7
ATOM      7  C   UNL     1      -7.616  -1.726  -7.798  0.00  0.00    +0.035 A 
ATOM      8  C   UNL     1      -7.065  -1.678  -9.075  0.00  0.00    +0.024 A 
ATOM      9  C   UNL     1      -7.879  -1.499 -10.171  0.00  0.00    +0.015 A 
ATOM     10  C   UNL     1      -9.259  -1.367 -10.000  0.00  0.00    +0.037 A 
ATOM     11  C   UNL     1      -9.809  -1.416  -8.716  0.00  0.00    +0.015 A 
ATOM     12  C   UNL     1      -8.991  -1.600  -7.625  0.00  0.00    +0.024 A 
BRANCH  10  13
ATOM     13  C   UNL     1     -10.135  -1.174 -11.172  0.00  0.00    +0.242 C 
ATOM     14  O   UNL     1      -9.655  -1.131 -12.289  0.00  0.00    -0.270 OA
ATOM     15  N   UNL     1     -11.466  -1.046 -11.006  0.00  0.00    -0.325 N 
ATOM     16  H   UNL     1     -11.849  -1.080 -10.115  0.00  0.00    +0.145 HD
ATOM     17  H   UNL     1     -12.041  -0.919 -11.777  0.00  0.00    +0.145 HD
ENDBRANCH  10  13
ENDBRANCH   4   7
BRANCH   1  18
ATOM     18  C   UNL     1      -3.457  -0.859  -5.544  0.00  0.00    +0.148 C 
BRANCH  18  22
ATOM     19  C   UNL     1      -1.873  -1.139  -1.676  0.00  0.00    +0.143 A 
ATOM     20  C   UNL     1      -1.563  -2.164  -2.507  0.00  0.00    +0.037 A 
ATOM     21  C   UNL     1      -2.048  -2.147  -3.801  0.00  0.00    +0.015 A 
ATOM     22  C   UNL     1      -2.817  -1.105  -4.202  0.00  0.00    +0.009 A 
ATOM     23  S   UNL     1      -2.883  -0.106  -2.724  0.00  0.00    -0.072 S 
BRANCH  19  24
ATOM     24  S   UNL     1      -1.405  -0.893   0.005  0.00  0.00    +0.067 S 
ATOM     25  O   UNL     1      -1.108  -2.177   0.536  0.00  0.00    -0.152 OA
ATOM     26  O   UNL     1      -2.386  -0.040   0.579  0.00  0.00    -0.152 OA
BRANCH  24  28
ATOM     27  C   UNL     1      -0.007   1.422   0.018  0.00  0.00    +0.131 C 
ATOM     28  N   UNL     1       0.016  -0.043  -0.001  0.00  0.00    -0.182 NA
ATOM     29  C   UNL     1       1.296  -0.756  -0.026  0.00  0.00    +0.131 C 
ENDBRANCH  24  28
ENDBRANCH  19  24
ENDBRANCH  18  22
ENDBRANCH   1  18
TORSDOF 6
