REMARK  Name = ZINC05973784
REMARK  3 active torsions:
REMARK  status: ('A' for Active; 'I' for Inactive)
REMARK    1  A    between atoms: C_6  and  C_19
REMARK    2  A    between atoms: C_7  and  N_9
REMARK    3  A    between atoms: C_10  and  C_12
REMARK                            x       y       z     vdW  Elec       q    Type
REMARK                         _______ _______ _______ _____ _____    ______ ____
ROOT
ATOM      1  N   UNL     1      -1.962   6.945  -1.641  0.00  0.00    -0.274 N 
ATOM      2  C   UNL     1      -2.275   7.221  -2.923  0.00  0.00    +0.264 C 
ATOM      3  O   UNL     1      -2.257   6.336  -3.758  0.00  0.00    -0.268 OA
ATOM      4  H   UNL     1      -1.976   7.651  -0.976  0.00  0.00    +0.156 HD
ENDROOT
BRANCH   1  11
ATOM      5  C   UNL     1      -0.735   1.583   1.264  0.00  0.00    +0.005 C 
ATOM      6  C   UNL     1      -0.013   1.086   0.008  0.00  0.00    +0.005 C 
ATOM      7  C   UNL     1      -0.761   1.597  -1.232  0.00  0.00    +0.043 C 
ATOM      8  C   UNL     1      -1.032   3.059  -1.049  0.00  0.00    -0.004 A 
ATOM      9  C   UNL     1      -0.951   3.765   0.100  0.00  0.00    -0.018 A 
ATOM     10  C   UNL     1      -1.270   5.178  -0.019  0.00  0.00    +0.084 A 
ATOM     11  C   UNL     1      -1.619   5.653  -1.275  0.00  0.00    +0.090 A 
ATOM     12  S   UNL     1      -1.523   4.240  -2.273  0.00  0.00    -0.077 S 
ATOM     13  C   UNL     1      -0.551   3.093   1.408  0.00  0.00    +0.037 C 
BRANCH  10  14
ATOM     14  C   UNL     1      -1.225   6.047   1.118  0.00  0.00    +0.102 C 
ATOM     15  N   UNL     1      -1.190   6.736   2.020  0.00  0.00    -0.191 NA
ENDBRANCH  10  14
ENDBRANCH   1  11
BRANCH   2  16
ATOM     16  C   UNL     1      -2.637   8.588  -3.311  0.00  0.00    +0.121 C 
ATOM     17  N   UNL     1      -2.654   9.525  -2.414  0.00  0.00    -0.180 NA
ATOM     18  N   UNL     1      -2.996  10.839  -2.747  0.00  0.00    -0.207 N 
ATOM     19  C   UNL     1      -3.676  11.101  -3.881  0.00  0.00    +0.233 C 
ATOM     20  O   UNL     1      -3.975  12.242  -4.162  0.00  0.00    -0.274 OA
ATOM     21  C   UNL     1      -4.064   9.969  -4.798  0.00  0.00    +0.104 C 
ATOM     22  C   UNL     1      -2.979   8.887  -4.747  0.00  0.00    +0.071 C 
ATOM     23  H   UNL     1      -2.743  11.568  -2.158  0.00  0.00    +0.177 HD
ENDBRANCH   2  16
TORSDOF 3
