REMARK  Name = ZINC05561680
REMARK  7 active torsions:
REMARK  status: ('A' for Active; 'I' for Inactive)
REMARK    1  A    between atoms: C_1  and  C_2
REMARK    2  A    between atoms: C_5  and  O_9
REMARK    3  A    between atoms: O_9  and  C_10
REMARK    4  A    between atoms: C_18  and  C_20
REMARK    5  A    between atoms: C_24  and  O_27
REMARK    6  A    between atoms: C_25  and  O_26
REMARK    7  A    between atoms: O_27  and  C_28
REMARK                            x       y       z     vdW  Elec       q    Type
REMARK                         _______ _______ _______ _____ _____    ______ ____
ROOT
ATOM      1  C   UNL     1      -0.742  -4.929  -1.316  0.00  0.00    +0.232 A 
ATOM      2  C   UNL     1      -0.084  -6.182  -1.296  0.00  0.00    +0.062 A 
ATOM      3  C   UNL     1      -0.050  -6.984  -0.150  0.00  0.00    +0.015 A 
ATOM      4  C   UNL     1       0.598  -8.184  -0.188  0.00  0.00    +0.001 A 
ATOM      5  C   UNL     1       1.226  -8.621  -1.351  0.00  0.00    +0.002 A 
ATOM      6  C   UNL     1       1.212  -7.864  -2.484  0.00  0.00    +0.028 A 
ATOM      7  C   UNL     1       0.555  -6.625  -2.481  0.00  0.00    +0.078 A 
ATOM      8  N   UNL     1       0.512  -5.844  -3.568  0.00  0.00    -0.227 NA
ATOM      9  C   UNL     1      -0.116  -4.683  -3.532  0.00  0.00    +0.168 A 
ATOM     10  N   UNL     1      -0.733  -4.233  -2.440  0.00  0.00    -0.192 NA
ENDROOT
BRANCH   9  11
ATOM     11  C   UNL     1      -0.140  -3.850  -4.756  0.00  0.00    +0.064 A 
ATOM     12  C   UNL     1      -0.353  -4.441  -6.002  0.00  0.00    +0.015 A 
ATOM     13  C   UNL     1      -0.374  -3.663  -7.140  0.00  0.00    +0.004 A 
ATOM     14  C   UNL     1      -0.185  -2.295  -7.055  0.00  0.00    +0.049 A 
ATOM     15  C   UNL     1       0.028  -1.695  -5.825  0.00  0.00    +0.162 A 
ATOM     16  C   UNL     1       0.046  -2.468  -4.668  0.00  0.00    +0.169 A 
BRANCH  16  17
ATOM     17  O   UNL     1       0.248  -1.882  -3.459  0.00  0.00    -0.503 OA
ATOM     18  H   UNL     1       1.168  -1.905  -3.160  0.00  0.00    +0.292 HD
ENDBRANCH  16  17
BRANCH  15  19
ATOM     19  O   UNL     1       0.214  -0.350  -5.747  0.00  0.00    -0.491 OA
ATOM     20  C   UNL     1       0.178   0.382  -6.973  0.00  0.00    +0.277 C 
ENDBRANCH  15  19
ENDBRANCH   9  11
BRANCH   1  21
ATOM     21  O   UNL     1      -1.367  -4.457  -0.214  0.00  0.00    -0.436 OA
BRANCH  21  26
ATOM     22  C   UNL     1      -6.689  -2.688  -0.748  0.00  0.00    +0.044 C 
ATOM     23  C   UNL     1      -5.266  -3.161  -0.604  0.00  0.00    -0.049 A 
ATOM     24  C   UNL     1      -4.628  -3.764  -1.673  0.00  0.00    +0.007 A 
ATOM     25  C   UNL     1      -3.323  -4.198  -1.545  0.00  0.00    +0.048 A 
ATOM     26  C   UNL     1      -2.651  -4.029  -0.342  0.00  0.00    +0.149 A 
ATOM     27  C   UNL     1      -3.293  -3.424   0.729  0.00  0.00    +0.083 A 
ATOM     28  C   UNL     1      -4.598  -2.986   0.593  0.00  0.00    +0.027 A 
ATOM     29 CL   UNL     1      -2.457  -3.210   2.235  0.00  0.00    -0.080 Cl
ENDBRANCH  21  26
ENDBRANCH   1  21
TORSDOF 5
