REMARK  Name = ZINC36556614
REMARK  10 active torsions:
REMARK  status: ('A' for Active; 'I' for Inactive)
REMARK    1  A    between atoms: C_1  and  C_2
REMARK    2  A    between atoms: C_2  and  O_39
REMARK    3  A    between atoms: C_6  and  C_30
REMARK    4  A    between atoms: C_8  and  C_21
REMARK    5  A    between atoms: C_10  and  C_12
REMARK    6  A    between atoms: N_14  and  C_15
REMARK    7  A    between atoms: C_24  and  O_29
REMARK    8  A    between atoms: C_25  and  O_27
REMARK    9  A    between atoms: O_27  and  C_28
REMARK   10  A    between atoms: N_32  and  C_33
REMARK                            x       y       z     vdW  Elec       q    Type
REMARK                         _______ _______ _______ _____ _____    ______ ____
ROOT
ATOM      1  C   UNL     1      -0.198   0.240   0.904  0.00  0.00    +0.042 C 
ATOM      2  C   UNL     1       0.387  -1.166   0.755  0.00  0.00    +0.082 C 
ATOM      3  C   UNL     1      -0.748  -2.173   0.544  0.00  0.00    +0.110 C 
ATOM      4  C   UNL     1      -0.160  -3.566   0.533  0.00  0.00    +0.148 C 
ATOM      5  O   UNL     1      -0.405  -4.335  -0.365  0.00  0.00    -0.296 OA
ATOM      6  C   UNL     1       0.744  -3.972   1.676  0.00  0.00    +0.149 C 
ATOM      7  C   UNL     1       1.826  -2.900   1.846  0.00  0.00    +0.053 C 
ATOM      8  C   UNL     1       1.163  -1.532   2.021  0.00  0.00    +0.115 C 
ENDROOT
BRANCH   7   9
ATOM      9  C   UNL     1       2.659  -3.214   3.061  0.00  0.00    -0.039 A 
ATOM     10  C   UNL     1       2.118  -3.069   4.325  0.00  0.00    +0.008 A 
ATOM     11  C   UNL     1       2.878  -3.356   5.443  0.00  0.00    +0.049 A 
ATOM     12  C   UNL     1       4.186  -3.792   5.299  0.00  0.00    +0.158 A 
ATOM     13  C   UNL     1       4.731  -3.939   4.027  0.00  0.00    +0.162 A 
ATOM     14  C   UNL     1       3.961  -3.654   2.910  0.00  0.00    +0.053 A 
BRANCH  13  15
ATOM     15  O   UNL     1       6.013  -4.366   3.880  0.00  0.00    -0.491 OA
ATOM     16  C   UNL     1       6.505  -4.494   2.545  0.00  0.00    +0.277 C 
ENDBRANCH  13  15
BRANCH  12  17
ATOM     17  O   UNL     1       4.935  -4.074   6.398  0.00  0.00    -0.503 OA
ATOM     18  H   UNL     1       4.871  -4.993   6.692  0.00  0.00    +0.292 HD
ENDBRANCH  12  17
ENDBRANCH   7   9
BRANCH   8  19
ATOM     19  C   UNL     1       0.216  -1.582   3.192  0.00  0.00    +0.224 C 
ATOM     20  O   UNL     1      -0.893  -2.053   3.056  0.00  0.00    -0.275 OA
ATOM     21  N   UNL     1       0.602  -1.102   4.392  0.00  0.00    -0.285 N 
ATOM     22  H   UNL     1       1.468  -0.676   4.488  0.00  0.00    +0.155 HD
BRANCH  21  23
ATOM     23  C   UNL     1      -0.248  -1.219   5.497  0.00  0.00    +0.033 A 
ATOM     24  C   UNL     1      -1.617  -1.356   5.312  0.00  0.00    +0.023 A 
ATOM     25  C   UNL     1      -2.453  -1.471   6.406  0.00  0.00    +0.002 A 
ATOM     26  C   UNL     1      -1.927  -1.449   7.684  0.00  0.00    +0.000 A 
ATOM     27  C   UNL     1      -0.564  -1.312   7.873  0.00  0.00    +0.002 A 
ATOM     28  C   UNL     1       0.278  -1.203   6.783  0.00  0.00    +0.023 A 
ENDBRANCH  21  23
ENDBRANCH   8  19
BRANCH   6  29
ATOM     29  C   UNL     1      -0.062  -4.087   2.944  0.00  0.00    +0.228 C 
ATOM     30  O   UNL     1       0.497  -4.269   4.004  0.00  0.00    -0.275 OA
ATOM     31  N   UNL     1      -1.406  -3.989   2.898  0.00  0.00    -0.285 N 
ATOM     32  H   UNL     1      -1.859  -3.919   2.043  0.00  0.00    +0.155 HD
BRANCH  31  33
ATOM     33  C   UNL     1      -2.147  -3.986   4.085  0.00  0.00    +0.033 A 
ATOM     34  C   UNL     1      -1.502  -3.864   5.309  0.00  0.00    +0.023 A 
ATOM     35  C   UNL     1      -2.237  -3.862   6.478  0.00  0.00    +0.002 A 
ATOM     36  C   UNL     1      -3.614  -3.982   6.431  0.00  0.00    +0.000 A 
ATOM     37  C   UNL     1      -4.259  -4.104   5.215  0.00  0.00    +0.002 A 
ATOM     38  C   UNL     1      -3.531  -4.100   4.041  0.00  0.00    +0.023 A 
ENDBRANCH  31  33
ENDBRANCH   6  29
BRANCH   2  39
ATOM     39  O   UNL     1       1.268  -1.198  -0.370  0.00  0.00    -0.388 OA
ATOM     40  H   UNL     1       0.843  -0.976  -1.209  0.00  0.00    +0.210 HD
ENDBRANCH   2  39
TORSDOF 8
