REMARK  Name = ZINC53105924
REMARK  6 active torsions:
REMARK  status: ('A' for Active; 'I' for Inactive)
REMARK    1  A    between atoms: C_1  and  C_2
REMARK    2  A    between atoms: C_7  and  C_9
REMARK    3  A    between atoms: C_7  and  N_11
REMARK    4  A    between atoms: C_9  and  O_10
REMARK    5  A    between atoms: C_12  and  C_14
REMARK    6  A    between atoms: C_14  and  N_15
REMARK                            x       y       z     vdW  Elec       q    Type
REMARK                         _______ _______ _______ _____ _____    ______ ____
ROOT
ATOM      1  N   UNL     1      -0.033   1.383   2.572  0.00  0.00    -0.306 N 
ATOM      2  C   UNL     1       0.997   2.251   2.538  0.00  0.00    +0.235 C 
ATOM      3  O   UNL     1       2.138   1.839   2.532  0.00  0.00    -0.274 OA
ATOM      4  H   UNL     1      -0.943   1.713   2.646  0.00  0.00    +0.149 HD
ENDROOT
BRANCH   1  10
ATOM      5  C   UNL     1      -0.274   1.537   0.089  0.00  0.00    +0.007 C 
ATOM      6  C   UNL     1      -0.010   0.032   0.010  0.00  0.00    -0.012 C 
ATOM      7  C   UNL     1      -1.336  -0.724   0.105  0.00  0.00    +0.003 C 
ATOM      8  C   UNL     1      -2.017  -0.395   1.435  0.00  0.00    +0.002 C 
ATOM      9  C   UNL     1      -1.106  -0.814   2.591  0.00  0.00    +0.028 C 
ATOM     10  C   UNL     1       0.220  -0.058   2.496  0.00  0.00    +0.058 C 
ATOM     11  C   UNL     1       0.901  -0.387   1.166  0.00  0.00    +0.031 C 
BRANCH  10  12
ATOM     12  C   UNL     1       1.130  -0.477   3.652  0.00  0.00    +0.181 C 
BRANCH  12  13
ATOM     13  O   UNL     1       0.554  -0.054   4.890  0.00  0.00    -0.393 OA
ATOM     14  H   UNL     1       1.079  -0.287   5.668  0.00  0.00    +0.209 HD
ENDBRANCH  12  13
ENDBRANCH  10  12
ENDBRANCH   1  10
BRANCH   2  15
ATOM     15  C   UNL     1       0.733   3.735   2.508  0.00  0.00    +0.243 C 
BRANCH  15  16
ATOM     16  N   UNL     1       2.006   4.457   2.474  0.00  0.00    -0.217 N 
ATOM     17  C   UNL     1       2.572   4.767   1.290  0.00  0.00    +0.268 A 
ATOM     18  O   UNL     1       2.027   4.447   0.246  0.00  0.00    -0.266 OA
ATOM     19  C   UNL     1       3.798   5.463   1.267  0.00  0.00    +0.077 A 
ATOM     20  C   UNL     1       4.388   5.810   2.442  0.00  0.00    +0.079 A 
ATOM     21  C   UNL     1       3.770   5.472   3.660  0.00  0.00    +0.287 A 
ATOM     22  O   UNL     1       4.360   5.818   4.834  0.00  0.00    -0.264 OA
ATOM     23  N   UNL     1       2.629   4.829   3.671  0.00  0.00    -0.126 NA
ENDBRANCH  15  16
ENDBRANCH   2  15
TORSDOF 5
