REMARK  Name = ZINC05226997
REMARK  8 active torsions:
REMARK  status: ('A' for Active; 'I' for Inactive)
REMARK    1  A    between atoms: C_1  and  C_2
REMARK    2  A    between atoms: C_5  and  C_9
REMARK    3  A    between atoms: C_6  and  O_8
REMARK    4  A    between atoms: C_9  and  O_11
REMARK    5  A    between atoms: O_11  and  C_12
REMARK    6  A    between atoms: C_12  and  C_13
REMARK    7  A    between atoms: N_18  and  C_19
REMARK    8  A    between atoms: C_25  and  C_27
REMARK                            x       y       z     vdW  Elec       q    Type
REMARK                         _______ _______ _______ _____ _____    ______ ____
ROOT
ATOM      1  C   UNL     1       1.302   4.950  -4.513  0.00  0.00    +0.258 C 
ATOM      2  O   UNL     1       2.126   5.654  -3.969  0.00  0.00    -0.272 OA
ATOM      3  N   UNL     1       1.037   3.722  -4.025  0.00  0.00    -0.237 N 
ATOM      4  C   UNL     1       1.689   3.276  -2.933  0.00  0.00    +0.306 C 
ATOM      5  O   UNL     1       2.515   3.981  -2.389  0.00  0.00    -0.252 OA
ATOM      6  N   UNL     1       1.424   2.047  -2.446  0.00  0.00    -0.296 N 
ATOM      7  H   UNL     1       0.377   3.159  -4.460  0.00  0.00    +0.159 HD
ATOM      8  H   UNL     1       0.765   1.484  -2.881  0.00  0.00    +0.151 HD
ENDROOT
BRANCH   6   9
ATOM      9  C   UNL     1       2.133   1.562  -1.259  0.00  0.00    +0.077 C 
ATOM     10  C   UNL     1       1.417   2.055  -0.000  0.00  0.00    +0.022 C 
ATOM     11  C   UNL     1      -0.019   1.526   0.010  0.00  0.00    +0.002 C 
ATOM     12  C   UNL     1       0.002  -0.004   0.002  0.00  0.00    +0.000 C 
ATOM     13  C   UNL     1       0.718  -0.497  -1.257  0.00  0.00    +0.005 C 
ATOM     14  C   UNL     1       2.154   0.032  -1.268  0.00  0.00    +0.006 C 
ATOM     15  C   UNL     1       2.870  -0.461  -2.526  0.00  0.00    +0.009 C 
ENDBRANCH   6   9
BRANCH   1  16
ATOM     16  C   UNL     1       0.573   5.450  -5.734  0.00  0.00    +0.328 C 
BRANCH  16  17
ATOM     17  O   UNL     1       1.031   6.789  -6.057  0.00  0.00    -0.452 OA
BRANCH  17  18
ATOM     18  C   UNL     1       0.474   7.383  -7.131  0.00  0.00    +0.343 C 
ATOM     19  O   UNL     1      -0.371   6.799  -7.779  0.00  0.00    -0.245 OA
BRANCH  18  24
ATOM     20  C   UNL     1       2.105  12.692  -8.641  0.00  0.00    +0.044 C 
ATOM     21  C   UNL     1       1.675  11.302  -8.248  0.00  0.00    -0.047 A 
ATOM     22  C   UNL     1       2.248  10.690  -7.144  0.00  0.00    +0.004 A 
ATOM     23  C   UNL     1       1.859   9.421  -6.773  0.00  0.00    +0.019 A 
ATOM     24  C   UNL     1       0.891   8.743  -7.519  0.00  0.00    +0.100 A 
ATOM     25  C   UNL     1       0.314   9.366  -8.635  0.00  0.00    +0.131 A 
ATOM     26  C   UNL     1       0.714  10.645  -8.991  0.00  0.00    +0.049 A 
BRANCH  25  27
ATOM     27  O   UNL     1      -0.630   8.720  -9.363  0.00  0.00    -0.506 OA
ATOM     28  H   UNL     1      -1.535   8.873  -9.058  0.00  0.00    +0.292 HD
ENDBRANCH  25  27
ENDBRANCH  18  24
ENDBRANCH  17  18
ENDBRANCH  16  17
ENDBRANCH   1  16
TORSDOF 6
