REMARK  Name = ZINC59368429
REMARK  10 active torsions:
REMARK  status: ('A' for Active; 'I' for Inactive)
REMARK    1  A    between atoms: C_1  and  C_2
REMARK    2  A    between atoms: C_2  and  C_3
REMARK    3  A    between atoms: C_2  and  N_4
REMARK    4  A    between atoms: N_7  and  C_8
REMARK    5  A    between atoms: C_11  and  C_14
REMARK    6  A    between atoms: N_16  and  N_17
REMARK    7  A    between atoms: C_20  and  C_24
REMARK    8  A    between atoms: C_20  and  C_25
REMARK    9  A    between atoms: C_25  and  C_26
REMARK   10  A    between atoms: C_26  and  C_27
REMARK                            x       y       z     vdW  Elec       q    Type
REMARK                         _______ _______ _______ _____ _____    ______ ____
ROOT
ATOM      1  C   UNL     1      -4.308  -7.132  -2.830  0.00  0.00    +0.261 C 
ATOM      2  O   UNL     1      -3.444  -7.854  -3.288  0.00  0.00    -0.269 OA
ATOM      3  N   UNL     1      -5.601  -7.510  -2.885  0.00  0.00    -0.220 N 
ATOM      4  H   UNL     1      -6.290  -6.934  -2.519  0.00  0.00    +0.174 HD
ENDROOT
BRANCH   3   5
ATOM      5  N   UNL     1      -5.948  -8.734  -3.469  0.00  0.00    -0.137 N 
ATOM      6  C   UNL     1      -6.511  -8.859  -4.688  0.00  0.00    +0.263 C 
ATOM      7  O   UNL     1      -6.801  -7.966  -5.455  0.00  0.00    -0.271 OA
ATOM      8  C   UNL     1      -6.705 -10.347  -4.899  0.00  0.00    +0.112 C 
ATOM      9  N   UNL     1      -6.180 -10.945  -3.659  0.00  0.00    -0.284 N 
ATOM     10  C   UNL     1      -5.758  -9.925  -2.890  0.00  0.00    +0.326 C 
ATOM     11  O   UNL     1      -5.261 -10.070  -1.790  0.00  0.00    -0.251 OA
ATOM     12  C   UNL     1      -8.190 -10.677  -5.069  0.00  0.00    +0.041 C 
ATOM     13  H   UNL     1      -6.144 -11.889  -3.441  0.00  0.00    +0.151 HD
BRANCH   8  14
ATOM     14  C   UNL     1      -5.903 -10.828  -6.110  0.00  0.00    +0.040 C 
BRANCH  14  15
ATOM     15  C   UNL     1      -6.118 -12.331  -6.300  0.00  0.00    +0.038 C 
BRANCH  15  16
ATOM     16  C   UNL     1      -5.328 -12.805  -7.492  0.00  0.00    -0.047 A 
ATOM     17  C   UNL     1      -5.901 -12.793  -8.750  0.00  0.00    +0.003 A 
ATOM     18  C   UNL     1      -5.176 -13.228  -9.844  0.00  0.00    +0.000 A 
ATOM     19  C   UNL     1      -3.878 -13.673  -9.681  0.00  0.00    +0.000 A 
ATOM     20  C   UNL     1      -3.304 -13.684  -8.423  0.00  0.00    +0.000 A 
ATOM     21  C   UNL     1      -4.028 -13.245  -7.330  0.00  0.00    +0.003 A 
ENDBRANCH  15  16
ENDBRANCH  14  15
ENDBRANCH   8  14
ENDBRANCH   3   5
BRANCH   1  25
ATOM     22  C   UNL     1      -3.254  -3.420  -1.058  0.00  0.00    +0.035 A 
ATOM     23  C   UNL     1      -2.263  -4.245  -1.581  0.00  0.00    +0.024 A 
ATOM     24  C   UNL     1      -2.602  -5.449  -2.156  0.00  0.00    +0.015 A 
ATOM     25  C   UNL     1      -3.942  -5.842  -2.214  0.00  0.00    +0.038 A 
ATOM     26  C   UNL     1      -4.934  -5.011  -1.687  0.00  0.00    +0.015 A 
ATOM     27  C   UNL     1      -4.588  -3.810  -1.108  0.00  0.00    +0.024 A 
BRANCH  22  31
ATOM     28  N   UNL     1      -1.611  -0.260  -0.476  0.00  0.00    -0.297 N 
ATOM     29  C   UNL     1      -1.886  -1.479  -0.979  0.00  0.00    +0.304 C 
ATOM     30  O   UNL     1      -1.214  -1.929  -1.886  0.00  0.00    -0.253 OA
ATOM     31  N   UNL     1      -2.908  -2.201  -0.475  0.00  0.00    -0.269 N 
ATOM     32  H   UNL     1      -2.147   0.099   0.248  0.00  0.00    +0.151 HD
ATOM     33  H   UNL     1      -3.402  -1.872   0.292  0.00  0.00    +0.156 HD
BRANCH  28  35
ATOM     34  C   UNL     1      -0.756   2.012  -0.774  0.00  0.00    +0.027 C 
ATOM     35  C   UNL     1      -0.501   0.524  -1.023  0.00  0.00    +0.068 C 
ATOM     36  C   UNL     1       0.803   0.109  -0.339  0.00  0.00    +0.027 C 
ENDBRANCH  28  35
ENDBRANCH  22  31
ENDBRANCH   1  25
TORSDOF 7
