REMARK  Name = ZINC06728119
REMARK  3 active torsions:
REMARK  status: ('A' for Active; 'I' for Inactive)
REMARK    1  A    between atoms: C_3  and  C_9
REMARK    2  A    between atoms: C_11  and  C_28
REMARK    3  A    between atoms: C_12  and  N_27
REMARK                            x       y       z     vdW  Elec       q    Type
REMARK                         _______ _______ _______ _____ _____    ______ ____
ROOT
ATOM      1  C   UNL     1       4.081   2.329   0.179  0.00  0.00    +0.099 C 
ATOM      2  C   UNL     1       3.904   3.050  -1.124  0.00  0.00    +0.077 C 
ATOM      3  C   UNL     1       3.270   4.250  -1.182  0.00  0.00    +0.109 C 
ATOM      4  N   UNL     1       2.783   4.829  -0.031  0.00  0.00    -0.229 N 
ATOM      5  C   UNL     1       3.254   4.441   1.198  0.00  0.00    +0.027 C 
ATOM      6  C   UNL     1       3.887   3.260   1.348  0.00  0.00    +0.025 C 
ATOM      7  C   UNL     1       4.388   2.863   2.601  0.00  0.00    +0.162 C 
ATOM      8  O   UNL     1       4.948   1.790   2.705  0.00  0.00    -0.292 OA
ATOM      9  C   UNL     1       4.243   3.741   3.813  0.00  0.00    +0.080 C 
ATOM     10  C   UNL     1       4.190   5.205   3.366  0.00  0.00    +0.014 C 
ATOM     11  C   UNL     1       3.041   5.365   2.372  0.00  0.00    +0.052 C 
ATOM     12  C   UNL     1       1.807   5.815  -0.115  0.00  0.00    +0.223 A 
ATOM     13  H   UNL     1       1.266   6.166   1.864  0.00  0.00    +0.192 HD
ATOM     14  N   UNL     1       1.356   6.365  -1.221  0.00  0.00    -0.201 NA
ATOM     15  C   UNL     1       0.424   7.271  -0.925  0.00  0.00    +0.246 A 
ATOM     16  N   UNL     1       0.266   7.315   0.371  0.00  0.00    -0.160 NA
ATOM     17  N   UNL     1       1.149   6.373   0.923  0.00  0.00    -0.246 N 
ENDROOT
BRANCH   1  20
ATOM     18  C   UNL     1       0.798   0.470   0.312  0.00  0.00    +0.020 A 
ATOM     19  C   UNL     1       1.722   1.495   0.233  0.00  0.00    +0.007 A 
ATOM     20  C   UNL     1       3.074   1.211   0.266  0.00  0.00    -0.016 A 
ATOM     21  C   UNL     1       3.503  -0.100   0.377  0.00  0.00    +0.046 A 
ATOM     22  C   UNL     1       2.579  -1.126   0.456  0.00  0.00    +0.040 A 
ATOM     23  C   UNL     1       1.226  -0.840   0.423  0.00  0.00    +0.042 A 
ATOM     24 CL   UNL     1       0.065  -2.127   0.523  0.00  0.00    -0.083 Cl
ATOM     25 CL   UNL     1       5.202  -0.457   0.417  0.00  0.00    -0.083 Cl
ENDBRANCH   1  20
BRANCH   3  26
ATOM     26  N   UNL     1       3.114   4.886  -2.390  0.00  0.00    -0.345 N 
ATOM     27  H   UNL     1       3.252   4.398  -3.216  0.00  0.00    +0.144 HD
ATOM     28  H   UNL     1       2.865   5.824  -2.416  0.00  0.00    +0.144 HD
ENDBRANCH   3  26
BRANCH   2  29
ATOM     29  C   UNL     1       4.412   2.465  -2.328  0.00  0.00    +0.099 C 
ATOM     30  N   UNL     1       4.815   2.000  -3.283  0.00  0.00    -0.191 NA
ENDBRANCH   2  29
TORSDOF 3
