REMARK  Name = ZINC05101462
REMARK  7 active torsions:
REMARK  status: ('A' for Active; 'I' for Inactive)
REMARK    1  A    between atoms: C_1  and  C_2
REMARK    2  A    between atoms: C_7  and  N_8
REMARK    3  A    between atoms: C_9  and  C_11
REMARK    4  A    between atoms: C_11  and  C_12
REMARK    5  A    between atoms: N_17  and  N_18
REMARK    6  A    between atoms: C_19  and  C_20
REMARK    7  A    between atoms: C_23  and  C_25
REMARK                            x       y       z     vdW  Elec       q    Type
REMARK                         _______ _______ _______ _____ _____    ______ ____
ROOT
ATOM      1  C   UNL     1      -0.245  -0.948   6.037  0.00  0.00    +0.149 C 
ATOM      2  C   UNL     1      -0.387  -0.236   7.373  0.00  0.00    +0.233 C 
ATOM      3  N   UNL     1       0.598  -0.426   8.235  0.00  0.00    -0.263 N 
ATOM      4  C   UNL     1       1.689  -1.219   7.948  0.00  0.00    +0.183 C 
ATOM      5  N   UNL     1       2.725  -1.484   8.715  0.00  0.00    -0.127 NA
ATOM      6  S   UNL     1       1.366  -1.802   6.289  0.00  0.00    -0.075 S 
ATOM      7  O   UNL     1      -1.344   0.462   7.633  0.00  0.00    -0.274 OA
ATOM      8  H   UNL     1       0.550   0.008   9.101  0.00  0.00    +0.157 HD
ENDROOT
BRANCH   5   9
ATOM      9  N   UNL     1       3.667  -2.254   8.285  0.00  0.00    -0.152 NA
ATOM     10  C   UNL     1       4.697  -2.518   9.048  0.00  0.00    +0.181 C 
BRANCH  10  11
ATOM     11  C   UNL     1       5.764  -3.390   8.559  0.00  0.00    +0.148 A 
ATOM     12  C   UNL     1       6.886  -3.750   9.251  0.00  0.00    +0.051 A 
ATOM     13  C   UNL     1       7.630  -4.592   8.404  0.00  0.00    +0.045 A 
ATOM     14  C   UNL     1       6.939  -4.707   7.252  0.00  0.00    +0.103 A 
ATOM     15  O   UNL     1       5.810  -3.985   7.350  0.00  0.00    -0.459 OA
ATOM     16  C   UNL     1       7.361  -5.517   6.053  0.00  0.00    +0.086 C 
ENDBRANCH  10  11
ENDBRANCH   5   9
BRANCH   1  17
ATOM     17  C   UNL     1      -0.168   0.052   4.882  0.00  0.00    +0.120 C 
BRANCH  17  19
ATOM     18  N   UNL     1       0.025  -0.015   2.417  0.00  0.00    -0.285 N 
ATOM     19  C   UNL     1      -0.056  -0.694   3.578  0.00  0.00    +0.219 C 
ATOM     20  O   UNL     1      -0.040  -1.907   3.573  0.00  0.00    -0.275 OA
ATOM     21  H   UNL     1       0.078   0.954   2.425  0.00  0.00    +0.155 HD
BRANCH  18  28
ATOM     22  C   UNL     1      -1.264   1.184   0.181  0.00  0.00    +0.045 C 
ATOM     23  C   UNL     1      -0.584  -0.158   0.084  0.00  0.00    -0.029 A 
ATOM     24  C   UNL     1      -0.568  -0.840  -1.117  0.00  0.00    +0.005 A 
ATOM     25  C   UNL     1       0.055  -2.071  -1.206  0.00  0.00    +0.000 A 
ATOM     26  C   UNL     1       0.666  -2.622  -0.095  0.00  0.00    +0.002 A 
ATOM     27  C   UNL     1       0.655  -1.945   1.108  0.00  0.00    +0.023 A 
ATOM     28  C   UNL     1       0.034  -0.706   1.201  0.00  0.00    +0.036 A 
ENDBRANCH  18  28
ENDBRANCH  17  19
ENDBRANCH   1  17
TORSDOF 5
