REMARK  Name = ZINC21263434
REMARK  17 active torsions:
REMARK  status: ('A' for Active; 'I' for Inactive)
REMARK    1  A    between atoms: C_1  and  C_2
REMARK    2  A    between atoms: C_2  and  C_33
REMARK    3  A    between atoms: C_4  and  N_10
REMARK    4  A    between atoms: C_6  and  C_8
REMARK    5  A    between atoms: C_6  and  C_9
REMARK    6  A    between atoms: N_10  and  C_11
REMARK    7  A    between atoms: C_11  and  N_13
REMARK    8  A    between atoms: N_13  and  C_14
REMARK    9  A    between atoms: N_13  and  C_20
REMARK   10  A    between atoms: C_14  and  C_15
REMARK   11  A    between atoms: C_20  and  C_21
REMARK   12  A    between atoms: C_23  and  O_31
REMARK   13  A    between atoms: C_24  and  O_29
REMARK   14  A    between atoms: C_26  and  O_27
REMARK   15  A    between atoms: O_27  and  C_28
REMARK   16  A    between atoms: O_29  and  C_30
REMARK   17  A    between atoms: O_31  and  C_32
REMARK                            x       y       z     vdW  Elec       q    Type
REMARK                         _______ _______ _______ _____ _____    ______ ____
ROOT
ATOM      1  N   UNL     1      -0.927   1.903   4.298  0.00  0.00    -0.301 N 
ENDROOT
BRANCH   1   2
ATOM      2  C   UNL     1      -0.272   0.808   3.865  0.00  0.00    +0.134 C 
ATOM      3  S   UNL     1      -0.615   0.161   2.318  0.00  0.00    -0.019 S 
BRANCH   2   4
ATOM      4  N   UNL     1       0.654   0.222   4.650  0.00  0.00    -0.324 N 
ATOM      5  H   UNL     1       0.875   0.638   5.645  0.00  0.00    +0.148 HD
BRANCH   4   9
ATOM      6  C   UNL     1       4.048  -2.079   3.038  0.00  0.00    -0.010 C 
ATOM      7  C   UNL     1       3.472  -2.312   4.440  0.00  0.00    -0.072 C 
ATOM      8  C   UNL     1       2.716  -1.067   4.895  0.00  0.00    +0.009 C 
ATOM      9  C   UNL     1       1.369  -0.970   4.178  0.00  0.00    +0.069 C 
ATOM     10  C   UNL     1       0.549  -2.215   4.516  0.00  0.00    +0.009 C 
ATOM     11  C   UNL     1       1.279  -3.474   4.054  0.00  0.00    -0.072 C 
ATOM     12  N   UNL     1       2.663  -3.512   4.480  0.00  0.00    +0.386 N 
ATOM     13  C   UNL     1       1.165  -3.603   2.531  0.00  0.00    -0.010 C 
ATOM     14  C   UNL     1       0.550  -4.688   4.673  0.00  0.00    -0.010 C 
ATOM     15  C   UNL     1       4.669  -2.506   5.398  0.00  0.00    -0.010 C 
ATOM     16  H   UNL     1       3.115  -4.281   3.837  0.00  0.00    -0.084 HD
ATOM     17  H   UNL     1       2.610  -3.884   5.514  0.00  0.00    -0.084 HD
ENDBRANCH   4   9
ENDBRANCH   2   4
ENDBRANCH   1   2
BRANCH   1  18
ATOM     18  C   UNL     1      -0.562   2.517   5.577  0.00  0.00    +0.181 C 
BRANCH  18  19
ATOM     19  C   UNL     1      -1.379   1.899   6.683  0.00  0.00    +0.122 A 
ATOM     20  C   UNL     1      -1.035   0.818   7.405  0.00  0.00    +0.046 A 
ATOM     21  C   UNL     1      -2.084   0.589   8.325  0.00  0.00    +0.041 A 
ATOM     22  C   UNL     1      -3.006   1.545   8.110  0.00  0.00    +0.195 A 
ATOM     23  O   UNL     1      -2.571   2.339   7.119  0.00  0.00    -0.466 OA
ENDBRANCH  18  19
ENDBRANCH   1  18
BRANCH   1  24
ATOM     24  C   UNL     1      -2.006   2.478   3.491  0.00  0.00    +0.146 C 
BRANCH  24  25
ATOM     25  C   UNL     1      -1.421   3.416   2.466  0.00  0.00    +0.015 A 
ATOM     26  C   UNL     1      -1.253   2.994   1.160  0.00  0.00    +0.058 A 
ATOM     27  C   UNL     1      -0.710   3.852   0.219  0.00  0.00    +0.162 A 
ATOM     28  C   UNL     1      -0.338   5.142   0.586  0.00  0.00    +0.165 A 
ATOM     29  C   UNL     1      -0.512   5.564   1.894  0.00  0.00    +0.095 A 
ATOM     30  C   UNL     1      -1.056   4.702   2.834  0.00  0.00    +0.128 A 
BRANCH  30  31
ATOM     31  O   UNL     1      -1.226   5.116   4.118  0.00  0.00    -0.495 OA
ATOM     32  C   UNL     1      -0.823   6.452   4.428  0.00  0.00    +0.277 C 
ENDBRANCH  30  31
BRANCH  28  33
ATOM     33  O   UNL     1       0.195   5.986  -0.337  0.00  0.00    -0.491 OA
ATOM     34  C   UNL     1       0.553   7.295   0.111  0.00  0.00    +0.277 C 
ENDBRANCH  28  33
BRANCH  27  35
ATOM     35  O   UNL     1      -0.540   3.435  -1.065  0.00  0.00    -0.491 OA
ATOM     36  C   UNL     1      -0.944   2.099  -1.372  0.00  0.00    +0.277 C 
ENDBRANCH  27  35
ENDBRANCH  24  25
ENDBRANCH   1  24
TORSDOF 10
