REMARK  Name = ZINC11859065
REMARK  13 active torsions:
REMARK  status: ('A' for Active; 'I' for Inactive)
REMARK    1  A    between atoms: C_1  and  C_2
REMARK    2  A    between atoms: C_2  and  O_3
REMARK    3  A    between atoms: O_3  and  C_4
REMARK    4  A    between atoms: C_4  and  C_6
REMARK    5  A    between atoms: C_8  and  C_20
REMARK    6  A    between atoms: C_14  and  C_15
REMARK    7  A    between atoms: C_14  and  O_19
REMARK    8  A    between atoms: C_22  and  O_30
REMARK    9  A    between atoms: C_23  and  O_28
REMARK   10  A    between atoms: C_24  and  O_26
REMARK   11  A    between atoms: O_26  and  C_27
REMARK   12  A    between atoms: O_28  and  C_29
REMARK   13  A    between atoms: O_30  and  C_31
REMARK                            x       y       z     vdW  Elec       q    Type
REMARK                         _______ _______ _______ _____ _____    ______ ____
ROOT
ATOM      1  C   UNL     1      -0.160   1.798  -3.408  0.00  0.00    +0.181 C 
ATOM      2  C   UNL     1      -0.046   1.267  -4.841  0.00  0.00    +0.123 C 
ATOM      3  N   UNL     1       1.081   1.921  -5.508  0.00  0.00    -0.292 N 
ATOM      4  C   UNL     1       1.468   3.160  -5.168  0.00  0.00    +0.302 C 
ATOM      5  O   UNL     1       2.405   3.661  -5.760  0.00  0.00    -0.253 OA
ATOM      6  N   UNL     1       0.864   3.868  -4.203  0.00  0.00    -0.264 N 
ATOM      7  C   UNL     1      -0.279   3.325  -3.457  0.00  0.00    +0.246 C 
ATOM      8  H   UNL     1       1.557   1.449  -6.208  0.00  0.00    +0.151 HD
ATOM      9  H   UNL     1       1.188   4.757  -3.991  0.00  0.00    +0.153 HD
ENDROOT
BRANCH   2  10
ATOM     10  C   UNL     1       0.182  -0.222  -4.810  0.00  0.00    -0.019 A 
ATOM     11  C   UNL     1      -0.889  -1.087  -4.938  0.00  0.00    +0.055 A 
ATOM     12  C   UNL     1      -0.682  -2.458  -4.915  0.00  0.00    +0.165 A 
ATOM     13  C   UNL     1       0.603  -2.962  -4.753  0.00  0.00    +0.204 A 
ATOM     14  C   UNL     1       1.676  -2.089  -4.619  0.00  0.00    +0.165 A 
ATOM     15  C   UNL     1       1.462  -0.720  -4.648  0.00  0.00    +0.055 A 
BRANCH  14  16
ATOM     16  O   UNL     1       2.935  -2.578  -4.459  0.00  0.00    -0.491 OA
ATOM     17  C   UNL     1       3.990  -1.623  -4.327  0.00  0.00    +0.277 C 
ENDBRANCH  14  16
BRANCH  13  18
ATOM     18  O   UNL     1       0.809  -4.307  -4.725  0.00  0.00    -0.488 OA
ATOM     19  C   UNL     1       0.748  -4.946  -3.448  0.00  0.00    +0.277 C 
ENDBRANCH  13  18
BRANCH  12  20
ATOM     20  O   UNL     1      -1.735  -3.308  -5.047  0.00  0.00    -0.491 OA
ATOM     21  C   UNL     1      -3.027  -2.719  -5.211  0.00  0.00    +0.277 C 
ENDBRANCH  12  20
ENDBRANCH   2  10
BRANCH   7  22
ATOM     22  C   UNL     1      -1.579   3.715  -4.162  0.00  0.00    +0.436 C 
ATOM     23  F   UNL     1      -2.667   3.186  -3.459  0.00  0.00    -0.166 F 
ATOM     24  F   UNL     1      -1.686   5.109  -4.207  0.00  0.00    -0.166 F 
ATOM     25  F   UNL     1      -1.574   3.206  -5.465  0.00  0.00    -0.166 F 
ENDBRANCH   7  22
BRANCH   1  26
ATOM     26  C   UNL     1       1.068   1.410  -2.626  0.00  0.00    +0.317 C 
ATOM     27  O   UNL     1       2.063   2.093  -2.686  0.00  0.00    -0.250 OA
BRANCH  26  28
ATOM     28  O   UNL     1       1.057   0.307  -1.862  0.00  0.00    -0.465 OA
BRANCH  28  30
ATOM     29  C   UNL     1       2.072  -1.288  -0.327  0.00  0.00    +0.048 C 
ATOM     30  C   UNL     1       2.275  -0.005  -1.136  0.00  0.00    +0.229 C 
ENDBRANCH  28  30
ENDBRANCH  26  28
ENDBRANCH   1  26
BRANCH   7  31
ATOM     31  O   UNL     1      -0.280   3.847  -2.127  0.00  0.00    -0.364 OA
ATOM     32  H   UNL     1      -0.352   4.810  -2.083  0.00  0.00    +0.212 HD
ENDBRANCH   7  31
TORSDOF 9
