REMARK  Name = ZINC39634379
REMARK  10 active torsions:
REMARK  status: ('A' for Active; 'I' for Inactive)
REMARK    1  A    between atoms: C_1  and  C_2
REMARK    2  A    between atoms: C_5  and  C_8
REMARK    3  A    between atoms: C_8  and  N_9
REMARK    4  A    between atoms: C_10  and  C_12
REMARK    5  A    between atoms: C_23  and  C_25
REMARK    6  A    between atoms: C_27  and  C_34
REMARK    7  A    between atoms: N_29  and  C_30
REMARK    8  A    between atoms: C_30  and  C_31
REMARK    9  A    between atoms: C_30  and  C_32
REMARK   10  A    between atoms: C_30  and  C_33
REMARK                            x       y       z     vdW  Elec       q    Type
REMARK                         _______ _______ _______ _____ _____    ______ ____
ROOT
ATOM      1  C   UNL     1       3.403  -6.686   0.226  0.00  0.00    +0.100 C 
ATOM      2  C   UNL     1       3.995  -5.965  -1.005  0.00  0.00    +0.121 C 
ATOM      3  N   UNL     1       4.867  -6.976  -1.648  0.00  0.00    -0.295 N 
ATOM      4  C   UNL     1       4.112  -8.246  -1.523  0.00  0.00    +0.115 C 
ATOM      5  C   UNL     1       3.481  -8.183  -0.118  0.00  0.00    -0.004 C 
ATOM      6  C   UNL     1       4.364  -8.911   0.890  0.00  0.00    -0.010 C 
ATOM      7  C   UNL     1       4.380 -10.407   0.561  0.00  0.00    -0.082 C 
ATOM      8  N   UNL     1       3.011 -10.935   0.607  0.00  0.00    +0.379 N 
ATOM      9  C   UNL     1       2.192 -10.294  -0.428  0.00  0.00    -0.082 C 
ATOM     10  C   UNL     1       2.083  -8.794  -0.141  0.00  0.00    -0.010 C 
ATOM     11  C   UNL     1       6.073  -6.784  -2.219  0.00  0.00    +0.265 C 
ATOM     12  O   UNL     1       6.674  -7.725  -2.700  0.00  0.00    -0.268 OA
ATOM     13  H   UNL     1       3.031 -11.931   0.450  0.00  0.00    -0.086 HD
ATOM     14  H   UNL     1       2.611 -10.748   1.514  0.00  0.00    -0.086 HD
ENDROOT
BRANCH  11  15
ATOM     15  C   UNL     1       6.662  -5.436  -2.258  0.00  0.00    +0.124 A 
ATOM     16  C   UNL     1       6.030  -4.244  -1.952  0.00  0.00    +0.057 A 
ATOM     17  C   UNL     1       6.997  -3.254  -2.139  0.00  0.00    +0.061 A 
ATOM     18  N   UNL     1       8.102  -3.839  -2.524  0.00  0.00    -0.175 NA
ATOM     19  N   UNL     1       7.945  -5.112  -2.599  0.00  0.00    -0.254 N 
ATOM     20  C   UNL     1       6.802  -1.773  -1.934  0.00  0.00    +0.067 C 
BRANCH  19  21
ATOM     21  C   UNL     1       8.982  -6.069  -2.992  0.00  0.00    +0.056 C 
ATOM     22  C   UNL     1       8.572  -6.757  -4.296  0.00  0.00    +0.036 C 
ATOM     23  C   UNL     1      10.305  -5.331  -3.199  0.00  0.00    +0.036 C 
ATOM     24  C   UNL     1       9.150  -7.119  -1.893  0.00  0.00    +0.036 C 
ENDBRANCH  19  21
ENDBRANCH  11  15
BRANCH   1  26
ATOM     25  N   UNL     1       1.452  -6.246   1.683  0.00  0.00    -0.311 N 
ATOM     26  C   UNL     1       1.970  -6.271   0.438  0.00  0.00    +0.218 C 
ATOM     27  O   UNL     1       1.282  -5.959  -0.511  0.00  0.00    -0.275 OA
ATOM     28  H   UNL     1       1.978  -6.564   2.433  0.00  0.00    +0.149 HD
BRANCH  25  29
ATOM     29  C   UNL     1       0.096  -5.738   1.902  0.00  0.00    +0.139 C 
BRANCH  29  34
ATOM     30  C   UNL     1      -1.192  -6.043   7.527  0.00  0.00    +0.044 C 
ATOM     31  C   UNL     1      -0.856  -5.964   6.060  0.00  0.00    -0.050 A 
ATOM     32  C   UNL     1      -0.263  -4.825   5.548  0.00  0.00    +0.003 A 
ATOM     33  C   UNL     1       0.046  -4.752   4.202  0.00  0.00    +0.005 A 
ATOM     34  C   UNL     1      -0.239  -5.818   3.369  0.00  0.00    -0.030 A 
ATOM     35  C   UNL     1      -0.832  -6.957   3.882  0.00  0.00    +0.005 A 
ATOM     36  C   UNL     1      -1.136  -7.031   5.228  0.00  0.00    +0.003 A 
ENDBRANCH  29  34
ENDBRANCH  25  29
ENDBRANCH   1  26
TORSDOF 5
