REMARK  Name = ZINC39699329
REMARK  9 active torsions:
REMARK  status: ('A' for Active; 'I' for Inactive)
REMARK    1  A    between atoms: C_1  and  C_2
REMARK    2  A    between atoms: C_6  and  C_15
REMARK    3  A    between atoms: C_13  and  C_14
REMARK    4  A    between atoms: C_15  and  C_17
REMARK    5  A    between atoms: C_15  and  N_26
REMARK    6  A    between atoms: N_21  and  C_22
REMARK    7  A    between atoms: C_22  and  C_23
REMARK    8  A    between atoms: C_23  and  O_24
REMARK    9  A    between atoms: O_24  and  C_25
REMARK                            x       y       z     vdW  Elec       q    Type
REMARK                         _______ _______ _______ _____ _____    ______ ____
ROOT
ATOM      1  C   UNL     1      -1.179  -4.878  -2.983  0.00  0.00    +0.018 C 
ENDROOT
BRANCH   1   7
ATOM      2  C   UNL     1      -0.500   1.522   0.116  0.00  0.00    +0.044 C 
ATOM      3  C   UNL     1      -0.504   0.015   0.126  0.00  0.00    -0.047 A 
ATOM      4  C   UNL     1      -0.286  -0.658  -1.034  0.00  0.00    +0.013 A 
ATOM      5  C   UNL     1      -0.292  -2.121  -1.011  0.00  0.00    -0.007 A 
ATOM      6  C   UNL     1      -0.077  -2.839  -2.151  0.00  0.00    -0.006 C 
ATOM      7  C   UNL     1      -0.100  -4.351  -2.035  0.00  0.00    +0.092 C 
ATOM      8  C   UNL     1      -0.359  -4.939  -0.666  0.00  0.00    +0.223 C 
ATOM      9  O   UNL     1      -0.388  -6.146  -0.515  0.00  0.00    -0.275 OA
ATOM     10  N   UNL     1      -0.553  -4.136   0.367  0.00  0.00    -0.285 N 
ATOM     11  C   UNL     1      -0.534  -2.807   0.270  0.00  0.00    +0.041 A 
ATOM     12  C   UNL     1      -0.749  -2.015   1.413  0.00  0.00    +0.027 A 
ATOM     13  C   UNL     1      -0.726  -0.659   1.327  0.00  0.00    -0.046 A 
ATOM     14  C   UNL     1      -0.954   0.149   2.578  0.00  0.00    +0.044 C 
ATOM     15  H   UNL     1      -0.718  -4.534   1.236  0.00  0.00    +0.155 HD
ENDBRANCH   1   7
BRANCH   1  16
ATOM     16  N   UNL     1      -1.131  -6.346  -3.012  0.00  0.00    +0.387 N 
ATOM     17  C   UNL     1       0.188  -6.766  -3.525  0.00  0.00    -0.078 C 
ATOM     18  C   UNL     1       0.476  -8.153  -3.009  0.00  0.00    -0.019 C 
ATOM     19  C   UNL     1       0.088  -9.229  -4.041  0.00  0.00    -0.002 C 
ATOM     20  C   UNL     1      -1.245  -8.897  -4.740  0.00  0.00    -0.002 C 
ATOM     21  C   UNL     1      -2.276  -8.355  -3.784  0.00  0.00    -0.019 C 
ATOM     22  C   UNL     1      -2.198  -6.814  -3.780  0.00  0.00    -0.078 C 
ATOM     23  H   UNL     1      -1.234  -6.691  -2.070  0.00  0.00    -0.081 HD
ENDBRANCH   1  16
BRANCH   1  24
ATOM     24  C   UNL     1      -2.535  -4.429  -2.501  0.00  0.00    +0.139 A 
ATOM     25  N   UNL     1      -3.199  -4.908  -1.477  0.00  0.00    -0.115 NA
ATOM     26  N   UNL     1      -4.312  -4.265  -1.389  0.00  0.00    -0.023 NA
ATOM     27  N   UNL     1      -4.375  -3.389  -2.330  0.00  0.00    -0.044 NA
ATOM     28  N   UNL     1      -3.296  -3.455  -3.034  0.00  0.00    -0.229 N 
BRANCH  28  29
ATOM     29  C   UNL     1      -2.962  -2.628  -4.196  0.00  0.00    +0.175 C 
BRANCH  29  30
ATOM     30  C   UNL     1      -3.475  -3.307  -5.468  0.00  0.00    +0.183 C 
BRANCH  30  31
ATOM     31  O   UNL     1      -3.149  -2.500  -6.602  0.00  0.00    -0.381 OA
ATOM     32  C   UNL     1      -3.586  -3.046  -7.848  0.00  0.00    +0.194 C 
ENDBRANCH  30  31
ENDBRANCH  29  30
ENDBRANCH  28  29
ENDBRANCH   1  24
TORSDOF 6
