REMARK  Name = ZINC59170653
REMARK  8 active torsions:
REMARK  status: ('A' for Active; 'I' for Inactive)
REMARK    1  A    between atoms: C_1  and  C_2
REMARK    2  A    between atoms: C_2  and  C_3
REMARK    3  A    between atoms: C_8  and  N_9
REMARK    4  A    between atoms: C_10  and  C_12
REMARK    5  A    between atoms: N_22  and  N_23
REMARK    6  A    between atoms: N_23  and  S_24
REMARK    7  A    between atoms: S_24  and  C_27
REMARK    8  A    between atoms: C_30  and  C_33
REMARK                            x       y       z     vdW  Elec       q    Type
REMARK                         _______ _______ _______ _____ _____    ______ ____
ROOT
ATOM      1  C   UNL     1      -3.139  -0.594   3.278  0.00  0.00    +0.099 A 
ATOM      2  C   UNL     1      -3.822  -0.601   4.471  0.00  0.00    +0.030 A 
ATOM      3  C   UNL     1      -5.166  -0.011   4.489  0.00  0.00    +0.018 A 
ATOM      4  C   UNL     1      -5.809   0.263   5.700  0.00  0.00    +0.011 A 
ATOM      5  C   UNL     1      -7.070   0.819   5.691  0.00  0.00    +0.001 A 
ATOM      6  C   UNL     1      -7.700   1.109   4.491  0.00  0.00    +0.004 A 
ATOM      7  C   UNL     1      -7.076   0.843   3.287  0.00  0.00    +0.047 A 
ATOM      8  C   UNL     1      -5.809   0.282   3.273  0.00  0.00    +0.137 A 
ATOM      9  O   UNL     1      -5.187   0.010   2.098  0.00  0.00    -0.437 OA
ATOM     10  C   UNL     1      -3.820   0.015   2.111  0.00  0.00    +0.225 A 
ATOM     11  N   UNL     1      -3.137   0.533   1.130  0.00  0.00    -0.260 N 
ATOM     12  H   UNL     1      -2.168   0.487   1.136  0.00  0.00    +0.189 HD
ENDROOT
BRANCH   1  14
ATOM     13  N   UNL     1      -1.212  -1.753   4.232  0.00  0.00    -0.281 N 
ATOM     14  C   UNL     1      -1.786  -1.163   3.165  0.00  0.00    +0.253 C 
ATOM     15  O   UNL     1      -1.186  -1.101   2.108  0.00  0.00    -0.270 OA
ATOM     16  H   UNL     1      -1.655  -1.731   5.095  0.00  0.00    +0.155 HD
BRANCH  13  22
ATOM     17  C   UNL     1       0.347  -3.462   4.925  0.00  0.00    -0.026 A 
ATOM     18  C   UNL     1       1.564  -4.098   4.785  0.00  0.00    +0.005 A 
ATOM     19  C   UNL     1       2.462  -3.672   3.823  0.00  0.00    +0.000 A 
ATOM     20  C   UNL     1       2.144  -2.607   3.000  0.00  0.00    +0.002 A 
ATOM     21  C   UNL     1       0.929  -1.966   3.136  0.00  0.00    +0.023 A 
ATOM     22  C   UNL     1       0.022  -2.396   4.096  0.00  0.00    +0.037 A 
BRANCH  17  24
ATOM     23  C   UNL     1      -1.735  -4.753   5.311  0.00  0.00    +0.009 C 
ATOM     24  C   UNL     1      -0.631  -3.927   5.974  0.00  0.00    +0.033 C 
ENDBRANCH  17  24
ENDBRANCH  13  22
ENDBRANCH   1  14
BRANCH  11  25
ATOM     25  N   UNL     1      -3.802   1.157   0.066  0.00  0.00    -0.157 N 
ATOM     26  H   UNL     1      -4.765   1.270   0.096  0.00  0.00    +0.194 HD
BRANCH  25  27
ATOM     27  S   UNL     1      -2.944   1.701  -1.242  0.00  0.00    +0.085 S 
ATOM     28  O   UNL     1      -3.896   2.020  -2.248  0.00  0.00    -0.149 OA
ATOM     29  O   UNL     1      -2.010   2.652  -0.748  0.00  0.00    -0.149 OA
BRANCH  27  30
ATOM     30  C   UNL     1      -2.004   0.341  -1.850  0.00  0.00    +0.110 A 
ATOM     31  C   UNL     1      -0.769   0.054  -1.300  0.00  0.00    +0.029 A 
ATOM     32  C   UNL     1      -0.031  -1.013  -1.778  0.00  0.00    +0.005 A 
ATOM     33  C   UNL     1      -0.528  -1.793  -2.806  0.00  0.00    -0.050 A 
ATOM     34  C   UNL     1      -1.764  -1.506  -3.355  0.00  0.00    +0.005 A 
ATOM     35  C   UNL     1      -2.504  -0.441  -2.874  0.00  0.00    +0.029 A 
ATOM     36  C   UNL     1       0.276  -2.955  -3.327  0.00  0.00    +0.044 C 
ENDBRANCH  27  30
ENDBRANCH  25  27
ENDBRANCH  11  25
TORSDOF 6
