REMARK  Name = ZINC39029535
REMARK  5 active torsions:
REMARK  status: ('A' for Active; 'I' for Inactive)
REMARK    1  A    between atoms: C_7  and  O_27
REMARK    2  A    between atoms: N_11  and  C_12
REMARK    3  A    between atoms: C_12  and  C_14
REMARK    4  A    between atoms: C_14  and  S_15
REMARK    5  A    between atoms: S_15  and  C_16
REMARK                            x       y       z     vdW  Elec       q    Type
REMARK                         _______ _______ _______ _____ _____    ______ ____
ROOT
ATOM      1  C   UNL     1      -0.017   1.373   0.010  0.00  0.00    +0.000 A 
ATOM      2  C   UNL     1       1.170   2.084   0.002  0.00  0.00    +0.001 A 
ATOM      3  C   UNL     1       2.369   1.403   0.001  0.00  0.00    +0.015 A 
ATOM      4  C   UNL     1       2.389   0.010  -0.003  0.00  0.00    +0.022 A 
ATOM      5  C   UNL     1       1.206  -0.705  -0.019  0.00  0.00    +0.013 A 
ATOM      6  C   UNL     1       0.002  -0.004   0.002  0.00  0.00    +0.009 A 
ATOM      7  C   UNL     1       1.111  -2.201  -0.095  0.00  0.00    +0.234 C 
ATOM      8  N   UNL     1       2.333  -2.894   0.288  0.00  0.00    -0.297 N 
ATOM      9  C   UNL     1       3.517  -2.486  -0.294  0.00  0.00    +0.153 C 
ATOM     10  N   UNL     1       4.266  -3.294  -1.036  0.00  0.00    -0.158 NA
ATOM     11  S   UNL     1       3.958  -0.801   0.027  0.00  0.00    -0.057 S 
ATOM     12  H   UNL     1       2.316  -3.620   0.931  0.00  0.00    +0.151 HD
ENDROOT
BRANCH  10  13
ATOM     13  C   UNL     1       3.884  -4.552  -1.243  0.00  0.00    +0.248 C 
ATOM     14  O   UNL     1       2.849  -4.961  -0.754  0.00  0.00    -0.273 OA
BRANCH  13  15
ATOM     15  C   UNL     1       4.734  -5.468  -2.085  0.00  0.00    +0.175 C 
BRANCH  15  16
ATOM     16  S   UNL     1       3.951  -7.102  -2.180  0.00  0.00    -0.078 S 
BRANCH  16  17
ATOM     17  C   UNL     1       5.050  -8.044  -3.184  0.00  0.00    +0.168 A 
ATOM     18  N   UNL     1       4.866  -9.351  -3.537  0.00  0.00    -0.333 N 
ATOM     19  H   UNL     1       4.119  -9.915  -3.284  0.00  0.00    +0.168 HD
ATOM     20  C   UNL     1       5.945  -9.719  -4.324  0.00  0.00    +0.067 A 
ATOM     21  C   UNL     1       6.311 -10.893  -4.964  0.00  0.00    +0.028 A 
ATOM     22  C   UNL     1       7.482 -10.942  -5.693  0.00  0.00    +0.002 A 
ATOM     23  C   UNL     1       8.296  -9.823  -5.790  0.00  0.00    +0.002 A 
ATOM     24  C   UNL     1       7.948  -8.649  -5.161  0.00  0.00    +0.030 A 
ATOM     25  C   UNL     1       6.766  -8.583  -4.419  0.00  0.00    +0.090 A 
ATOM     26  N   UNL     1       6.164  -7.594  -3.708  0.00  0.00    -0.222 NA
ENDBRANCH  16  17
ENDBRANCH  15  16
ENDBRANCH  13  15
ENDBRANCH  10  13
BRANCH   7  27
ATOM     27  O   UNL     1       0.783  -2.569  -1.436  0.00  0.00    -0.370 OA
ATOM     28  H   UNL     1       0.702  -3.522  -1.574  0.00  0.00    +0.212 HD
ENDBRANCH   7  27
TORSDOF 5
