REMARK  Name = ZINC67463790
REMARK  7 active torsions:
REMARK  status: ('A' for Active; 'I' for Inactive)
REMARK    1  A    between atoms: C_1  and  C_2
REMARK    2  A    between atoms: C_5  and  N_9
REMARK    3  A    between atoms: C_7  and  C_8
REMARK    4  A    between atoms: C_10  and  C_12
REMARK    5  A    between atoms: N_14  and  N_15
REMARK    6  A    between atoms: C_16  and  C_18
REMARK    7  A    between atoms: C_21  and  C_23
REMARK                            x       y       z     vdW  Elec       q    Type
REMARK                         _______ _______ _______ _____ _____    ______ ____
ROOT
ATOM      1  C   UNL     1      -0.133  -6.327  -1.187  0.00  0.00    +0.315 C 
ATOM      2  O   UNL     1      -0.120  -6.936  -0.138  0.00  0.00    -0.264 OA
ATOM      3  N   UNL     1      -0.232  -6.996  -2.353  0.00  0.00    -0.227 N 
ATOM      4  H   UNL     1      -0.243  -6.510  -3.192  0.00  0.00    +0.173 HD
ENDROOT
BRANCH   1   6
ATOM      5  N   UNL     1       0.058  -4.168  -0.021  0.00  0.00    -0.278 N 
ATOM      6  C   UNL     1      -0.041  -4.837  -1.187  0.00  0.00    +0.305 C 
ATOM      7  O   UNL     1      -0.054  -4.228  -2.237  0.00  0.00    -0.265 OA
ATOM      8  H   UNL     1       0.146  -4.656   0.812  0.00  0.00    +0.155 HD
BRANCH   5  13
ATOM      9  C   UNL     1      -0.040   1.502   0.012  0.00  0.00    +0.044 C 
ATOM     10  C   UNL     1      -0.014  -0.004   0.003  0.00  0.00    -0.047 A 
ATOM     11  C   UNL     1       0.749  -0.687   0.934  0.00  0.00    +0.005 A 
ATOM     12  C   UNL     1       0.775  -2.067   0.929  0.00  0.00    +0.023 A 
ATOM     13  C   UNL     1       0.034  -2.771  -0.013  0.00  0.00    +0.034 A 
ATOM     14  C   UNL     1      -0.731  -2.083  -0.946  0.00  0.00    +0.027 A 
ATOM     15  C   UNL     1      -0.756  -0.702  -0.932  0.00  0.00    -0.046 A 
ATOM     16  C   UNL     1      -1.591   0.046  -1.940  0.00  0.00    +0.044 C 
ENDBRANCH   5  13
ENDBRANCH   1   6
BRANCH   3  17
ATOM     17  N   UNL     1      -0.319  -8.395  -2.353  0.00  0.00    -0.234 N 
ATOM     18  C   UNL     1      -0.417  -9.063  -3.519  0.00  0.00    +0.233 C 
ATOM     19  O   UNL     1      -0.431  -8.455  -4.568  0.00  0.00    -0.274 OA
ATOM     20  H   UNL     1      -0.308  -8.881  -1.514  0.00  0.00    +0.173 HD
BRANCH  18  21
ATOM     21  C   UNL     1      -0.511 -10.568  -3.519  0.00  0.00    +0.084 C 
ATOM     22  C   UNL     1       0.682 -11.349  -4.073  0.00  0.00    +0.022 C 
ATOM     23  C   UNL     1      -0.619 -11.268  -4.875  0.00  0.00    +0.032 C 
BRANCH  23  24
ATOM     24  C   UNL     1      -0.623 -10.402  -6.108  0.00  0.00    -0.044 A 
ATOM     25  C   UNL     1       0.457  -9.585  -6.383  0.00  0.00    +0.004 A 
ATOM     26  C   UNL     1       0.453  -8.790  -7.513  0.00  0.00    +0.000 A 
ATOM     27  C   UNL     1      -0.631  -8.812  -8.370  0.00  0.00    +0.000 A 
ATOM     28  C   UNL     1      -1.712  -9.630  -8.096  0.00  0.00    +0.000 A 
ATOM     29  C   UNL     1      -1.706 -10.428  -6.968  0.00  0.00    +0.004 A 
ENDBRANCH  23  24
ENDBRANCH  18  21
ENDBRANCH   3  17
TORSDOF 5
