REMARK  Name = ZINC02798576
REMARK  6 active torsions:
REMARK  status: ('A' for Active; 'I' for Inactive)
REMARK    1  A    between atoms: C_3  and  O_11
REMARK    2  A    between atoms: C_6  and  N_7
REMARK    3  A    between atoms: O_11  and  C_12
REMARK    4  A    between atoms: C_12  and  N_13
REMARK    5  A    between atoms: C_16  and  C_18
REMARK    6  A    between atoms: N_20  and  C_21
REMARK                            x       y       z     vdW  Elec       q    Type
REMARK                         _______ _______ _______ _____ _____    ______ ____
ROOT
ATOM      1  N   UNL     1       3.676  -0.843  -0.004  0.00  0.00    -0.235 N 
ATOM      2  C   UNL     1       4.802  -0.098  -0.014  0.00  0.00    +0.113 A 
ATOM      3  C   UNL     1       5.850  -0.955  -0.035  0.00  0.00    +0.054 A 
ATOM      4  C   UNL     1       5.279  -2.250  -0.045  0.00  0.00    +0.147 A 
ATOM      5  N   UNL     1       3.970  -2.094  -0.025  0.00  0.00    -0.164 NA
ENDROOT
BRANCH   4   6
ATOM      6  C   UNL     1       6.011  -3.533  -0.072  0.00  0.00    +0.268 C 
ATOM      7  O   UNL     1       7.226  -3.539  -0.089  0.00  0.00    -0.268 OA
ATOM      8  N   UNL     1       5.330  -4.696  -0.079  0.00  0.00    -0.278 N 
ATOM      9  H   UNL     1       4.363  -4.693  -0.001  0.00  0.00    +0.155 HD
BRANCH   8  10
ATOM     10  C   UNL     1       6.019  -5.910  -0.200  0.00  0.00    +0.069 A 
ATOM     11  C   UNL     1       7.273  -6.058   0.377  0.00  0.00    +0.029 A 
ATOM     12  C   UNL     1       7.951  -7.255   0.258  0.00  0.00    +0.040 A 
ATOM     13  C   UNL     1       7.382  -8.309  -0.437  0.00  0.00    +0.126 A 
ATOM     14  C   UNL     1       6.132  -8.166  -1.014  0.00  0.00    +0.078 A 
ATOM     15  C   UNL     1       5.446  -6.971  -0.893  0.00  0.00    +0.147 A 
ATOM     16  F   UNL     1       4.224  -6.832  -1.451  0.00  0.00    -0.203 F 
ATOM     17  F   UNL     1       8.048  -9.479  -0.552  0.00  0.00    -0.205 F 
ENDBRANCH   8  10
ENDBRANCH   4   6
BRANCH   1  18
ATOM     18  C   UNL     1       2.315  -0.303   0.020  0.00  0.00    +0.374 C 
BRANCH  18  19
ATOM     19  O   UNL     1       2.369   1.125   0.038  0.00  0.00    -0.468 OA
BRANCH  19  22
ATOM     20  C   UNL     1      -1.215   1.753   0.086  0.00  0.00    +0.036 A 
ATOM     21  C   UNL     1      -0.009   1.078   0.068  0.00  0.00    +0.049 A 
ATOM     22  C   UNL     1       1.182   1.787   0.062  0.00  0.00    +0.141 A 
ATOM     23  C   UNL     1       1.161   3.175   0.081  0.00  0.00    +0.085 A 
ATOM     24  C   UNL     1      -0.048   3.846   0.105  0.00  0.00    +0.056 A 
ATOM     25  C   UNL     1      -1.234   3.135   0.110  0.00  0.00    +0.128 A 
ATOM     26 CL   UNL     1       2.650   4.068   0.075  0.00  0.00    -0.080 Cl
BRANCH  25  27
ATOM     27  N   UNL     1      -2.527   3.856   0.134  0.00  0.00    +0.056 N 
ATOM     28  O   UNL     1      -2.545   5.073   0.150  0.00  0.00    -0.126 OA
ATOM     29  O   UNL     1      -3.572   3.231   0.139  0.00  0.00    -0.126 OA
ENDBRANCH  25  27
ENDBRANCH  19  22
ENDBRANCH  18  19
ENDBRANCH   1  18
TORSDOF 6
