REMARK  Name = ZINC64346553
REMARK  5 active torsions:
REMARK  status: ('A' for Active; 'I' for Inactive)
REMARK    1  A    between atoms: C_3  and  C_19
REMARK    2  A    between atoms: C_5  and  N_7
REMARK    3  A    between atoms: C_8  and  C_10
REMARK    4  A    between atoms: C_10  and  N_11
REMARK    5  A    between atoms: C_12  and  C_14
REMARK                            x       y       z     vdW  Elec       q    Type
REMARK                         _______ _______ _______ _____ _____    ______ ____
ROOT
ATOM      1  C   UNL     1       0.004   1.380   0.174  0.00  0.00    +0.002 A 
ATOM      2  C   UNL     1       1.174   2.088  -0.011  0.00  0.00    +0.010 A 
ATOM      3  C   UNL     1       2.377   1.411  -0.203  0.00  0.00    +0.004 A 
ATOM      4  C   UNL     1       2.394   0.018  -0.206  0.00  0.00    +0.033 A 
ATOM      5  C   UNL     1       1.215  -0.686  -0.019  0.00  0.00    +0.034 A 
ATOM      6  C   UNL     1       0.021  -0.002   0.172  0.00  0.00    +0.023 A 
ENDROOT
BRANCH   3   7
ATOM      7  C   UNL     1       3.635   2.171  -0.403  0.00  0.00    +0.091 A 
ATOM      8  C   UNL     1       3.613   3.585  -0.394  0.00  0.00    +0.035 A 
ATOM      9  C   UNL     1       4.789   4.250  -0.581  0.00  0.00    +0.073 A 
ATOM     10  C   UNL     1       5.959   3.483  -0.773  0.00  0.00    +0.265 A 
ATOM     11  O   UNL     1       7.035   4.034  -0.944  0.00  0.00    -0.266 OA
ATOM     12  N   UNL     1       5.880   2.139  -0.766  0.00  0.00    -0.243 N 
ATOM     13  H   UNL     1       6.687   1.618  -0.898  0.00  0.00    +0.192 HD
ATOM     14  N   UNL     1       4.765   1.528  -0.583  0.00  0.00    -0.171 NA
ENDBRANCH   3   7
BRANCH   5  15
ATOM     15  N   UNL     1       1.228  -2.086  -0.021  0.00  0.00    -0.284 N 
ATOM     16  C   UNL     1       2.297  -2.751   0.458  0.00  0.00    +0.234 C 
ATOM     17  O   UNL     1       3.207  -2.141   0.978  0.00  0.00    -0.274 OA
ATOM     18  H   UNL     1       0.466  -2.577  -0.368  0.00  0.00    +0.155 HD
BRANCH  16  19
ATOM     19  C   UNL     1       2.363  -4.252   0.346  0.00  0.00    +0.200 C 
BRANCH  19  20
ATOM     20  N   UNL     1       3.615  -4.732   0.936  0.00  0.00    -0.303 N 
ATOM     21  C   UNL     1       3.892  -6.051   0.950  0.00  0.00    +0.248 C 
ATOM     22  O   UNL     1       3.102  -6.843   0.473  0.00  0.00    -0.270 OA
ATOM     23  H   UNL     1       4.245  -4.100   1.317  0.00  0.00    +0.150 HD
BRANCH  21  24
ATOM     24  C   UNL     1       5.152  -6.533   1.543  0.00  0.00    +0.074 A 
ATOM     25  C   UNL     1       5.614  -7.925   1.637  0.00  0.00    +0.054 A 
ATOM     26  C   UNL     1       6.807  -7.877   2.249  0.00  0.00    +0.195 A 
ATOM     27  O   UNL     1       7.106  -6.599   2.531  0.00  0.00    -0.470 OA
ATOM     28  C   UNL     1       6.136  -5.780   2.115  0.00  0.00    +0.207 A 
ENDBRANCH  21  24
ENDBRANCH  19  20
ENDBRANCH  16  19
ENDBRANCH   5  15
TORSDOF 5
