REMARK  Name = ZINC12859973
REMARK  10 active torsions:
REMARK  status: ('A' for Active; 'I' for Inactive)
REMARK    1  A    between atoms: C_1  and  C_2
REMARK    2  A    between atoms: C_2  and  C_3
REMARK    3  A    between atoms: C_6  and  C_9
REMARK    4  A    between atoms: C_11  and  C_14
REMARK    5  A    between atoms: C_14  and  N_49
REMARK    6  A    between atoms: C_15  and  C_17
REMARK    7  A    between atoms: C_15  and  C_24
REMARK    8  A    between atoms: C_15  and  N_49
REMARK    9  A    between atoms: C_24  and  C_25
REMARK   10  A    between atoms: C_24  and  C_26
REMARK                            x       y       z     vdW  Elec       q    Type
REMARK                         _______ _______ _______ _____ _____    ______ ____
ROOT
ATOM      1  C   UNL     1      -1.611  -1.160   0.141  0.00  0.00    +0.019 C 
ENDROOT
BRANCH   1   4
ATOM      2  C   UNL     1      -1.620  -4.725   0.606  0.00  0.00    +0.202 A 
ATOM      3  N   UNL     1      -2.277  -3.581   0.306  0.00  0.00    -0.193 NA
ATOM      4  C   UNL     1      -1.381  -2.629   0.388  0.00  0.00    +0.211 A 
ATOM      5  O   UNL     1      -0.226  -3.204   0.738  0.00  0.00    -0.340 OA
ATOM      6  N   UNL     1      -0.378  -4.401   0.858  0.00  0.00    -0.056 NA
BRANCH   2  10
ATOM      7  C   UNL     1      -3.284  -8.636   0.723  0.00  0.00    -0.048 A 
ATOM      8  C   UNL     1      -1.945  -8.448   1.015  0.00  0.00    +0.004 A 
ATOM      9  C   UNL     1      -1.400  -7.181   0.979  0.00  0.00    +0.012 A 
ATOM     10  C   UNL     1      -2.201  -6.090   0.647  0.00  0.00    +0.022 A 
ATOM     11  C   UNL     1      -3.550  -6.285   0.358  0.00  0.00    +0.012 A 
ATOM     12  C   UNL     1      -4.083  -7.557   0.393  0.00  0.00    +0.004 A 
BRANCH   7  14
ATOM     13  C   UNL     1      -4.403 -10.310   2.171  0.00  0.00    +0.009 C 
ATOM     14  C   UNL     1      -3.874 -10.023   0.765  0.00  0.00    +0.032 C 
ENDBRANCH   7  14
ENDBRANCH   2  10
ENDBRANCH   1   4
BRANCH   1  15
ATOM     15  N   UNL     1      -2.005  -0.513   1.407  0.00  0.00    +0.390 N 
ATOM     16  H   UNL     1      -1.294  -0.708   2.122  0.00  0.00    -0.084 HD
ATOM     17  H   UNL     1      -2.910  -0.889   1.712  0.00  0.00    -0.084 HD
BRANCH  15  18
ATOM     18  C   UNL     1      -2.121   0.946   1.222  0.00  0.00    -0.038 C 
BRANCH  18  19
ATOM     19  C   UNL     1      -3.017   1.510   2.294  0.00  0.00    -0.061 A 
ATOM     20  C   UNL     1      -2.935   1.028   3.587  0.00  0.00    +0.005 A 
ATOM     21  C   UNL     1      -3.753   1.550   4.572  0.00  0.00    +0.038 A 
ATOM     22  C   UNL     1      -4.662   2.546   4.261  0.00  0.00    +0.123 A 
ATOM     23  C   UNL     1      -4.747   3.024   2.964  0.00  0.00    +0.038 A 
ATOM     24  C   UNL     1      -3.924   2.506   1.982  0.00  0.00    +0.005 A 
ATOM     25  F   UNL     1      -5.466   3.052   5.221  0.00  0.00    -0.205 F 
ENDBRANCH  18  19
BRANCH  18  26
ATOM     26  C   UNL     1      -0.735   1.586   1.326  0.00  0.00    -0.027 C 
ATOM     27  C   UNL     1      -0.147   1.307   2.711  0.00  0.00    +0.006 C 
ATOM     28  C   UNL     1      -0.855   3.097   1.118  0.00  0.00    +0.006 C 
ENDBRANCH  18  26
ENDBRANCH  15  18
ENDBRANCH   1  15
TORSDOF 7
