REMARK  Name = ZINC42084438
REMARK  9 active torsions:
REMARK  status: ('A' for Active; 'I' for Inactive)
REMARK    1  A    between atoms: C_1  and  C_2
REMARK    2  A    between atoms: N_4  and  C_5
REMARK    3  A    between atoms: C_5  and  C_6
REMARK    4  A    between atoms: C_6  and  C_7
REMARK    5  A    between atoms: N_9  and  N_10
REMARK    6  A    between atoms: N_10  and  C_11
REMARK    7  A    between atoms: C_11  and  N_13
REMARK    8  A    between atoms: N_13  and  C_14
REMARK    9  A    between atoms: C_16  and  C_21
REMARK                            x       y       z     vdW  Elec       q    Type
REMARK                         _______ _______ _______ _____ _____    ______ ____
ROOT
ATOM      1  C   UNL     1      -0.341  -6.859  -5.026  0.00  0.00    +0.151 C 
ATOM      2  S   UNL     1      -0.818  -8.500  -5.117  0.00  0.00    -0.017 S 
ENDROOT
BRANCH   1   3
ATOM      3  N   UNL     1      -0.334  -6.223  -3.837  0.00  0.00    -0.246 N 
ATOM      4  H   UNL     1      -0.599  -6.697  -3.033  0.00  0.00    +0.172 HD
BRANCH   3   7
ATOM      5  C   UNL     1       0.064  -4.245  -2.574  0.00  0.00    +0.231 C 
ATOM      6  O   UNL     1      -0.268  -4.836  -1.569  0.00  0.00    -0.274 OA
ATOM      7  N   UNL     1       0.057  -4.880  -3.763  0.00  0.00    -0.235 N 
ATOM      8  H   UNL     1       0.322  -4.407  -4.567  0.00  0.00    +0.173 HD
BRANCH   5   9
ATOM      9  C   UNL     1       0.484  -2.800  -2.494  0.00  0.00    +0.116 C 
BRANCH   9  10
ATOM     10  C   UNL     1       0.402  -2.325  -1.042  0.00  0.00    +0.113 C 
BRANCH  10  14
ATOM     11  C   UNL     1       1.238   1.160   0.304  0.00  0.00    +0.109 C 
ATOM     12  C   UNL     1       0.818  -0.285   0.224  0.00  0.00    +0.210 C 
ATOM     13  O   UNL     1       0.486  -0.876   1.230  0.00  0.00    -0.276 OA
ATOM     14  N   UNL     1       0.811  -0.920  -0.965  0.00  0.00    -0.315 N 
ATOM     15  H   UNL     1       1.076  -0.447  -1.769  0.00  0.00    +0.149 HD
ENDBRANCH  10  14
ENDBRANCH   9  10
ENDBRANCH   5   9
ENDBRANCH   3   7
ENDBRANCH   1   3
BRANCH   1  16
ATOM     16  N   UNL     1       0.028  -6.201  -6.143  0.00  0.00    -0.295 N 
ATOM     17  H   UNL     1       0.222  -5.252  -6.106  0.00  0.00    +0.154 HD
BRANCH  16  18
ATOM     18  C   UNL     1       0.132  -6.889  -7.358  0.00  0.00    +0.052 A 
ATOM     19  C   UNL     1       0.754  -8.130  -7.404  0.00  0.00    +0.037 A 
ATOM     20  C   UNL     1       0.854  -8.806  -8.604  0.00  0.00    +0.057 A 
ATOM     21  C   UNL     1       0.336  -8.250  -9.759  0.00  0.00    +0.014 A 
ATOM     22  C   UNL     1      -0.284  -7.015  -9.717  0.00  0.00    +0.022 A 
ATOM     23  C   UNL     1      -0.393  -6.335  -8.519  0.00  0.00    +0.062 A 
ATOM     24 CL   UNL     1      -1.179  -4.788  -8.465  0.00  0.00    -0.082 Cl
BRANCH  20  25
ATOM     25  C   UNL     1       1.530 -10.152  -8.655  0.00  0.00    +0.417 C 
ATOM     26  F   UNL     1       0.582 -11.158  -8.435  0.00  0.00    -0.166 F 
ATOM     27  F   UNL     1       2.118 -10.332  -9.911  0.00  0.00    -0.166 F 
ATOM     28  F   UNL     1       2.516 -10.216  -7.665  0.00  0.00    -0.166 F 
ENDBRANCH  20  25
ENDBRANCH  16  18
ENDBRANCH   1  16
TORSDOF 8
