REMARK  Name = ZINC19315162
REMARK  7 active torsions:
REMARK  status: ('A' for Active; 'I' for Inactive)
REMARK    1  A    between atoms: C_1  and  C_2
REMARK    2  A    between atoms: C_3  and  C_24
REMARK    3  A    between atoms: C_4  and  C_14
REMARK    4  A    between atoms: C_24  and  O_26
REMARK    5  A    between atoms: O_26  and  C_27
REMARK    6  A    between atoms: C_27  and  C_28
REMARK    7  A    between atoms: C_27  and  C_29
REMARK                            x       y       z     vdW  Elec       q    Type
REMARK                         _______ _______ _______ _____ _____    ______ ____
ROOT
ATOM      1  C   UNL     1      -0.021   1.051   0.017  0.00  0.00    +0.061 C 
ATOM      2  C   UNL     1      -0.722   1.555   1.252  0.00  0.00    +0.016 C 
ATOM      3  C   UNL     1      -0.034   1.702   2.398  0.00  0.00    +0.065 C 
ATOM      4  C   UNL     1      -0.696   2.210   3.645  0.00  0.00    +0.093 C 
ATOM      5  C   UNL     1      -2.197   2.098   3.545  0.00  0.00    +0.024 C 
ATOM      6  C   UNL     1      -2.798   1.932   2.348  0.00  0.00    +0.015 C 
ATOM      7  N   UNL     1      -2.052   1.866   1.199  0.00  0.00    -0.321 N 
ATOM      8  C   UNL     1      -4.298   1.818   2.240  0.00  0.00    +0.051 C 
ATOM      9  C   UNL     1      -4.957   2.625   3.360  0.00  0.00    +0.014 C 
ATOM     10  C   UNL     1      -4.452   2.092   4.705  0.00  0.00    +0.080 C 
ATOM     11  C   UNL     1      -2.949   2.174   4.730  0.00  0.00    +0.162 C 
ATOM     12  O   UNL     1      -2.377   2.308   5.793  0.00  0.00    -0.292 OA
ATOM     13  H   UNL     1      -2.532   2.066   0.230  0.00  0.00    +0.152 HD
ENDROOT
BRANCH   4  14
ATOM     14  C   UNL     1      -0.320   3.654   3.851  0.00  0.00    -0.018 A 
ATOM     15  C   UNL     1      -0.640   4.595   2.889  0.00  0.00    +0.055 A 
ATOM     16  C   UNL     1      -0.295   5.923   3.077  0.00  0.00    +0.167 A 
ATOM     17  C   UNL     1       0.374   6.309   4.236  0.00  0.00    +0.167 A 
ATOM     18  C   UNL     1       0.691   5.362   5.196  0.00  0.00    +0.065 A 
ATOM     19  C   UNL     1       0.340   4.037   5.005  0.00  0.00    +0.026 A 
ATOM     20 BR   UNL     1       0.768   2.748   6.320  0.00  0.00    -0.050 Br
ATOM     21  O   UNL     1       0.597   7.654   4.184  0.00  0.00    -0.453 OA
ATOM     22  C   UNL     1       0.423   8.019   2.802  0.00  0.00    +0.466 C 
ATOM     23  O   UNL     1      -0.491   7.027   2.298  0.00  0.00    -0.453 OA
ENDBRANCH   4  14
BRANCH   3  24
ATOM     24  C   UNL     1       1.341   1.370   2.428  0.00  0.00    +0.338 C 
ATOM     25  O   UNL     1       1.914   1.058   1.401  0.00  0.00    -0.245 OA
BRANCH  24  26
ATOM     26  O   UNL     1       2.016   1.398   3.596  0.00  0.00    -0.459 OA
BRANCH  26  27
ATOM     27  C   UNL     1       3.401   1.051   3.553  0.00  0.00    +0.171 C 
ATOM     28  C   UNL     1       4.235   2.311   3.308  0.00  0.00    +0.052 C 
ATOM     29  C   UNL     1       3.811   0.420   4.886  0.00  0.00    +0.052 C 
ENDBRANCH  26  27
ENDBRANCH  24  26
ENDBRANCH   3  24
TORSDOF 4
