REMARK  Name = ZINC04082105
REMARK  7 active torsions:
REMARK  status: ('A' for Active; 'I' for Inactive)
REMARK    1  A    between atoms: C_6  and  O_7
REMARK    2  A    between atoms: O_7  and  C_8
REMARK    3  A    between atoms: C_10  and  O_23
REMARK    4  A    between atoms: C_12  and  O_22
REMARK    5  A    between atoms: C_14  and  O_21
REMARK    6  A    between atoms: C_16  and  C_19
REMARK    7  A    between atoms: C_19  and  O_20
REMARK                            x       y       z     vdW  Elec       q    Type
REMARK                         _______ _______ _______ _____ _____    ______ ____
ROOT
ATOM      1  C   UNL     1       4.788   1.246   0.045  0.00  0.00    +0.046 A 
ATOM      2  C   UNL     1       3.636   1.978   0.033  0.00  0.00    +0.015 A 
ATOM      3  C   UNL     1       2.399   1.324   0.020  0.00  0.00    +0.021 A 
ATOM      4  C   UNL     1       2.344  -0.080   0.022  0.00  0.00    +0.143 A 
ATOM      5  C   UNL     1       3.523  -0.809   0.034  0.00  0.00    +0.092 A 
ATOM      6  C   UNL     1       4.740  -0.146   0.045  0.00  0.00    +0.128 A 
ATOM      7  O   UNL     1       1.146  -0.701   0.010  0.00  0.00    -0.422 OA
ATOM      8  C   UNL     1       0.002  -0.004   0.002  0.00  0.00    +0.341 A 
ATOM      9  O   UNL     1      -1.056  -0.608  -0.012  0.00  0.00    -0.245 OA
ATOM     10  C   UNL     1      -0.017   1.414   0.010  0.00  0.00    +0.041 A 
ATOM     11  C   UNL     1       1.146   2.093   0.002  0.00  0.00    -0.027 A 
ATOM     12  C   UNL     1       1.242   3.596  -0.045  0.00  0.00    +0.036 C 
ATOM     13  C   UNL     1       0.040   4.254   0.630  0.00  0.00    +0.005 C 
ATOM     14  C   UNL     1      -1.037   4.498  -0.430  0.00  0.00    +0.001 C 
ATOM     15  C   UNL     1      -1.460   3.165  -1.042  0.00  0.00    +0.005 C 
ATOM     16  C   UNL     1      -1.359   2.095   0.048  0.00  0.00    +0.042 C 
ENDROOT
BRANCH   6  17
ATOM     17  O   UNL     1       5.895  -0.860   0.056  0.00  0.00    -0.461 OA
BRANCH  17  18
ATOM     18  C   UNL     1       7.116  -0.117   0.067  0.00  0.00    +0.339 C 
ATOM     19  C   UNL     1       8.298  -1.081   0.204  0.00  0.00    +0.214 C 
ATOM     20  C   UNL     1       9.605  -0.283   0.155  0.00  0.00    +0.180 C 
ATOM     21  C   UNL     1       9.654   0.515  -1.152  0.00  0.00    +0.177 C 
ATOM     22  C   UNL     1       8.420   1.416  -1.237  0.00  0.00    +0.179 C 
ATOM     23  O   UNL     1       7.240   0.615  -1.154  0.00  0.00    -0.331 OA
BRANCH  21  24
ATOM     24  O   UNL     1      10.835   1.319  -1.176  0.00  0.00    -0.386 OA
ATOM     25  H   UNL     1      11.657   0.812  -1.121  0.00  0.00    +0.210 HD
ENDBRANCH  21  24
BRANCH  20  26
ATOM     26  O   UNL     1      10.715  -1.181   0.208  0.00  0.00    -0.386 OA
ATOM     27  H   UNL     1      10.743  -1.725   1.008  0.00  0.00    +0.210 HD
ENDBRANCH  20  26
BRANCH  19  28
ATOM     28  O   UNL     1       8.208  -1.773   1.451  0.00  0.00    -0.383 OA
ATOM     29  H   UNL     1       7.401  -2.296   1.553  0.00  0.00    +0.210 HD
ENDBRANCH  19  28
BRANCH  22  30
ATOM     30  C   UNL     1       8.431   2.173  -2.567  0.00  0.00    +0.190 C 
BRANCH  30  31
ATOM     31  O   UNL     1       7.343   3.099  -2.597  0.00  0.00    -0.392 OA
ATOM     32  H   UNL     1       7.288   3.615  -3.413  0.00  0.00    +0.210 HD
ENDBRANCH  30  31
ENDBRANCH  22  30
ENDBRANCH  17  18
ENDBRANCH   6  17
TORSDOF 7
