REMARK  Name = ZINC12250136
REMARK  11 active torsions:
REMARK  status: ('A' for Active; 'I' for Inactive)
REMARK    1  A    between atoms: C_1  and  C_2
REMARK    2  A    between atoms: C_2  and  C_3
REMARK    3  A    between atoms: C_6  and  N_9
REMARK    4  A    between atoms: C_10  and  C_12
REMARK    5  A    between atoms: C_13  and  C_37
REMARK    6  A    between atoms: C_15  and  S_26
REMARK    7  A    between atoms: C_16  and  C_24
REMARK    8  A    between atoms: C_17  and  C_19
REMARK    9  A    between atoms: S_26  and  C_27
REMARK   10  A    between atoms: C_27  and  C_28
REMARK   11  A    between atoms: N_30  and  C_31
REMARK                            x       y       z     vdW  Elec       q    Type
REMARK                         _______ _______ _______ _____ _____    ______ ____
ROOT
ATOM      1  C   UNL     1      -1.513  -2.488   0.324  0.00  0.00    +0.047 C 
ATOM      2  C   UNL     1      -2.579  -3.303   0.373  0.00  0.00    +0.015 C 
ATOM      3  N   UNL     1      -2.426  -4.658   0.491  0.00  0.00    -0.312 N 
ATOM      4  C   UNL     1      -1.231  -5.183   0.930  0.00  0.00    +0.080 C 
ATOM      5  C   UNL     1      -0.097  -4.431   0.907  0.00  0.00    +0.072 C 
ATOM      6  C   UNL     1      -0.109  -3.018   0.398  0.00  0.00    +0.134 C 
ATOM      7  C   UNL     1      -3.965  -2.718   0.291  0.00  0.00    +0.061 C 
ATOM      8  H   UNL     1      -3.258  -5.330   0.235  0.00  0.00    +0.152 HD
ENDROOT
BRANCH   6   9
ATOM      9  C   UNL     1       0.507  -2.981  -0.977  0.00  0.00    +0.118 A 
ATOM     10  C   UNL     1       1.612  -2.297  -1.326  0.00  0.00    +0.045 A 
ATOM     11  C   UNL     1       1.829  -2.544  -2.701  0.00  0.00    +0.041 A 
ATOM     12  C   UNL     1       0.845  -3.364  -3.110  0.00  0.00    +0.195 A 
ATOM     13  O   UNL     1       0.050  -3.630  -2.060  0.00  0.00    -0.467 OA
ENDBRANCH   6   9
BRANCH   1  15
ATOM     14  N   UNL     1      -0.662  -0.267   0.062  0.00  0.00    -0.282 N 
ATOM     15  C   UNL     1      -1.717  -1.093   0.206  0.00  0.00    +0.247 C 
ATOM     16  O   UNL     1      -2.847  -0.638   0.235  0.00  0.00    -0.270 OA
ATOM     17  H   UNL     1       0.352  -0.681  -0.034  0.00  0.00    +0.155 HD
BRANCH  14  21
ATOM     18  C   UNL     1      -1.241   3.858  -0.015  0.00  0.00    -0.048 A 
ATOM     19  C   UNL     1      -2.185   3.018  -0.578  0.00  0.00    +0.005 A 
ATOM     20  C   UNL     1      -1.996   1.650  -0.554  0.00  0.00    +0.023 A 
ATOM     21  C   UNL     1      -0.857   1.118   0.036  0.00  0.00    +0.034 A 
ATOM     22  C   UNL     1       0.086   1.964   0.606  0.00  0.00    +0.023 A 
ATOM     23  C   UNL     1      -0.106   3.331   0.573  0.00  0.00    +0.005 A 
BRANCH  18  25
ATOM     24  C   UNL     1      -2.211   5.781   1.213  0.00  0.00    +0.009 C 
ATOM     25  C   UNL     1      -1.451   5.350  -0.043  0.00  0.00    +0.032 C 
ENDBRANCH  18  25
ENDBRANCH  14  21
ENDBRANCH   1  15
BRANCH   5  26
ATOM     26  C   UNL     1       1.131  -4.998   1.378  0.00  0.00    +0.098 C 
ATOM     27  N   UNL     1       2.105  -5.447   1.751  0.00  0.00    -0.191 NA
ENDBRANCH   5  26
BRANCH   4  28
ATOM     28  S   UNL     1      -1.170  -6.839   1.527  0.00  0.00    -0.100 S 
BRANCH  28  29
ATOM     29  C   UNL     1      -2.905  -7.311   1.323  0.00  0.00    +0.171 C 
BRANCH  29  30
ATOM     30  C   UNL     1      -3.097  -8.733   1.783  0.00  0.00    +0.227 C 
ATOM     31  O   UNL     1      -2.153  -9.366   2.207  0.00  0.00    -0.275 OA
ATOM     32  N   UNL     1      -4.317  -9.302   1.723  0.00  0.00    -0.285 N 
ATOM     33  H   UNL     1      -5.186  -8.707   1.407  0.00  0.00    +0.155 HD
BRANCH  32  34
ATOM     34  C   UNL     1      -4.478 -10.650   2.064  0.00  0.00    +0.033 A 
ATOM     35  C   UNL     1      -5.408 -11.431   1.391  0.00  0.00    +0.023 A 
ATOM     36  C   UNL     1      -5.560 -12.763   1.726  0.00  0.00    +0.002 A 
ATOM     37  C   UNL     1      -4.796 -13.314   2.738  0.00  0.00    +0.000 A 
ATOM     38  C   UNL     1      -3.874 -12.537   3.414  0.00  0.00    +0.002 A 
ATOM     39  C   UNL     1      -3.712 -11.207   3.080  0.00  0.00    +0.023 A 
ENDBRANCH  32  34
ENDBRANCH  29  30
ENDBRANCH  28  29
ENDBRANCH   4  28
TORSDOF 9
