REMARK  Name = ZINC61675443
REMARK  6 active torsions:
REMARK  status: ('A' for Active; 'I' for Inactive)
REMARK    1  A    between atoms: C_1  and  C_2
REMARK    2  A    between atoms: C_2  and  C_3
REMARK    3  A    between atoms: C_2  and  C_4
REMARK    4  A    between atoms: C_2  and  C_5
REMARK    5  A    between atoms: C_8  and  C_12
REMARK    6  A    between atoms: C_9  and  N_11
REMARK                            x       y       z     vdW  Elec       q    Type
REMARK                         _______ _______ _______ _____ _____    ______ ____
ROOT
ATOM      1  C   UNL     1       0.707  -0.490  -1.238  0.00  0.00    +0.136 A 
ATOM      2  N   UNL     1       0.047  -1.246  -2.092  0.00  0.00    -0.239 NA
ATOM      3  C   UNL     1       0.624  -1.697  -3.195  0.00  0.00    +0.124 A 
ATOM      4  C   UNL     1       1.952  -1.362  -3.449  0.00  0.00    +0.041 A 
ATOM      5  C   UNL     1       2.622  -0.553  -2.513  0.00  0.00    +0.127 A 
ATOM      6  N   UNL     1       1.963  -0.141  -1.436  0.00  0.00    -0.217 NA
ENDROOT
BRANCH   4   7
ATOM      7  C   UNL     1       2.640  -1.844  -4.671  0.00  0.00    +0.001 A 
ATOM      8  C   UNL     1       2.216  -1.417  -5.928  0.00  0.00    +0.010 A 
ATOM      9  C   UNL     1       2.860  -1.868  -7.062  0.00  0.00    +0.001 A 
ATOM     10  C   UNL     1       3.926  -2.744  -6.953  0.00  0.00    +0.001 A 
ATOM     11  C   UNL     1       4.352  -3.172  -5.709  0.00  0.00    +0.016 A 
ATOM     12  C   UNL     1       3.718  -2.722  -4.567  0.00  0.00    +0.026 A 
ATOM     13 BR   UNL     1       4.307  -3.303  -2.866  0.00  0.00    -0.050 Br
ENDBRANCH   4   7
BRANCH   1  15
ATOM     14  C   UNL     1      -0.019   1.526   0.010  0.00  0.00    +0.019 C 
ATOM     15  C   UNL     1       0.002  -0.004   0.002  0.00  0.00    +0.022 C 
ATOM     16  C   UNL     1       0.742  -0.511   1.242  0.00  0.00    +0.019 C 
ATOM     17  C   UNL     1      -1.433  -0.534   0.013  0.00  0.00    +0.019 C 
ENDBRANCH   1  15
BRANCH   5  18
ATOM     18  N   UNL     1       3.942  -0.189  -2.714  0.00  0.00    -0.343 N 
ATOM     19  H   UNL     1       4.414  -0.491  -3.505  0.00  0.00    +0.144 HD
ATOM     20  H   UNL     1       4.395   0.370  -2.063  0.00  0.00    +0.144 HD
ENDBRANCH   5  18
TORSDOF 3
