REMARK  Name = ZINC21469554
REMARK  7 active torsions:
REMARK  status: ('A' for Active; 'I' for Inactive)
REMARK    1  A    between atoms: C_1  and  C_2
REMARK    2  A    between atoms: C_4  and  C_7
REMARK    3  A    between atoms: C_7  and  O_8
REMARK    4  A    between atoms: O_8  and  C_9
REMARK    5  A    between atoms: C_14  and  C_15
REMARK    6  A    between atoms: C_16  and  C_17
REMARK    7  A    between atoms: N_23  and  C_25
REMARK                            x       y       z     vdW  Elec       q    Type
REMARK                         _______ _______ _______ _____ _____    ______ ____
ROOT
ATOM      1  C   UNL     1       6.655  -5.319  -0.092  0.00  0.00    +0.128 A 
ATOM      2  C   UNL     1       7.084  -6.637  -0.102  0.00  0.00    +0.046 A 
ATOM      3  C   UNL     1       6.163  -7.666  -0.098  0.00  0.00    +0.004 A 
ATOM      4  C   UNL     1       4.805  -7.392  -0.084  0.00  0.00    +0.001 A 
ATOM      5  C   UNL     1       4.358  -6.089  -0.067  0.00  0.00    +0.011 A 
ATOM      6  C   UNL     1       5.280  -5.036  -0.076  0.00  0.00    +0.017 A 
ENDROOT
BRANCH   6   7
ATOM      7  C   UNL     1       4.811  -3.643  -0.064  0.00  0.00    +0.016 C 
ATOM      8  C   UNL     1       3.488  -3.376  -0.050  0.00  0.00    +0.068 C 
BRANCH   8   9
ATOM      9  C   UNL     1       3.022  -1.990  -0.038  0.00  0.00    +0.242 C 
ATOM     10  O   UNL     1       3.827  -1.077  -0.041  0.00  0.00    -0.270 OA
ATOM     11  N   UNL     1       1.701  -1.724  -0.023  0.00  0.00    -0.265 N 
ATOM     12  C   UNL     1       1.254  -0.396  -0.012  0.00  0.00    +0.147 A 
ATOM     13  C   UNL     1       2.069   0.748  -0.014  0.00  0.00    +0.065 A 
ATOM     14  C   UNL     1       1.260   1.832  -0.000  0.00  0.00    +0.110 A 
ATOM     15  N   UNL     1      -0.017   1.397   0.010  0.00  0.00    -0.273 N 
ATOM     16  N   UNL     1       0.002  -0.004   0.002  0.00  0.00    -0.156 NA
ATOM     17  C   UNL     1      -1.214   2.241   0.020  0.00  0.00    +0.172 C 
ATOM     18  H   UNL     1       0.973  -2.549  -0.020  0.00  0.00    +0.157 HD
ENDBRANCH   8   9
ENDBRANCH   6   7
BRANCH   1  19
ATOM     19  O   UNL     1       7.559  -4.307  -0.096  0.00  0.00    -0.485 OA
BRANCH  19  20
ATOM     20  C   UNL     1       8.940  -4.672  -0.112  0.00  0.00    +0.285 C 
BRANCH  20  24
ATOM     21  C   UNL     1      13.357  -2.322  -0.146  0.00  0.00    +0.073 C 
ATOM     22  C   UNL     1      11.854  -2.428  -0.132  0.00  0.00    +0.076 A 
ATOM     23  N   UNL     1      11.103  -3.505  -0.129  0.00  0.00    -0.246 NA
ATOM     24  C   UNL     1       9.789  -3.426  -0.115  0.00  0.00    +0.086 A 
ATOM     25  C   UNL     1       9.216  -2.195  -0.109  0.00  0.00    +0.073 A 
ATOM     26  S   UNL     1      10.671  -1.157  -0.113  0.00  0.00    -0.080 S 
ENDBRANCH  20  24
ENDBRANCH  19  20
ENDBRANCH   1  19
TORSDOF 5
