REMARK  Name = ZINC05315032
REMARK  8 active torsions:
REMARK  status: ('A' for Active; 'I' for Inactive)
REMARK    1  A    between atoms: C_1  and  C_2
REMARK    2  A    between atoms: C_5  and  O_26
REMARK    3  A    between atoms: C_6  and  C_8
REMARK    4  A    between atoms: C_8  and  N_9
REMARK    5  A    between atoms: C_12  and  C_16
REMARK    6  A    between atoms: C_12  and  C_17
REMARK    7  A    between atoms: C_20  and  N_23
REMARK    8  A    between atoms: O_26  and  C_27
REMARK                            x       y       z     vdW  Elec       q    Type
REMARK                         _______ _______ _______ _____ _____    ______ ____
ROOT
ATOM      1  N   UNL     1       1.420  -3.276   2.788  0.00  0.00    -0.219 N 
ATOM      2  C   UNL     1       1.945  -4.449   2.384  0.00  0.00    +0.251 C 
ATOM      3  O   UNL     1       1.395  -5.312   1.732  0.00  0.00    -0.272 OA
ATOM      4  C   UNL     1       3.365  -4.467   2.912  0.00  0.00    +0.135 C 
ATOM      5  N   UNL     1       3.488  -3.180   3.618  0.00  0.00    -0.281 N 
ATOM      6  C   UNL     1       2.304  -2.554   3.486  0.00  0.00    +0.310 C 
ATOM      7  O   UNL     1       2.064  -1.458   3.952  0.00  0.00    -0.252 OA
ATOM      8  C   UNL     1       3.565  -5.634   3.880  0.00  0.00    +0.047 C 
ATOM      9  H   UNL     1       4.270  -2.848   4.085  0.00  0.00    +0.152 HD
ENDROOT
BRANCH   4  10
ATOM     10  C   UNL     1       4.352  -4.544   1.776  0.00  0.00    -0.015 A 
ATOM     11  C   UNL     1       4.003  -5.179   0.598  0.00  0.00    +0.008 A 
ATOM     12  C   UNL     1       4.909  -5.249  -0.444  0.00  0.00    +0.033 A 
ATOM     13  C   UNL     1       6.163  -4.684  -0.309  0.00  0.00    +0.126 A 
ATOM     14  C   UNL     1       6.512  -4.048   0.868  0.00  0.00    +0.033 A 
ATOM     15  C   UNL     1       5.605  -3.974   1.908  0.00  0.00    +0.008 A 
BRANCH  13  16
ATOM     16  N   UNL     1       7.133  -4.760  -1.425  0.00  0.00    +0.056 N 
ATOM     17  O   UNL     1       6.828  -5.317  -2.454  0.00  0.00    -0.126 OA
ATOM     18  O   UNL     1       8.230  -4.266  -1.307  0.00  0.00    -0.126 OA
ENDBRANCH  13  16
ENDBRANCH   4  10
BRANCH   1  19
ATOM     19  C   UNL     1       0.052  -2.841   2.493  0.00  0.00    +0.156 C 
BRANCH  19  25
ATOM     20  C   UNL     1      -0.018   1.503   0.010  0.00  0.00    +0.044 C 
ATOM     21  C   UNL     1       0.002  -0.004   0.002  0.00  0.00    -0.050 A 
ATOM     22  C   UNL     1       0.006  -0.688  -1.200  0.00  0.00    +0.007 A 
ATOM     23  C   UNL     1       0.024  -2.069  -1.210  0.00  0.00    +0.046 A 
ATOM     24  C   UNL     1       0.039  -2.770  -0.013  0.00  0.00    +0.125 A 
ATOM     25  C   UNL     1       0.036  -2.082   1.191  0.00  0.00    +0.012 A 
ATOM     26  C   UNL     1       0.023  -0.701   1.196  0.00  0.00    +0.012 A 
BRANCH  24  27
ATOM     27  O   UNL     1       0.057  -4.129  -0.021  0.00  0.00    -0.495 OA
ATOM     28  C   UNL     1       0.058  -4.771  -1.298  0.00  0.00    +0.277 C 
ENDBRANCH  24  27
ENDBRANCH  19  25
ENDBRANCH   1  19
TORSDOF 5
