REMARK  Name = ZINC06893707
REMARK  8 active torsions:
REMARK  status: ('A' for Active; 'I' for Inactive)
REMARK    1  A    between atoms: C_1  and  C_2
REMARK    2  A    between atoms: C_5  and  N_8
REMARK    3  A    between atoms: N_8  and  C_9
REMARK    4  A    between atoms: N_8  and  S_10
REMARK    5  A    between atoms: S_10  and  C_13
REMARK    6  A    between atoms: C_15  and  C_19
REMARK    7  A    between atoms: C_19  and  O_21
REMARK    8  A    between atoms: O_21  and  C_22
REMARK                            x       y       z     vdW  Elec       q    Type
REMARK                         _______ _______ _______ _____ _____    ______ ____
ROOT
ATOM      1  S   UNL     1       0.002  -0.004   0.002  0.00  0.00    +0.076 S 
ATOM      2  O   UNL     1      -1.243  -0.424  -0.539  0.00  0.00    -0.150 OA
ATOM      3  O   UNL     1       1.248  -0.390  -0.563  0.00  0.00    -0.150 OA
ENDROOT
BRANCH   1   4
ATOM      4  C   UNL     1       0.025  -0.534   1.682  0.00  0.00    +0.127 A 
ATOM      5  C   UNL     1      -1.094  -0.797   2.478  0.00  0.00    +0.063 A 
ATOM      6  C   UNL     1      -0.625  -1.183   3.717  0.00  0.00    +0.126 A 
ATOM      7  N   UNL     1       0.751  -1.153   3.666  0.00  0.00    -0.354 N 
ATOM      8  H   UNL     1       1.348  -1.378   4.397  0.00  0.00    +0.166 HD
ATOM      9  C   UNL     1       1.131  -0.765   2.431  0.00  0.00    +0.112 A 
BRANCH   6  10
ATOM     10  C   UNL     1      -1.441  -1.557   4.875  0.00  0.00    +0.355 C 
ATOM     11  O   UNL     1      -2.655  -1.544   4.793  0.00  0.00    -0.243 OA
BRANCH  10  12
ATOM     12  O   UNL     1      -0.847  -1.916   6.031  0.00  0.00    -0.463 OA
ATOM     13  C   UNL     1      -1.719  -2.274   7.136  0.00  0.00    +0.280 C 
ENDBRANCH  10  12
ENDBRANCH   6  10
ENDBRANCH   1   4
BRANCH   1  14
ATOM     14  N   UNL     1      -0.020   1.652   0.011  0.00  0.00    -0.206 N 
ATOM     15  C   UNL     1      -1.299   2.367   0.021  0.00  0.00    +0.157 C 
BRANCH  14  20
ATOM     16  C   UNL     1       4.851   4.554  -0.019  0.00  0.00    +0.044 C 
ATOM     17  C   UNL     1       3.557   3.783  -0.011  0.00  0.00    -0.050 A 
ATOM     18  C   UNL     1       2.403   4.366  -0.503  0.00  0.00    +0.005 A 
ATOM     19  C   UNL     1       1.215   3.662  -0.498  0.00  0.00    +0.025 A 
ATOM     20  C   UNL     1       1.180   2.366   0.004  0.00  0.00    +0.051 A 
ATOM     21  C   UNL     1       2.339   1.786   0.503  0.00  0.00    +0.025 A 
ATOM     22  C   UNL     1       3.525   2.494   0.489  0.00  0.00    +0.005 A 
ENDBRANCH  14  20
ENDBRANCH   1  14
TORSDOF 5
