REMARK  Name = ZINC40382786
REMARK  10 active torsions:
REMARK  status: ('A' for Active; 'I' for Inactive)
REMARK    1  A    between atoms: C_1  and  C_2
REMARK    2  A    between atoms: C_7  and  C_39
REMARK    3  A    between atoms: C_22  and  C_24
REMARK    4  A    between atoms: N_26  and  C_27
REMARK    5  A    between atoms: C_29  and  O_37
REMARK    6  A    between atoms: C_30  and  O_35
REMARK    7  A    between atoms: C_31  and  O_33
REMARK    8  A    between atoms: O_33  and  C_34
REMARK    9  A    between atoms: O_35  and  C_36
REMARK   10  A    between atoms: O_37  and  C_38
REMARK                            x       y       z     vdW  Elec       q    Type
REMARK                         _______ _______ _______ _____ _____    ______ ____
ROOT
ATOM      1  C   UNL     1       2.751  -1.358   0.652  0.00  0.00    +0.028 C 
ATOM      2  C   UNL     1       1.959  -0.495   1.637  0.00  0.00    +0.073 C 
ATOM      3  C   UNL     1       2.382   0.970   1.491  0.00  0.00    +0.022 C 
ATOM      4  C   UNL     1       1.985   1.476   0.103  0.00  0.00    +0.004 C 
ATOM      5  C   UNL     1       0.465   1.395  -0.055  0.00  0.00    +0.022 C 
ATOM      6  C   UNL     1       0.019  -0.065   0.073  0.00  0.00    +0.073 C 
ATOM      7  N   UNL     1       0.523  -0.606   1.346  0.00  0.00    -0.295 N 
ATOM      8  C   UNL     1      -0.326  -1.198   2.242  0.00  0.00    +0.200 A 
ATOM      9  N   UNL     1       0.146  -1.563   3.465  0.00  0.00    -0.295 N 
ATOM     10  H   UNL     1       1.072  -1.392   3.697  0.00  0.00    +0.172 HD
ATOM     11  C   UNL     1      -0.674  -2.164   4.354  0.00  0.00    +0.258 A 
ATOM     12  O   UNL     1      -0.258  -2.511   5.448  0.00  0.00    -0.267 OA
ATOM     13  C   UNL     1      -2.008  -2.380   3.996  0.00  0.00    +0.069 A 
ATOM     14  C   UNL     1      -2.445  -1.972   2.749  0.00  0.00    +0.138 A 
ATOM     15  N   UNL     1      -1.583  -1.396   1.902  0.00  0.00    -0.200 NA
ATOM     16  N   UNL     1      -3.771  -2.135   2.386  0.00  0.00    -0.270 N 
ATOM     17  C   UNL     1      -4.705  -2.442   3.303  0.00  0.00    +0.219 C 
ATOM     18  O   UNL     1      -5.838  -2.685   2.945  0.00  0.00    -0.275 OA
ATOM     19  C   UNL     1      -4.361  -2.488   4.768  0.00  0.00    +0.114 C 
ATOM     20  C   UNL     1      -2.954  -3.058   4.951  0.00  0.00    +0.122 C 
ATOM     21  C   UNL     1      -1.509  -0.140   0.051  0.00  0.00    +0.028 C 
ATOM     22  H   UNL     1      -4.030  -2.026   1.458  0.00  0.00    +0.156 HD
ENDROOT
BRANCH  20  23
ATOM     23  C   UNL     1      -2.495  -2.819   6.366  0.00  0.00    +0.225 C 
ATOM     24  O   UNL     1      -2.496  -1.696   6.822  0.00  0.00    -0.275 OA
ATOM     25  N   UNL     1      -2.083  -3.854   7.125  0.00  0.00    -0.285 N 
ATOM     26  H   UNL     1      -2.145  -4.760   6.784  0.00  0.00    +0.155 HD
BRANCH  25  27
ATOM     27  C   UNL     1      -1.566  -3.622   8.406  0.00  0.00    +0.041 A 
ATOM     28  C   UNL     1      -2.088  -2.602   9.190  0.00  0.00    +0.073 A 
ATOM     29  C   UNL     1      -1.577  -2.371  10.457  0.00  0.00    +0.167 A 
ATOM     30  C   UNL     1      -0.541  -3.161  10.943  0.00  0.00    +0.204 A 
ATOM     31  C   UNL     1      -0.019  -4.181  10.157  0.00  0.00    +0.167 A 
ATOM     32  C   UNL     1      -0.535  -4.415   8.892  0.00  0.00    +0.073 A 
BRANCH  31  33
ATOM     33  O   UNL     1       0.994  -4.954  10.631  0.00  0.00    -0.491 OA
ATOM     34  C   UNL     1       1.482  -5.985   9.770  0.00  0.00    +0.277 C 
ENDBRANCH  31  33
BRANCH  30  35
ATOM     35  O   UNL     1      -0.038  -2.934  12.188  0.00  0.00    -0.488 OA
ATOM     36  C   UNL     1      -0.648  -3.638  13.272  0.00  0.00    +0.277 C 
ENDBRANCH  30  35
BRANCH  29  37
ATOM     37  O   UNL     1      -2.088  -1.372  11.225  0.00  0.00    -0.491 OA
ATOM     38  C   UNL     1      -3.151  -0.600  10.662  0.00  0.00    +0.277 C 
ENDBRANCH  29  37
ENDBRANCH  25  27
ENDBRANCH  20  23
TORSDOF 5
