REMARK  Name = ZINC49087681
REMARK  5 active torsions:
REMARK  status: ('A' for Active; 'I' for Inactive)
REMARK    1  A    between atoms: C_3  and  C_8
REMARK    2  A    between atoms: C_5  and  C_6
REMARK    3  A    between atoms: C_6  and  O_7
REMARK    4  A    between atoms: C_14  and  N_20
REMARK    5  A    between atoms: C_15  and  C_17
REMARK                            x       y       z     vdW  Elec       q    Type
REMARK                         _______ _______ _______ _____ _____    ______ ____
ROOT
ATOM      1  C   UNL     1       3.571   0.619  -0.029  0.00  0.00    +0.033 A 
ATOM      2  C   UNL     1       4.229   0.084  -1.169  0.00  0.00    -0.017 A 
ATOM      3  C   UNL     1       5.599   0.053  -1.154  0.00  0.00    +0.021 A 
ATOM      4  N   UNL     1       6.278   0.545  -0.119  0.00  0.00    -0.352 N 
ATOM      5  C   UNL     1       5.713   1.058   0.941  0.00  0.00    +0.088 A 
ATOM      6  C   UNL     1       4.305   1.117   1.084  0.00  0.00    +0.038 A 
ATOM      7  C   UNL     1       3.853   1.671   2.346  0.00  0.00    +0.054 A 
ATOM      8  C   UNL     1       4.798   2.112   3.257  0.00  0.00    +0.097 A 
ATOM      9  S   UNL     1       6.342   1.787   2.433  0.00  0.00    -0.064 S 
ATOM     10  C   UNL     1       6.482  -0.529  -2.231  0.00  0.00    +0.053 C 
ATOM     11  C   UNL     1       6.564   0.374  -3.446  0.00  0.00    +0.006 C 
ATOM     12  C   UNL     1       5.312   1.211  -3.662  0.00  0.00    +0.000 C 
ATOM     13  C   UNL     1       4.356   0.291  -4.389  0.00  0.00    +0.000 C 
ATOM     14  C   UNL     1       3.890  -0.875  -3.523  0.00  0.00    +0.005 C 
ATOM     15  C   UNL     1       3.262  -0.366  -2.239  0.00  0.00    +0.037 C 
ATOM     16  H   UNL     1       7.249   0.521  -0.158  0.00  0.00    +0.166 HD
ENDROOT
BRANCH   1  19
ATOM     17  C   UNL     1      -0.016   1.345   0.009  0.00  0.00    +0.047 A 
ATOM     18  C   UNL     1       1.323   1.776  -0.001  0.00  0.00    +0.050 A 
ATOM     19  C   UNL     1       2.096   0.654  -0.014  0.00  0.00    +0.136 A 
ATOM     20  O   UNL     1       1.279  -0.417  -0.012  0.00  0.00    -0.457 OA
ATOM     21  C   UNL     1       0.002  -0.004   0.002  0.00  0.00    +0.131 A 
BRANCH  21  22
ATOM     22  C   UNL     1      -1.210  -0.899   0.009  0.00  0.00    +0.230 C 
BRANCH  22  23
ATOM     23  O   UNL     1      -1.607  -1.174  -1.336  0.00  0.00    -0.387 OA
ATOM     24  H   UNL     1      -2.384  -1.746  -1.407  0.00  0.00    +0.210 HD
ENDBRANCH  22  23
ENDBRANCH  21  22
ENDBRANCH   1  19
BRANCH   8  25
ATOM     25  C   UNL     1       4.580   2.683   4.534  0.00  0.00    +0.250 C 
ATOM     26  O   UNL     1       3.445   2.835   4.947  0.00  0.00    -0.270 OA
ATOM     27  N   UNL     1       5.630   3.058   5.292  0.00  0.00    -0.325 N 
ATOM     28  H   UNL     1       6.534   2.936   4.963  0.00  0.00    +0.145 HD
ATOM     29  H   UNL     1       5.481   3.449   6.167  0.00  0.00    +0.145 HD
ENDBRANCH   8  25
BRANCH   7  30
ATOM     30  N   UNL     1       2.511   1.778   2.688  0.00  0.00    -0.356 N 
ATOM     31  H   UNL     1       1.827   1.474   2.070  0.00  0.00    +0.142 HD
ATOM     32  H   UNL     1       2.257   2.156   3.544  0.00  0.00    +0.142 HD
ENDBRANCH   7  30
TORSDOF 5
