REMARK  Name = ZINC39887613
REMARK  6 active torsions:
REMARK  status: ('A' for Active; 'I' for Inactive)
REMARK    1  A    between atoms: C_1  and  C_2
REMARK    2  A    between atoms: C_2  and  O_3
REMARK    3  A    between atoms: O_3  and  C_4
REMARK    4  A    between atoms: C_7  and  N_10
REMARK    5  A    between atoms: C_11  and  C_21
REMARK    6  A    between atoms: C_16  and  C_19
REMARK                            x       y       z     vdW  Elec       q    Type
REMARK                         _______ _______ _______ _____ _____    ______ ____
ROOT
ATOM      1  N   UNL     1       1.135  -5.956   1.754  0.00  0.00    -0.270 N 
ATOM      2  C   UNL     1       1.911  -6.527   2.860  0.00  0.00    +0.197 C 
ATOM      3  N   UNL     1       1.150  -7.606   3.494  0.00  0.00    -0.288 N 
ATOM      4  C   UNL     1       0.288  -8.352   2.774  0.00  0.00    +0.258 C 
ATOM      5  O   UNL     1      -0.310  -9.274   3.299  0.00  0.00    -0.269 OA
ATOM      6  C   UNL     1       0.075  -8.047   1.357  0.00  0.00    +0.142 C 
ATOM      7  C   UNL     1       0.515  -6.806   0.873  0.00  0.00    +0.103 C 
ATOM      8  S   UNL     1       0.281  -6.357  -0.815  0.00  0.00    -0.033 SA
ATOM      9  H   UNL     1       1.266  -7.785   4.440  0.00  0.00    +0.151 HD
ENDROOT
BRANCH   1  13
ATOM     10  C   UNL     1       0.804  -1.825   1.306  0.00  0.00    +0.121 A 
ATOM     11  C   UNL     1       0.220  -2.453   2.396  0.00  0.00    +0.047 A 
ATOM     12  C   UNL     1       0.329  -3.821   2.545  0.00  0.00    +0.027 A 
ATOM     13  C   UNL     1       1.023  -4.569   1.603  0.00  0.00    +0.037 A 
ATOM     14  C   UNL     1       1.607  -3.940   0.512  0.00  0.00    +0.027 A 
ATOM     15  C   UNL     1       1.493  -2.572   0.361  0.00  0.00    +0.047 A 
BRANCH  10  16
ATOM     16  O   UNL     1       0.697  -0.477   1.160  0.00  0.00    -0.492 OA
BRANCH  16  18
ATOM     17  C   UNL     1      -0.040   1.723   1.837  0.00  0.00    +0.048 C 
ATOM     18  C   UNL     1      -0.026   0.229   2.170  0.00  0.00    +0.225 C 
ENDBRANCH  16  18
ENDBRANCH  10  16
ENDBRANCH   1  13
BRANCH   2  19
ATOM     19  C   UNL     1       3.210  -7.076   2.330  0.00  0.00    -0.009 A 
ATOM     20  C   UNL     1       3.804  -6.499   1.223  0.00  0.00    +0.007 A 
ATOM     21  C   UNL     1       4.995  -7.003   0.736  0.00  0.00    +0.000 A 
ATOM     22  C   UNL     1       5.593  -8.084   1.357  0.00  0.00    +0.000 A 
ATOM     23  C   UNL     1       5.000  -8.660   2.465  0.00  0.00    +0.000 A 
ATOM     24  C   UNL     1       3.811  -8.153   2.954  0.00  0.00    +0.007 A 
ENDBRANCH   2  19
BRANCH   6  25
ATOM     25  C   UNL     1      -0.569  -8.989   0.492  0.00  0.00    +0.107 C 
ATOM     26  N   UNL     1      -1.080  -9.736  -0.195  0.00  0.00    -0.191 NA
ENDBRANCH   6  25
TORSDOF 5
