REMARK  Name = ZINC36505404
REMARK  19 active torsions:
REMARK  status: ('A' for Active; 'I' for Inactive)
REMARK    1  A    between atoms: C_1  and  C_2
REMARK    2  A    between atoms: C_2  and  C_3
REMARK    3  A    between atoms: C_2  and  C_4
REMARK    4  A    between atoms: C_2  and  C_5
REMARK    5  A    between atoms: C_5  and  C_6
REMARK    6  A    between atoms: C_6  and  C_7
REMARK    7  A    between atoms: C_6  and  C_8
REMARK    8  A    between atoms: C_6  and  N_9
REMARK    9  A    between atoms: C_10  and  C_12
REMARK   10  A    between atoms: C_12  and  C_14
REMARK   11  A    between atoms: C_12  and  N_23
REMARK   12  A    between atoms: C_15  and  O_22
REMARK   13  A    between atoms: C_17  and  O_21
REMARK   14  A    between atoms: C_19  and  O_20
REMARK   15  A    between atoms: N_23  and  C_24
REMARK   16  A    between atoms: C_24  and  C_25
REMARK   17  A    between atoms: C_30  and  C_32
REMARK   18  A    between atoms: C_32  and  O_33
REMARK   19  A    between atoms: O_33  and  C_34
REMARK                            x       y       z     vdW  Elec       q    Type
REMARK                         _______ _______ _______ _____ _____    ______ ____
ROOT
ATOM      1  C   UNL     1       5.490  -0.364  -4.728  0.00  0.00    +0.200 C 
ENDROOT
BRANCH   1   2
ATOM      2  C   UNL     1       4.948   0.712  -5.633  0.00  0.00    +0.065 A 
ATOM      3  C   UNL     1       5.483   1.990  -5.588  0.00  0.00    +0.129 A 
ATOM      4  C   UNL     1       4.984   2.981  -6.421  0.00  0.00    +0.091 A 
ATOM      5  C   UNL     1       3.951   2.692  -7.300  0.00  0.00    +0.124 A 
ATOM      6  C   UNL     1       3.417   1.413  -7.346  0.00  0.00    +0.091 A 
ATOM      7  C   UNL     1       3.918   0.422  -6.516  0.00  0.00    +0.129 A 
BRANCH   7   8
ATOM      8  O   UNL     1       3.398  -0.832  -6.564  0.00  0.00    -0.506 OA
ATOM      9  H   UNL     1       2.655  -0.974  -5.960  0.00  0.00    +0.292 HD
ENDBRANCH   7   8
BRANCH   5  10
ATOM     10  O   UNL     1       3.462   3.663  -8.115  0.00  0.00    -0.507 OA
ATOM     11  H   UNL     1       3.909   3.720  -8.971  0.00  0.00    +0.292 HD
ENDBRANCH   5  10
BRANCH   3  12
ATOM     12  O   UNL     1       6.496   2.273  -4.727  0.00  0.00    -0.506 OA
ATOM     13  H   UNL     1       7.377   2.206  -5.120  0.00  0.00    +0.292 HD
ENDBRANCH   3  12
ENDBRANCH   1   2
BRANCH   1  15
ATOM     14  N   UNL     1       3.894  -0.698  -2.868  0.00  0.00    -0.308 N 
ATOM     15  C   UNL     1       5.024  -0.116  -3.317  0.00  0.00    +0.239 C 
ATOM     16  O   UNL     1       5.664   0.609  -2.585  0.00  0.00    -0.273 OA
ATOM     17  H   UNL     1       3.382  -1.278  -3.453  0.00  0.00    +0.149 HD
BRANCH  14  18
ATOM     18  C   UNL     1       3.441  -0.457  -1.496  0.00  0.00    +0.030 C 
ATOM     19  C   UNL     1       3.520   1.040  -1.189  0.00  0.00    +0.031 C 
ATOM     20  C   UNL     1       4.335  -1.225  -0.521  0.00  0.00    +0.031 C 
BRANCH  18  21
ATOM     21  C   UNL     1       1.994  -0.932  -1.346  0.00  0.00    +0.031 C 
BRANCH  21  23
ATOM     22  C   UNL     1       1.397  -1.438  -3.719  0.00  0.00    +0.010 C 
ATOM     23  C   UNL     1       1.177  -0.470  -2.554  0.00  0.00    -0.036 C 
ATOM     24  C   UNL     1       1.625   0.933  -2.966  0.00  0.00    +0.010 C 
ATOM     25  C   UNL     1      -0.307  -0.445  -2.186  0.00  0.00    +0.010 C 
ENDBRANCH  21  23
ENDBRANCH  18  21
ENDBRANCH  14  18
ENDBRANCH   1  15
BRANCH   1  26
ATOM     26  N   UNL     1       6.954  -0.345  -4.769  0.00  0.00    -0.276 N 
ATOM     27  C   UNL     1       7.600  -0.625  -5.918  0.00  0.00    +0.243 C 
ATOM     28  O   UNL     1       8.811  -0.695  -5.932  0.00  0.00    -0.273 OA
BRANCH  26  29
ATOM     29  C   UNL     1       7.717  -0.022  -3.561  0.00  0.00    +0.183 C 
BRANCH  29  30
ATOM     30  C   UNL     1       7.814  -1.245  -2.686  0.00  0.00    +0.122 A 
ATOM     31  C   UNL     1       8.790  -2.169  -2.730  0.00  0.00    +0.046 A 
ATOM     32  C   UNL     1       8.487  -3.134  -1.743  0.00  0.00    +0.041 A 
ATOM     33  C   UNL     1       7.343  -2.742  -1.154  0.00  0.00    +0.195 A 
ATOM     34  O   UNL     1       6.943  -1.594  -1.725  0.00  0.00    -0.466 OA
ENDBRANCH  29  30
ENDBRANCH  26  29
BRANCH  27  35
ATOM     35  C   UNL     1       6.818  -0.851  -7.187  0.00  0.00    +0.255 C 
BRANCH  35  36
ATOM     36  O   UNL     1       7.722  -1.024  -8.280  0.00  0.00    -0.374 OA
ATOM     37  C   UNL     1       7.079  -1.246  -9.536  0.00  0.00    +0.194 C 
ENDBRANCH  35  36
ENDBRANCH  27  35
ENDBRANCH   1  26
TORSDOF 13
