REMARK  Name = ZINC61377428
REMARK  7 active torsions:
REMARK  status: ('A' for Active; 'I' for Inactive)
REMARK    1  A    between atoms: C_1  and  N_2
REMARK    2  A    between atoms: C_10  and  C_12
REMARK    3  A    between atoms: C_13  and  C_14
REMARK    4  A    between atoms: N_16  and  C_17
REMARK    5  A    between atoms: C_21  and  N_23
REMARK    6  A    between atoms: N_23  and  S_24
REMARK    7  A    between atoms: S_24  and  N_27
REMARK                            x       y       z     vdW  Elec       q    Type
REMARK                         _______ _______ _______ _____ _____    ______ ____
ROOT
ATOM      1  C   UNL     1       7.284  -2.771  -1.001  0.00  0.00    +0.241 C 
ATOM      2  O   UNL     1       7.344  -3.963  -0.762  0.00  0.00    -0.270 OA
ATOM      3  N   UNL     1       8.392  -2.102  -1.376  0.00  0.00    -0.282 N 
ATOM      4  H   UNL     1       8.362  -1.139  -1.491  0.00  0.00    +0.155 HD
ENDROOT
BRANCH   3   5
ATOM      5  C   UNL     1       9.586  -2.795  -1.598  0.00  0.00    +0.035 A 
ATOM      6  C   UNL     1      10.802  -2.209  -1.271  0.00  0.00    +0.023 A 
ATOM      7  C   UNL     1      11.982  -2.893  -1.490  0.00  0.00    +0.004 A 
ATOM      8  C   UNL     1      11.957  -4.163  -2.036  0.00  0.00    +0.024 A 
ATOM      9  C   UNL     1      10.744  -4.755  -2.365  0.00  0.00    +0.051 A 
ATOM     10  C   UNL     1       9.556  -4.072  -2.141  0.00  0.00    +0.047 A 
BRANCH   9  11
ATOM     11  N   UNL     1      10.719  -6.038  -2.916  0.00  0.00    -0.207 N 
ATOM     12  H   UNL     1      10.151  -6.227  -3.680  0.00  0.00    +0.175 HD
BRANCH  11  13
ATOM     13  S   UNL     1      11.659  -7.237  -2.266  0.00  0.00    +0.107 S 
ATOM     14  O   UNL     1      11.395  -8.413  -3.019  0.00  0.00    -0.138 OA
ATOM     15  O   UNL     1      12.966  -6.698  -2.128  0.00  0.00    -0.138 OA
BRANCH  13  16
ATOM     16  N   UNL     1      11.100  -7.521  -0.734  0.00  0.00    -0.191 NA
ATOM     17  H   UNL     1      11.179  -8.406  -0.344  0.00  0.00    +0.146 HD
ATOM     18  H   UNL     1      10.693  -6.802  -0.225  0.00  0.00    +0.146 HD
ENDBRANCH  13  16
ENDBRANCH  11  13
ENDBRANCH   9  11
ENDBRANCH   3   5
BRANCH   1  20
ATOM     19  C   UNL     1       4.899  -2.736  -0.506  0.00  0.00    +0.013 C 
ATOM     20  C   UNL     1       6.010  -2.065  -0.881  0.00  0.00    +0.068 C 
BRANCH  19  30
ATOM     21  C   UNL     1      -0.028   1.454  -0.036  0.00  0.00    +0.129 C 
ATOM     22  N   UNL     1      -0.006  -0.011  -0.041  0.00  0.00    -0.333 N 
ATOM     23  C   UNL     1      -1.256  -0.775   0.066  0.00  0.00    +0.105 C 
ATOM     24  C   UNL     1      -1.029  -1.906   1.078  0.00  0.00    +0.024 C 
ATOM     25  C   UNL     1       0.049  -2.844   0.533  0.00  0.00    +0.038 C 
ATOM     26  C   UNL     1       1.269  -2.062   0.122  0.00  0.00    -0.026 A 
ATOM     27  C   UNL     1       1.200  -0.700  -0.154  0.00  0.00    +0.033 A 
ATOM     28  C   UNL     1       2.342  -0.001  -0.543  0.00  0.00    +0.024 A 
ATOM     29  C   UNL     1       3.546  -0.655  -0.660  0.00  0.00    +0.010 A 
ATOM     30  C   UNL     1       3.618  -2.026  -0.386  0.00  0.00    -0.025 A 
ATOM     31  C   UNL     1       2.466  -2.719   0.014  0.00  0.00    +0.013 A 
ENDBRANCH  19  30
ENDBRANCH   1  20
TORSDOF 6
