REMARK  Name = ZINC62720503
REMARK  5 active torsions:
REMARK  status: ('A' for Active; 'I' for Inactive)
REMARK    1  A    between atoms: C_1  and  N_2
REMARK    2  A    between atoms: N_7  and  C_10
REMARK    3  A    between atoms: N_11  and  C_17
REMARK    4  A    between atoms: N_14  and  N_15
REMARK    5  A    between atoms: C_17  and  C_18
REMARK                            x       y       z     vdW  Elec       q    Type
REMARK                         _______ _______ _______ _____ _____    ______ ____
ROOT
ATOM      1  C   UNL     1      -0.135   1.169  -1.376  0.00  0.00    +0.155 C 
ATOM      2  N   UNL     1      -0.103  -0.153  -0.746  0.00  0.00    -0.280 N 
ATOM      3  C   UNL     1      -1.287  -0.782  -0.397  0.00  0.00    +0.170 A 
ATOM      4  C   UNL     1      -1.228  -2.038   0.199  0.00  0.00    +0.153 A 
ATOM      5  C   UNL     1       0.027  -2.629   0.431  0.00  0.00    +0.282 A 
ATOM      6  O   UNL     1       0.103  -3.728   0.953  0.00  0.00    -0.265 OA
ATOM      7  N   UNL     1       1.146  -1.967   0.070  0.00  0.00    -0.262 N 
ATOM      8  C   UNL     1       1.077  -0.757  -0.511  0.00  0.00    +0.333 A 
ATOM      9  O   UNL     1       2.106  -0.193  -0.829  0.00  0.00    -0.246 OA
ATOM     10  C   UNL     1       2.455  -2.579   0.310  0.00  0.00    +0.157 C 
ATOM     11  N   UNL     1      -2.541  -2.421   0.435  0.00  0.00    -0.301 N 
ATOM     12  C   UNL     1      -3.330  -1.409  -0.015  0.00  0.00    +0.218 A 
ATOM     13  N   UNL     1      -2.574  -0.448  -0.505  0.00  0.00    -0.195 NA
ATOM     14  N   UNL     1      -4.706  -1.393   0.033  0.00  0.00    -0.207 N 
ATOM     15  H   UNL     1      -5.198  -2.222   0.135  0.00  0.00    +0.177 HD
ENDROOT
BRANCH  14  16
ATOM     16  N   UNL     1      -5.396  -0.177  -0.066  0.00  0.00    -0.196 NA
ATOM     17  C   UNL     1      -6.675  -0.161  -0.022  0.00  0.00    +0.161 C 
ENDBRANCH  14  16
BRANCH  11  18
ATOM     18  C   UNL     1      -2.989  -3.672   1.051  0.00  0.00    +0.162 C 
BRANCH  18  19
ATOM     19  C   UNL     1      -2.962  -3.532   2.551  0.00  0.00    -0.009 A 
ATOM     20  C   UNL     1      -1.835  -3.902   3.260  0.00  0.00    +0.007 A 
ATOM     21  C   UNL     1      -1.810  -3.773   4.636  0.00  0.00    +0.000 A 
ATOM     22  C   UNL     1      -2.913  -3.274   5.304  0.00  0.00    +0.001 A 
ATOM     23  C   UNL     1      -4.041  -2.904   4.597  0.00  0.00    +0.020 A 
ATOM     24  C   UNL     1      -4.064  -3.027   3.219  0.00  0.00    +0.046 A 
ATOM     25 CL   UNL     1      -5.478  -2.555   2.328  0.00  0.00    -0.083 Cl
ENDBRANCH  18  19
ENDBRANCH  11  18
TORSDOF 3
