REMARK  Name = ZINC32898950
REMARK  4 active torsions:
REMARK  status: ('A' for Active; 'I' for Inactive)
REMARK    1  A    between atoms: C_3  and  O_27
REMARK    2  A    between atoms: C_6  and  C_7
REMARK    3  A    between atoms: C_7  and  C_9
REMARK    4  A    between atoms: C_15  and  C_17
REMARK                            x       y       z     vdW  Elec       q    Type
REMARK                         _______ _______ _______ _____ _____    ______ ____
ROOT
ATOM      1  C   UNL     1       0.027  -2.615  -1.084  0.00  0.00    +0.063 C 
ATOM      2  C   UNL     1      -1.236  -1.754  -1.163  0.00  0.00    +0.030 C 
ATOM      3  C   UNL     1      -1.252  -0.770   0.010  0.00  0.00    +0.108 C 
ATOM      4  N   UNL     1       0.002  -0.004   0.002  0.00  0.00    -0.301 N 
ATOM      5  C   UNL     1       1.276  -0.735  -0.020  0.00  0.00    +0.108 C 
ATOM      6  C   UNL     1       1.264  -1.720  -1.188  0.00  0.00    +0.030 C 
ATOM      7  C   UNL     1      -0.016   1.344   0.009  0.00  0.00    +0.219 C 
ATOM      8  O   UNL     1      -1.075   1.936   0.018  0.00  0.00    -0.275 OA
ENDROOT
BRANCH   7   9
ATOM      9  C   UNL     1       1.278   2.115   0.001  0.00  0.00    +0.079 C 
ATOM     10  C   UNL     1       2.108   1.789   1.264  0.00  0.00    +0.016 C 
ATOM     11  C   UNL     1       2.252   3.154   2.004  0.00  0.00    -0.010 C 
ATOM     12  C   UNL     1       3.232   3.978   1.115  0.00  0.00    +0.004 C 
ATOM     13  C   UNL     1       2.386   4.312  -0.159  0.00  0.00    +0.004 C 
ATOM     14  C   UNL     1       1.000   3.646   0.097  0.00  0.00    +0.001 C 
ATOM     15  C   UNL     1       0.876   3.822   1.652  0.00  0.00    +0.008 C 
ENDBRANCH   7   9
BRANCH   1  16
ATOM     16  C   UNL     1       0.030  -3.608  -2.218  0.00  0.00    +0.166 C 
ATOM     17  O   UNL     1      -0.510  -3.331  -3.268  0.00  0.00    -0.292 OA
BRANCH  16  23
ATOM     18  C   UNL     1       1.315  -5.232  -0.842  0.00  0.00    +0.015 A 
ATOM     19  C   UNL     1       1.920  -6.453  -0.689  0.00  0.00    +0.046 A 
ATOM     20  C   UNL     1       1.921  -7.367  -1.736  0.00  0.00    +0.117 A 
ATOM     21  C   UNL     1       1.303  -7.052  -2.942  0.00  0.00    +0.046 A 
ATOM     22  C   UNL     1       0.690  -5.836  -3.103  0.00  0.00    +0.015 A 
ATOM     23  C   UNL     1       0.686  -4.912  -2.051  0.00  0.00    +0.018 A 
BRANCH  20  24
ATOM     24  O   UNL     1       2.527  -8.571  -1.582  0.00  0.00    -0.507 OA
ATOM     25  H   UNL     1       2.529  -9.296  -2.410  0.00  0.00    +0.292 HD
ENDBRANCH  20  24
ENDBRANCH  16  23
ENDBRANCH   1  16
TORSDOF 4
