REMARK  Name = ZINC39677270
REMARK  7 active torsions:
REMARK  status: ('A' for Active; 'I' for Inactive)
REMARK    1  A    between atoms: C_1  and  C_2
REMARK    2  A    between atoms: C_6  and  C_7
REMARK    3  A    between atoms: C_7  and  N_8
REMARK    4  A    between atoms: C_9  and  C_11
REMARK    5  A    between atoms: C_22  and  C_24
REMARK    6  A    between atoms: C_29  and  O_30
REMARK    7  A    between atoms: O_30  and  C_31
REMARK                            x       y       z     vdW  Elec       q    Type
REMARK                         _______ _______ _______ _____ _____    ______ ____
ROOT
ATOM      1  C   UNL     1      -3.377   0.173   4.901  0.00  0.00    +0.100 C 
ATOM      2  C   UNL     1      -3.892   1.389   4.100  0.00  0.00    +0.121 C 
ATOM      3  N   UNL     1      -4.662   2.186   5.084  0.00  0.00    -0.296 N 
ATOM      4  C   UNL     1      -3.868   2.097   6.332  0.00  0.00    +0.115 C 
ATOM      5  C   UNL     1      -3.362   0.641   6.365  0.00  0.00    -0.004 C 
ATOM      6  C   UNL     1      -4.296  -0.223   7.206  0.00  0.00    -0.010 C 
ATOM      7  C   UNL     1      -4.220   0.226   8.668  0.00  0.00    -0.082 C 
ATOM      8  N   UNL     1      -2.839   0.101   9.150  0.00  0.00    +0.379 N 
ATOM      9  C   UNL     1      -1.962   1.005   8.396  0.00  0.00    -0.082 C 
ATOM     10  C   UNL     1      -1.942   0.590   6.923  0.00  0.00    -0.010 C 
ATOM     11  C   UNL     1      -5.822   2.844   4.888  0.00  0.00    +0.252 C 
ATOM     12  O   UNL     1      -6.286   3.535   5.774  0.00  0.00    -0.270 OA
ATOM     13  H   UNL     1      -2.803   0.339  10.130  0.00  0.00    -0.086 HD
ATOM     14  H   UNL     1      -2.526  -0.850   9.026  0.00  0.00    -0.086 HD
ENDROOT
BRANCH  11  15
ATOM     15  C   UNL     1      -6.529   2.724   3.599  0.00  0.00    +0.099 A 
ATOM     16  C   UNL     1      -5.813   2.605   2.402  0.00  0.00    +0.020 A 
ATOM     17  C   UNL     1      -6.523   2.495   1.220  0.00  0.00    +0.021 A 
ATOM     18  C   UNL     1      -7.906   2.506   1.253  0.00  0.00    +0.114 A 
ATOM     19  N   UNL     1      -8.561   2.620   2.392  0.00  0.00    -0.220 NA
ATOM     20  C   UNL     1      -7.931   2.722   3.550  0.00  0.00    +0.233 A 
BRANCH  20  21
ATOM     21  O   UNL     1      -8.644   2.831   4.697  0.00  0.00    -0.437 OA
BRANCH  21  22
ATOM     22  C   UNL     1      -9.997   2.922   4.600  0.00  0.00    +0.130 A 
ATOM     23  C   UNL     1     -10.621   4.155   4.723  0.00  0.00    +0.046 A 
ATOM     24  C   UNL     1     -11.996   4.245   4.624  0.00  0.00    +0.004 A 
ATOM     25  C   UNL     1     -12.750   3.107   4.404  0.00  0.00    +0.000 A 
ATOM     26  C   UNL     1     -12.131   1.877   4.282  0.00  0.00    +0.004 A 
ATOM     27  C   UNL     1     -10.755   1.783   4.374  0.00  0.00    +0.046 A 
ENDBRANCH  21  22
ENDBRANCH  20  21
ENDBRANCH  11  15
BRANCH   1  29
ATOM     28  N   UNL     1      -1.550  -1.466   4.590  0.00  0.00    -0.310 N 
ATOM     29  C   UNL     1      -1.986  -0.198   4.454  0.00  0.00    +0.218 C 
ATOM     30  O   UNL     1      -1.259   0.644   3.973  0.00  0.00    -0.275 OA
ATOM     31  H   UNL     1      -2.132  -2.140   4.975  0.00  0.00    +0.149 HD
BRANCH  28  32
ATOM     32  C   UNL     1      -0.198  -1.827   4.156  0.00  0.00    +0.147 C 
BRANCH  32  38
ATOM     33  C   UNL     1      -0.775  -4.147   2.226  0.00  0.00    +0.044 C 
ATOM     34  C   UNL     1      -0.197  -4.352   3.603  0.00  0.00    -0.039 A 
ATOM     35  C   UNL     1       0.107  -5.623   4.053  0.00  0.00    +0.011 A 
ATOM     36  C   UNL     1       0.627  -5.772   5.297  0.00  0.00    +0.046 A 
ATOM     37  S   UNL     1       0.699  -4.084   5.872  0.00  0.00    -0.100 S 
ATOM     38  C   UNL     1       0.038  -3.292   4.415  0.00  0.00    +0.010 A 
ENDBRANCH  32  38
ENDBRANCH  28  32
ENDBRANCH   1  29
TORSDOF 6
