REMARK  Name = ZINC01253858
REMARK  6 active torsions:
REMARK  status: ('A' for Active; 'I' for Inactive)
REMARK    1  A    between atoms: C_10  and  C_18
REMARK    2  A    between atoms: C_12  and  C_16
REMARK    3  A    between atoms: C_13  and  N_15
REMARK    4  A    between atoms: C_23  and  O_24
REMARK    5  A    between atoms: O_24  and  C_25
REMARK    6  A    between atoms: C_25  and  C_27
REMARK                            x       y       z     vdW  Elec       q    Type
REMARK                         _______ _______ _______ _____ _____    ______ ____
ROOT
ATOM      1  C   UNL     1       0.447   5.462   1.056  0.00  0.00    +0.001 A 
ATOM      2  C   UNL     1       1.737   5.966   1.007  0.00  0.00    +0.001 A 
ATOM      3  C   UNL     1       2.810   5.157   0.655  0.00  0.00    +0.016 A 
ATOM      4  C   UNL     1       2.511   3.843   0.363  0.00  0.00    +0.023 A 
ATOM      5  C   UNL     1       1.201   3.299   0.404  0.00  0.00    +0.032 A 
ATOM      6  C   UNL     1       0.136   4.162   0.769  0.00  0.00    +0.013 A 
ATOM      7  C   UNL     1       1.095   1.890   0.060  0.00  0.00    +0.149 A 
ATOM      8  C   UNL     1       2.248   1.249  -0.258  0.00  0.00    +0.046 A 
ATOM      9  S   UNL     1       3.518   2.476  -0.120  0.00  0.00    -0.088 S 
ATOM     10  C   UNL     1       2.369  -0.192  -0.639  0.00  0.00    +0.108 C 
ATOM     11  C   UNL     1       1.061  -0.873  -0.307  0.00  0.00    +0.099 C 
ATOM     12  C   UNL     1      -0.043  -0.153   0.002  0.00  0.00    +0.199 C 
ATOM     13  O   UNL     1      -0.092   1.187   0.042  0.00  0.00    -0.440 OA
ENDROOT
BRANCH  10  14
ATOM     14  C   UNL     1       2.645  -0.309  -2.116  0.00  0.00    +0.008 A 
ATOM     15  C   UNL     1       1.753   0.220  -3.029  0.00  0.00    +0.008 A 
ATOM     16  C   UNL     1       2.008   0.118  -4.384  0.00  0.00    +0.001 A 
ATOM     17  C   UNL     1       3.150  -0.522  -4.829  0.00  0.00    +0.004 A 
ATOM     18  C   UNL     1       4.042  -1.058  -3.920  0.00  0.00    +0.047 A 
ATOM     19  C   UNL     1       3.791  -0.952  -2.559  0.00  0.00    +0.136 A 
BRANCH  19  20
ATOM     20  O   UNL     1       4.667  -1.477  -1.663  0.00  0.00    -0.422 OA
BRANCH  20  21
ATOM     21  C   UNL     1       5.617  -0.652  -1.180  0.00  0.00    +0.344 C 
ATOM     22  O   UNL     1       5.611   0.524  -1.484  0.00  0.00    -0.245 OA
BRANCH  21  23
ATOM     23  C   UNL     1       6.663  -1.178  -0.281  0.00  0.00    +0.060 A 
ATOM     24  C   UNL     1       6.668  -2.529   0.074  0.00  0.00    +0.018 A 
ATOM     25  C   UNL     1       7.651  -3.015   0.909  0.00  0.00    +0.039 A 
ATOM     26  C   UNL     1       8.627  -2.164   1.405  0.00  0.00    +0.123 A 
ATOM     27  C   UNL     1       8.623  -0.821   1.060  0.00  0.00    +0.039 A 
ATOM     28  C   UNL     1       7.649  -0.325   0.221  0.00  0.00    +0.018 A 
ATOM     29  F   UNL     1       9.585  -2.644   2.227  0.00  0.00    -0.205 F 
ENDBRANCH  21  23
ENDBRANCH  20  21
ENDBRANCH  19  20
ENDBRANCH  10  14
BRANCH  12  30
ATOM     30  N   UNL     1      -1.193  -0.843   0.294  0.00  0.00    -0.328 N 
ATOM     31  H   UNL     1      -2.004  -0.361   0.520  0.00  0.00    +0.145 HD
ATOM     32  H   UNL     1      -1.195  -1.813   0.275  0.00  0.00    +0.145 HD
ENDBRANCH  12  30
BRANCH  11  33
ATOM     33  C   UNL     1       0.988  -2.303  -0.321  0.00  0.00    +0.101 C 
ATOM     34  N   UNL     1       0.930  -3.437  -0.331  0.00  0.00    -0.191 NA
ENDBRANCH  11  33
TORSDOF 6
