REMARK  Name = ZINC05677236
REMARK  6 active torsions:
REMARK  status: ('A' for Active; 'I' for Inactive)
REMARK    1  A    between atoms: C_1  and  C_2
REMARK    2  A    between atoms: C_2  and  C_4
REMARK    3  A    between atoms: C_2  and  N_14
REMARK    4  A    between atoms: C_15  and  C_17
REMARK    5  A    between atoms: C_18  and  C_19
REMARK    6  A    between atoms: C_23  and  N_25
REMARK                            x       y       z     vdW  Elec       q    Type
REMARK                         _______ _______ _______ _____ _____    ______ ____
ROOT
ATOM      1  N   UNL     1       0.688  -0.476  -1.203  0.00  0.00    -0.309 N 
ATOM      2  C   UNL     1       0.006  -0.608  -2.358  0.00  0.00    +0.237 C 
ATOM      3  O   UNL     1      -1.179  -0.335  -2.400  0.00  0.00    -0.271 OA
ATOM      4  H   UNL     1       1.632  -0.695  -1.170  0.00  0.00    +0.149 HD
ENDROOT
BRANCH   1   6
ATOM      5  C   UNL     1      -0.019   1.526   0.010  0.00  0.00    +0.028 C 
ATOM      6  C   UNL     1       0.002  -0.004   0.002  0.00  0.00    +0.076 C 
BRANCH   6   7
ATOM      7  C   UNL     1       0.742  -0.511   1.242  0.00  0.00    -0.010 C 
ATOM      8  C   UNL     1       2.178   0.019   1.231  0.00  0.00    +0.012 C 
ATOM      9  C   UNL     1       2.917  -0.488   2.470  0.00  0.00    -0.010 C 
ATOM     10  C   UNL     1       2.201   0.005   3.729  0.00  0.00    +0.007 C 
ATOM     11  C   UNL     1       0.766  -0.524   3.740  0.00  0.00    -0.010 C 
ATOM     12  C   UNL     1       0.026  -0.018   2.500  0.00  0.00    +0.012 C 
ATOM     13  C   UNL     1       0.787  -2.054   3.732  0.00  0.00    +0.007 C 
ATOM     14  C   UNL     1       1.503  -2.548   2.473  0.00  0.00    -0.010 C 
ATOM     15  C   UNL     1       2.938  -2.018   2.462  0.00  0.00    +0.007 C 
ATOM     16  C   UNL     1       0.763  -2.041   1.233  0.00  0.00    +0.012 C 
ENDBRANCH   6   7
ENDBRANCH   1   6
BRANCH   2  17
ATOM     17  C   UNL     1       0.692  -1.080  -3.563  0.00  0.00    +0.068 C 
ATOM     18  C   UNL     1       0.010  -1.212  -4.719  0.00  0.00    +0.013 C 
BRANCH  18  19
ATOM     19  C   UNL     1       0.699  -1.687  -5.930  0.00  0.00    -0.023 A 
ATOM     20  C   UNL     1       2.059  -2.008  -5.884  0.00  0.00    +0.008 A 
ATOM     21  C   UNL     1       2.697  -2.452  -7.023  0.00  0.00    +0.003 A 
ATOM     22  C   UNL     1       1.995  -2.581  -8.209  0.00  0.00    +0.033 A 
ATOM     23  C   UNL     1       0.649  -2.264  -8.262  0.00  0.00    +0.127 A 
ATOM     24  C   UNL     1      -0.005  -1.825  -7.130  0.00  0.00    +0.040 A 
BRANCH  23  25
ATOM     25  N   UNL     1      -0.092  -2.405  -9.536  0.00  0.00    +0.056 N 
ATOM     26  O   UNL     1       0.478  -2.794 -10.527  0.00  0.00    -0.126 OA
ATOM     27  O   UNL     1      -1.268  -2.129  -9.584  0.00  0.00    -0.126 OA
ENDBRANCH  23  25
ENDBRANCH  18  19
ENDBRANCH   2  17
TORSDOF 5
