REMARK  Name = ZINC00085220
REMARK  4 active torsions:
REMARK  status: ('A' for Active; 'I' for Inactive)
REMARK    1  A    between atoms: C_1  and  S_2
REMARK    2  A    between atoms: S_2  and  C_3
REMARK    3  A    between atoms: C_6  and  C_9
REMARK    4  A    between atoms: C_12  and  C_20
REMARK                            x       y       z     vdW  Elec       q    Type
REMARK                         _______ _______ _______ _____ _____    ______ ____
ROOT
ATOM      1  C   UNL     1       2.998  -1.452   5.038  0.00  0.00    +0.144 C 
ATOM      2  C   UNL     1       4.252  -2.258   4.677  0.00  0.00    +0.059 C 
ATOM      3  C   UNL     1       4.863  -2.865   5.945  0.00  0.00    +0.106 C 
ATOM      4  N   UNL     1       3.885  -3.797   6.541  0.00  0.00    -0.305 N 
ATOM      5  C   UNL     1       2.570  -3.356   6.588  0.00  0.00    +0.236 A 
ATOM      6  N   UNL     1       2.144  -2.265   5.899  0.00  0.00    -0.206 N 
ATOM      7  N   UNL     1       0.788  -2.136   6.199  0.00  0.00    -0.042 NA
ATOM      8  N   UNL     1       0.496  -3.103   7.006  0.00  0.00    -0.021 NA
ATOM      9  N   UNL     1       1.543  -3.830   7.236  0.00  0.00    -0.092 NA
ATOM     10  H   UNL     1       4.147  -4.667   6.880  0.00  0.00    +0.150 HD
ENDROOT
BRANCH   1  14
ATOM     11  C   UNL     1       0.877  -0.427   1.472  0.00  0.00    +0.008 A 
ATOM     12  C   UNL     1       1.349   0.574   2.313  0.00  0.00    +0.015 A 
ATOM     13  C   UNL     1       2.035   0.239   3.464  0.00  0.00    +0.007 A 
ATOM     14  C   UNL     1       2.250  -1.090   3.781  0.00  0.00    -0.023 A 
ATOM     15  C   UNL     1       1.782  -2.088   2.946  0.00  0.00    +0.007 A 
ATOM     16  C   UNL     1       1.090  -1.761   1.796  0.00  0.00    +0.015 A 
BRANCH  11  18
ATOM     17  C   UNL     1      -0.022   1.810   0.012  0.00  0.00    +0.090 C 
ATOM     18  S   UNL     1       0.002  -0.004   0.002  0.00  0.00    -0.129 S 
ENDBRANCH  11  18
ENDBRANCH   1  14
BRANCH   3  19
ATOM     19  C   UNL     1       6.125  -3.608   5.593  0.00  0.00    -0.027 A 
ATOM     20  C   UNL     1       6.052  -4.880   5.058  0.00  0.00    +0.005 A 
ATOM     21  C   UNL     1       7.210  -5.562   4.735  0.00  0.00    +0.000 A 
ATOM     22  C   UNL     1       8.442  -4.972   4.947  0.00  0.00    +0.000 A 
ATOM     23  C   UNL     1       8.515  -3.699   5.482  0.00  0.00    +0.000 A 
ATOM     24  C   UNL     1       7.357  -3.016   5.801  0.00  0.00    +0.005 A 
ENDBRANCH   3  19
TORSDOF 3
