REMARK  Name = ZINC08569312
REMARK  7 active torsions:
REMARK  status: ('A' for Active; 'I' for Inactive)
REMARK    1  A    between atoms: C_1  and  C_2
REMARK    2  A    between atoms: C_2  and  O_3
REMARK    3  A    between atoms: O_3  and  C_4
REMARK    4  A    between atoms: C_7  and  C_10
REMARK    5  A    between atoms: C_17  and  N_29
REMARK    6  A    between atoms: C_18  and  C_27
REMARK    7  A    between atoms: C_19  and  C_21
REMARK                            x       y       z     vdW  Elec       q    Type
REMARK                         _______ _______ _______ _____ _____    ______ ____
ROOT
ATOM      1  C   UNL     1       1.304  -6.389  -1.887  0.00  0.00    +0.100 A 
ATOM      2  C   UNL     1       1.036  -6.911  -3.156  0.00  0.00    +0.054 A 
ATOM      3  C   UNL     1       1.147  -8.270  -3.087  0.00  0.00    +0.223 A 
ATOM      4  N   UNL     1       1.475  -8.590  -1.818  0.00  0.00    -0.246 N 
ATOM      5  H   UNL     1       1.620  -9.486  -1.475  0.00  0.00    +0.192 HD
ATOM      6  N   UNL     1       1.573  -7.399  -1.082  0.00  0.00    -0.171 NA
ATOM      7  O   UNL     1       0.943  -9.077  -4.157  0.00  0.00    -0.423 OA
ATOM      8  C   UNL     1       0.356  -8.536  -5.245  0.00  0.00    +0.200 C 
ATOM      9  C   UNL     1       0.201  -7.207  -5.433  0.00  0.00    +0.098 C 
ATOM     10  C   UNL     1       0.681  -6.187  -4.429  0.00  0.00    +0.102 C 
ENDROOT
BRANCH   1  14
ATOM     11  C   UNL     1       1.274  -2.272  -0.815  0.00  0.00    +0.121 A 
ATOM     12  C   UNL     1       0.280  -2.780  -1.641  0.00  0.00    +0.046 A 
ATOM     13  C   UNL     1       0.288  -4.115  -1.990  0.00  0.00    +0.013 A 
ATOM     14  C   UNL     1       1.294  -4.953  -1.514  0.00  0.00    +0.003 A 
ATOM     15  C   UNL     1       2.290  -4.440  -0.686  0.00  0.00    +0.013 A 
ATOM     16  C   UNL     1       2.281  -3.104  -0.344  0.00  0.00    +0.046 A 
BRANCH  11  17
ATOM     17  O   UNL     1       1.265  -0.957  -0.473  0.00  0.00    -0.492 OA
BRANCH  17  19
ATOM     18  C   UNL     1       0.356   1.282  -0.504  0.00  0.00    +0.048 C 
ATOM     19  C   UNL     1       0.200  -0.159  -0.994  0.00  0.00    +0.225 C 
ENDBRANCH  17  19
ENDBRANCH  11  17
ENDBRANCH   1  14
BRANCH  10  20
ATOM     20  C   UNL     1       1.897  -5.478  -4.967  0.00  0.00    -0.032 A 
ATOM     21  C   UNL     1       3.067  -6.175  -5.229  0.00  0.00    +0.024 A 
ATOM     22  C   UNL     1       4.162  -5.492  -5.722  0.00  0.00    +0.111 A 
ATOM     23  N   UNL     1       4.104  -4.193  -5.942  0.00  0.00    -0.263 NA
ATOM     24  C   UNL     1       3.009  -3.498  -5.704  0.00  0.00    +0.111 A 
ATOM     25  C   UNL     1       1.872  -4.115  -5.217  0.00  0.00    +0.024 A 
ENDBRANCH  10  20
BRANCH   8  26
ATOM     26  N   UNL     1      -0.111  -9.385  -6.217  0.00  0.00    -0.328 N 
ATOM     27  H   UNL     1      -0.014 -10.344  -6.111  0.00  0.00    +0.145 HD
ATOM     28  H   UNL     1      -0.537  -9.026  -7.011  0.00  0.00    +0.145 HD
ENDBRANCH   8  26
BRANCH   9  29
ATOM     29  C   UNL     1      -0.441  -6.749  -6.628  0.00  0.00    +0.101 C 
ATOM     30  N   UNL     1      -0.951  -6.386  -7.576  0.00  0.00    -0.191 NA
ENDBRANCH   9  29
TORSDOF 6
