REMARK  Name = ZINC00078626
REMARK  6 active torsions:
REMARK  status: ('A' for Active; 'I' for Inactive)
REMARK    1  A    between atoms: C_1  and  C_2
REMARK    2  A    between atoms: C_5  and  C_8
REMARK    3  A    between atoms: C_10  and  C_17
REMARK    4  A    between atoms: C_11  and  C_16
REMARK    5  A    between atoms: C_17  and  O_19
REMARK    6  A    between atoms: O_19  and  C_20
REMARK                            x       y       z     vdW  Elec       q    Type
REMARK                         _______ _______ _______ _____ _____    ______ ____
ROOT
ATOM      1  C   UNL     1       0.138  -4.079   0.133  0.00  0.00    +0.143 C 
ATOM      2  C   UNL     1       1.556  -4.593   0.270  0.00  0.00    +0.078 C 
ATOM      3  C   UNL     1       1.782  -5.584   1.160  0.00  0.00    +0.021 C 
ATOM      4  N   UNL     1       0.766  -6.103   1.910  0.00  0.00    -0.273 N 
ATOM      5  C   UNL     1      -0.504  -5.686   1.829  0.00  0.00    +0.304 C 
ATOM      6  O   UNL     1      -1.341  -6.209   2.539  0.00  0.00    -0.252 OA
ATOM      7  N   UNL     1      -0.884  -4.705   0.988  0.00  0.00    -0.288 N 
ATOM      8  C   UNL     1       3.179  -6.125   1.327  0.00  0.00    +0.061 C 
ATOM      9  H   UNL     1       0.976  -6.813   2.536  0.00  0.00    +0.156 HD
ATOM     10  H   UNL     1      -1.810  -4.418   0.946  0.00  0.00    +0.151 HD
ENDROOT
BRANCH   1  15
ATOM     11  C   UNL     1       0.178   1.587   1.269  0.00  0.00    +0.044 C 
ATOM     12  C   UNL     1       0.168   0.110   0.972  0.00  0.00    -0.050 A 
ATOM     13  C   UNL     1       0.227  -0.333  -0.336  0.00  0.00    +0.004 A 
ATOM     14  C   UNL     1       0.218  -1.689  -0.608  0.00  0.00    +0.006 A 
ATOM     15  C   UNL     1       0.149  -2.601   0.429  0.00  0.00    -0.022 A 
ATOM     16  C   UNL     1       0.090  -2.158   1.737  0.00  0.00    +0.006 A 
ATOM     17  C   UNL     1       0.104  -0.803   2.009  0.00  0.00    +0.004 A 
ENDBRANCH   1  15
BRANCH   2  18
ATOM     18  C   UNL     1       2.608  -4.055  -0.508  0.00  0.00    +0.338 C 
ATOM     19  O   UNL     1       3.757  -4.393  -0.294  0.00  0.00    -0.245 OA
BRANCH  18  20
ATOM     20  O   UNL     1       2.337  -3.167  -1.487  0.00  0.00    -0.465 OA
ATOM     21  C   UNL     1       3.447  -2.664  -2.233  0.00  0.00    +0.280 C 
ENDBRANCH  18  20
ENDBRANCH   2  18
TORSDOF 3
