REMARK  Name = ZINC08614459
REMARK  8 active torsions:
REMARK  status: ('A' for Active; 'I' for Inactive)
REMARK    1  A    between atoms: C_1  and  C_2
REMARK    2  A    between atoms: C_2  and  C_4
REMARK    3  A    between atoms: C_2  and  N_14
REMARK    4  A    between atoms: N_12  and  C_13
REMARK    5  A    between atoms: C_15  and  C_17
REMARK    6  A    between atoms: C_17  and  S_18
REMARK    7  A    between atoms: S_18  and  C_19
REMARK    8  A    between atoms: C_22  and  C_25
REMARK                            x       y       z     vdW  Elec       q    Type
REMARK                         _______ _______ _______ _____ _____    ______ ____
ROOT
ATOM      1  N   UNL     1       0.711  -0.489   1.189  0.00  0.00    -0.305 N 
ATOM      2  C   UNL     1       0.051  -0.633   2.355  0.00  0.00    +0.224 C 
ATOM      3  O   UNL     1      -1.129  -0.361   2.423  0.00  0.00    -0.275 OA
ATOM      4  H   UNL     1       1.654  -0.707   1.135  0.00  0.00    +0.149 HD
ENDROOT
BRANCH   1   6
ATOM      5  C   UNL     1      -0.019   1.526   0.010  0.00  0.00    +0.036 C 
ATOM      6  C   UNL     1       0.002  -0.004   0.002  0.00  0.00    +0.136 C 
BRANCH   6   7
ATOM      7  C   UNL     1       0.707  -0.490  -1.238  0.00  0.00    +0.131 A 
ATOM      8  N   UNL     1       1.995  -0.465  -1.421  0.00  0.00    -0.230 NA
ATOM      9  C   UNL     1       2.293  -0.977  -2.643  0.00  0.00    +0.089 A 
ATOM     10  C   UNL     1       3.488  -1.182  -3.337  0.00  0.00    +0.030 A 
ATOM     11  C   UNL     1       3.464  -1.732  -4.587  0.00  0.00    +0.002 A 
ATOM     12  C   UNL     1       2.261  -2.090  -5.179  0.00  0.00    +0.002 A 
ATOM     13  C   UNL     1       1.069  -1.896  -4.514  0.00  0.00    +0.028 A 
ATOM     14  C   UNL     1       1.075  -1.339  -3.242  0.00  0.00    +0.069 A 
ATOM     15  N   UNL     1       0.091  -1.024  -2.326  0.00  0.00    -0.329 N 
ATOM     16  C   UNL     1      -1.350  -1.225  -2.497  0.00  0.00    +0.150 C 
ENDBRANCH   6   7
ENDBRANCH   1   6
BRANCH   2  17
ATOM     17  C   UNL     1       0.780  -1.133   3.576  0.00  0.00    +0.173 C 
BRANCH  17  18
ATOM     18  S   UNL     1      -0.371  -1.217   4.976  0.00  0.00    -0.077 S 
BRANCH  18  19
ATOM     19  C   UNL     1       0.619  -1.809   6.307  0.00  0.00    +0.185 A 
ATOM     20  N   UNL     1       1.898  -2.107   6.246  0.00  0.00    -0.201 NA
ATOM     21  H   UNL     1      -0.699  -1.898   7.917  0.00  0.00    +0.191 HD
ATOM     22  C   UNL     1       2.322  -2.526   7.447  0.00  0.00    +0.184 A 
ATOM     23  N   UNL     1       1.312  -2.499   8.287  0.00  0.00    -0.152 NA
ATOM     24  N   UNL     1       0.198  -2.032   7.572  0.00  0.00    -0.253 N 
BRANCH  22  25
ATOM     25  C   UNL     1       3.705  -2.951   7.774  0.00  0.00    +0.039 A 
ATOM     26  C   UNL     1       4.694  -2.930   6.793  0.00  0.00    +0.013 A 
ATOM     27  C   UNL     1       5.979  -3.326   7.102  0.00  0.00    +0.001 A 
ATOM     28  C   UNL     1       6.287  -3.744   8.384  0.00  0.00    +0.001 A 
ATOM     29  C   UNL     1       5.311  -3.768   9.363  0.00  0.00    +0.021 A 
ATOM     30  C   UNL     1       4.022  -3.368   9.066  0.00  0.00    +0.052 A 
ATOM     31 CL   UNL     1       2.799  -3.392  10.298  0.00  0.00    -0.083 Cl
ENDBRANCH  22  25
ENDBRANCH  18  19
ENDBRANCH  17  18
ENDBRANCH   2  17
TORSDOF 6
