REMARK  Name = ZINC65265926
REMARK  4 active torsions:
REMARK  status: ('A' for Active; 'I' for Inactive)
REMARK    1  A    between atoms: C_1  and  C_2
REMARK    2  A    between atoms: C_4  and  C_8
REMARK    3  A    between atoms: N_6  and  C_7
REMARK    4  A    between atoms: N_25  and  C_26
REMARK                            x       y       z     vdW  Elec       q    Type
REMARK                         _______ _______ _______ _____ _____    ______ ____
ROOT
ATOM      1  C   UNL     1       0.088  -3.382  -1.454  0.00  0.00    +0.267 C 
ATOM      2  O   UNL     1       0.080  -3.334  -2.669  0.00  0.00    -0.268 OA
ATOM      3  N   UNL     1       0.097  -4.574  -0.826  0.00  0.00    -0.294 N 
ATOM      4  C   UNL     1       0.101  -4.778   0.635  0.00  0.00    +0.110 C 
ATOM      5  C   UNL     1      -0.496  -6.194   0.844  0.00  0.00    +0.050 C 
ATOM      6  C   UNL     1       0.068  -6.947  -0.375  0.00  0.00    +0.091 C 
ATOM      7  C   UNL     1       0.098  -5.892  -1.485  0.00  0.00    +0.138 C 
ATOM      8  C   UNL     1      -0.776  -8.120  -0.743  0.00  0.00    +0.095 C 
ATOM      9  N   UNL     1      -0.453  -9.319  -0.156  0.00  0.00    -0.303 N 
ATOM     10  C   UNL     1       0.468 -10.150  -0.788  0.00  0.00    +0.037 A 
ATOM     11  C   UNL     1       0.212 -11.509  -0.904  0.00  0.00    +0.023 A 
ATOM     12  C   UNL     1       1.131 -12.337  -1.517  0.00  0.00    +0.002 A 
ATOM     13  C   UNL     1       2.306 -11.801  -2.011  0.00  0.00    +0.000 A 
ATOM     14  C   UNL     1       2.558 -10.451  -1.899  0.00  0.00    +0.007 A 
ATOM     15  C   UNL     1       1.640  -9.600  -1.292  0.00  0.00    -0.012 A 
ATOM     16  C   UNL     1       1.992  -8.135  -1.254  0.00  0.00    +0.119 C 
ATOM     17  N   UNL     1       1.431  -7.445  -0.085  0.00  0.00    -0.299 NA
ATOM     18  N   UNL     1      -1.764  -8.013  -1.571  0.00  0.00    -0.372 N 
ATOM     19  H   UNL     1       2.034  -6.694   0.216  0.00  0.00    +0.123 HD
ATOM     20  H   UNL     1      -2.025  -7.141  -1.905  0.00  0.00    +0.161 HD
ATOM     21  H   UNL     1      -0.860  -9.583   0.684  0.00  0.00    +0.153 HD
ENDROOT
BRANCH   1  25
ATOM     22  C   UNL     1       0.076   1.503  -0.103  0.00  0.00    +0.065 C 
ATOM     23  C   UNL     1       0.082  -0.004  -0.093  0.00  0.00    +0.037 A 
ATOM     24  C   UNL     1       0.079  -0.814  -1.178  0.00  0.00    +0.057 A 
ATOM     25  C   UNL     1       0.088  -2.133  -0.666  0.00  0.00    +0.147 A 
ATOM     26  N   UNL     1       0.095  -2.034   0.649  0.00  0.00    -0.167 NA
ATOM     27  N   UNL     1       0.097  -0.798   0.999  0.00  0.00    -0.271 N 
ATOM     28  C   UNL     1       0.110  -0.319   2.383  0.00  0.00    +0.172 C 
ENDBRANCH   1  25
BRANCH  18  29
ATOM     29  C   UNL     1      -2.488  -9.210  -2.006  0.00  0.00    +0.080 C 
ATOM     30  C   UNL     1      -1.800  -9.824  -3.243  0.00  0.00    +0.024 C 
ATOM     31  C   UNL     1      -2.973 -10.333  -4.116  0.00  0.00    +0.002 C 
ATOM     32  C   UNL     1      -4.046  -9.233  -3.923  0.00  0.00    +0.002 C 
ATOM     33  C   UNL     1      -3.916  -8.834  -2.439  0.00  0.00    +0.024 C 
ENDBRANCH  18  29
TORSDOF 2
