REMARK  Name = ZINC35745879
REMARK  11 active torsions:
REMARK  status: ('A' for Active; 'I' for Inactive)
REMARK    1  A    between atoms: C_1  and  C_2
REMARK    2  A    between atoms: C_7  and  C_8
REMARK    3  A    between atoms: C_17  and  C_19
REMARK    4  A    between atoms: C_19  and  N_20
REMARK    5  A    between atoms: N_20  and  C_21
REMARK    6  A    between atoms: N_20  and  C_22
REMARK    7  A    between atoms: C_22  and  C_23
REMARK    8  A    between atoms: C_23  and  C_25
REMARK    9  A    between atoms: C_23  and  O_28
REMARK   10  A    between atoms: C_25  and  C_26
REMARK   11  A    between atoms: C_25  and  C_27
REMARK                            x       y       z     vdW  Elec       q    Type
REMARK                         _______ _______ _______ _____ _____    ______ ____
ROOT
ATOM      1  C   UNL     1      -0.174  -0.887   3.162  0.00  0.00    +0.004 A 
ATOM      2  C   UNL     1       0.886  -0.931   4.005  0.00  0.00    +0.056 A 
ATOM      3  S   UNL     1       0.499   0.314   5.221  0.00  0.00    -0.076 S 
ATOM      4  C   UNL     1      -1.062   0.860   4.576  0.00  0.00    +0.116 A 
ATOM      5  C   UNL     1      -1.244   0.068   3.430  0.00  0.00    +0.080 A 
ATOM      6  C   UNL     1      -2.449   0.307   2.696  0.00  0.00    +0.260 A 
ATOM      7  O   UNL     1      -2.698  -0.334   1.689  0.00  0.00    -0.267 OA
ATOM      8  N   UNL     1      -3.303   1.250   3.134  0.00  0.00    -0.312 N 
ATOM      9  H   UNL     1      -4.122   1.417   2.641  0.00  0.00    +0.170 HD
ATOM     10  C   UNL     1      -3.042   1.973   4.254  0.00  0.00    +0.094 A 
ATOM     11  N   UNL     1      -1.955   1.772   4.949  0.00  0.00    -0.229 NA
ENDROOT
BRANCH   1  18
ATOM     12  C   UNL     1      -0.096   0.230   0.494  0.00  0.00    +0.044 C 
ATOM     13  C   UNL     1      -0.206  -1.259   0.697  0.00  0.00    -0.043 A 
ATOM     14  C   UNL     1      -0.265  -2.103  -0.393  0.00  0.00    +0.004 A 
ATOM     15  C   UNL     1      -0.365  -3.470  -0.209  0.00  0.00    +0.000 A 
ATOM     16  C   UNL     1      -0.408  -4.000   1.069  0.00  0.00    +0.001 A 
ATOM     17  C   UNL     1      -0.351  -3.166   2.167  0.00  0.00    +0.009 A 
ATOM     18  C   UNL     1      -0.243  -1.787   1.987  0.00  0.00    -0.014 A 
ENDBRANCH   1  18
BRANCH  10  19
ATOM     19  C   UNL     1      -4.028   3.019   4.707  0.00  0.00    -0.004 C 
BRANCH  19  20
ATOM     20  N   UNL     1      -3.531   3.663   5.930  0.00  0.00    +0.384 N 
ATOM     21  C   UNL     1      -2.296   4.398   5.630  0.00  0.00    -0.095 C 
ATOM     22  H   UNL     1      -3.343   2.959   6.628  0.00  0.00    -0.082 HD
BRANCH  20  23
ATOM     23  C   UNL     1      -4.545   4.596   6.438  0.00  0.00    -0.047 C 
BRANCH  23  24
ATOM     24  C   UNL     1      -5.775   3.812   6.901  0.00  0.00    +0.101 C 
BRANCH  24  25
ATOM     25  C   UNL     1      -6.879   4.789   7.311  0.00  0.00    +0.010 C 
ATOM     26  C   UNL     1      -8.108   4.004   7.773  0.00  0.00    +0.010 C 
ATOM     27  C   UNL     1      -6.378   5.674   8.454  0.00  0.00    +0.010 C 
ENDBRANCH  24  25
BRANCH  24  28
ATOM     28  O   UNL     1      -5.425   2.993   8.018  0.00  0.00    -0.393 OA
ATOM     29  H   UNL     1      -5.098   3.488   8.782  0.00  0.00    +0.210 HD
ENDBRANCH  24  28
ENDBRANCH  23  24
ENDBRANCH  20  23
ENDBRANCH  19  20
ENDBRANCH  10  19
TORSDOF 7
