REMARK  Name = ZINC11439296
REMARK  12 active torsions:
REMARK  status: ('A' for Active; 'I' for Inactive)
REMARK    1  A    between atoms: C_1  and  C_2
REMARK    2  A    between atoms: C_2  and  C_3
REMARK    3  A    between atoms: C_6  and  C_9
REMARK    4  A    between atoms: C_9  and  C_11
REMARK    5  A    between atoms: C_9  and  N_12
REMARK    6  A    between atoms: C_13  and  C_15
REMARK    7  A    between atoms: C_15  and  O_16
REMARK    8  A    between atoms: O_16  and  C_17
REMARK    9  A    between atoms: C_17  and  C_19
REMARK   10  A    between atoms: C_19  and  C_20
REMARK   11  A    between atoms: C_20  and  N_21
REMARK   12  A    between atoms: N_24  and  C_25
REMARK                            x       y       z     vdW  Elec       q    Type
REMARK                         _______ _______ _______ _____ _____    ______ ____
ROOT
ATOM      1  C   UNL     1      -9.551   0.922   3.096  0.00  0.00    +0.309 C 
ATOM      2  O   UNL     1      -9.156   1.617   4.002  0.00  0.00    -0.251 OA
ENDROOT
BRANCH   1   3
ATOM      3  O   UNL     1     -10.810   0.458   3.106  0.00  0.00    -0.455 OA
BRANCH   3   4
ATOM      4  C   UNL     1     -11.642   0.830   4.236  0.00  0.00    +0.327 C 
BRANCH   4   6
ATOM      5  N   UNL     1     -13.957   0.434   5.011  0.00  0.00    -0.306 N 
ATOM      6  C   UNL     1     -13.011   0.222   4.075  0.00  0.00    +0.251 C 
ATOM      7  O   UNL     1     -13.261  -0.460   3.103  0.00  0.00    -0.272 OA
ATOM      8  H   UNL     1     -13.757   0.978   5.788  0.00  0.00    +0.149 HD
BRANCH   5   9
ATOM      9  C   UNL     1     -15.288  -0.158   4.854  0.00  0.00    +0.100 C 
ATOM     10  C   UNL     1     -15.278  -1.588   5.399  0.00  0.00    +0.033 C 
BRANCH   9  14
ATOM     11  C   UNL     1     -18.145   2.168   7.015  0.00  0.00    -0.048 A 
ATOM     12  C   UNL     1     -18.469   1.656   5.773  0.00  0.00    +0.004 A 
ATOM     13  C   UNL     1     -17.544   0.903   5.074  0.00  0.00    +0.006 A 
ATOM     14  C   UNL     1     -16.296   0.663   5.616  0.00  0.00    -0.027 A 
ATOM     15  C   UNL     1     -15.974   1.171   6.861  0.00  0.00    +0.006 A 
ATOM     16  C   UNL     1     -16.897   1.928   7.558  0.00  0.00    +0.004 A 
BRANCH  11  18
ATOM     17  C   UNL     1     -19.997   2.067   8.662  0.00  0.00    +0.009 C 
ATOM     18  C   UNL     1     -19.153   2.989   7.778  0.00  0.00    +0.032 C 
ENDBRANCH  11  18
ENDBRANCH   9  14
ENDBRANCH   5   9
ENDBRANCH   4   6
ENDBRANCH   3   4
ENDBRANCH   1   3
BRANCH   1  19
ATOM     19  C   UNL     1      -8.629   0.577   1.955  0.00  0.00    +0.139 C 
BRANCH  19  20
ATOM     20  C   UNL     1      -7.264   1.227   2.188  0.00  0.00    +0.117 C 
BRANCH  20  21
ATOM     21  N   UNL     1      -6.368   0.892   1.079  0.00  0.00    -0.299 N 
ATOM     22  C   UNL     1      -5.103   1.358   1.069  0.00  0.00    +0.300 C 
ATOM     23  O   UNL     1      -4.706   2.058   1.981  0.00  0.00    -0.253 OA
ATOM     24  N   UNL     1      -4.279   1.049   0.049  0.00  0.00    -0.294 N 
ATOM     25  H   UNL     1      -6.684   0.334   0.351  0.00  0.00    +0.150 HD
ATOM     26  H   UNL     1      -4.595   0.491  -0.679  0.00  0.00    +0.151 HD
BRANCH  24  27
ATOM     27  C   UNL     1      -2.904   1.556   0.038  0.00  0.00    +0.037 C 
ATOM     28  C   UNL     1      -2.188   1.063  -1.221  0.00  0.00    +0.029 C 
ATOM     29  C   UNL     1      -0.753   1.593  -1.232  0.00  0.00    -0.008 C 
ATOM     30  C   UNL     1      -0.013   1.086   0.008  0.00  0.00    +0.007 C 
ATOM     31  C   UNL     1      -0.729   1.579   1.267  0.00  0.00    -0.008 C 
ATOM     32  C   UNL     1      -2.164   1.050   1.278  0.00  0.00    +0.029 C 
ATOM     33  C   UNL     1      -0.750   3.109   1.275  0.00  0.00    +0.007 C 
ATOM     34  C   UNL     1      -1.490   3.616   0.036  0.00  0.00    -0.008 C 
ATOM     35  C   UNL     1      -0.773   3.123  -1.223  0.00  0.00    +0.007 C 
ATOM     36  C   UNL     1      -2.925   3.086   0.047  0.00  0.00    +0.029 C 
ENDBRANCH  24  27
ENDBRANCH  20  21
ENDBRANCH  19  20
ENDBRANCH   1  19
TORSDOF 10
