REMARK  Name = ZINC37823520
REMARK  8 active torsions:
REMARK  status: ('A' for Active; 'I' for Inactive)
REMARK    1  A    between atoms: C_1  and  C_2
REMARK    2  A    between atoms: C_2  and  C_4
REMARK    3  A    between atoms: C_2  and  C_19
REMARK    4  A    between atoms: C_4  and  N_5
REMARK    5  A    between atoms: N_5  and  C_6
REMARK    6  A    between atoms: C_7  and  C_9
REMARK    7  A    between atoms: C_19  and  O_21
REMARK    8  A    between atoms: O_21  and  C_22
REMARK                            x       y       z     vdW  Elec       q    Type
REMARK                         _______ _______ _______ _____ _____    ______ ____
ROOT
ATOM      1  N   UNL     1       2.119  -0.098  -1.209  0.00  0.00    -0.300 N 
ATOM      2  C   UNL     1       3.156  -0.929  -0.594  0.00  0.00    +0.132 C 
ATOM      3  C   UNL     1       2.442   1.095  -1.748  0.00  0.00    +0.246 C 
ATOM      4  O   UNL     1       1.568   1.831  -2.165  0.00  0.00    -0.270 OA
ENDROOT
BRANCH   3   5
ATOM      5  C   UNL     1       3.856   1.507  -1.832  0.00  0.00    +0.037 A 
ATOM      6  C   UNL     1       4.850   0.555  -2.076  0.00  0.00    +0.015 A 
ATOM      7  C   UNL     1       6.166   0.946  -2.152  0.00  0.00    +0.024 A 
ATOM      8  C   UNL     1       6.511   2.287  -1.987  0.00  0.00    +0.030 A 
ATOM      9  C   UNL     1       5.526   3.238  -1.747  0.00  0.00    -0.026 A 
ATOM     10  C   UNL     1       4.204   2.850  -1.673  0.00  0.00    +0.018 A 
ATOM     11  C   UNL     1       5.866   4.696  -1.576  0.00  0.00    +0.038 C 
ATOM     12  C   UNL     1       7.337   4.861  -1.197  0.00  0.00    +0.023 C 
ATOM     13  C   UNL     1       8.197   4.075  -2.196  0.00  0.00    +0.102 C 
ATOM     14  N   UNL     1       7.853   2.654  -2.065  0.00  0.00    -0.344 N 
ATOM     15  H   UNL     1       8.550   1.980  -2.032  0.00  0.00    +0.146 HD
ENDBRANCH   3   5
BRANCH   1  16
ATOM     16  C   UNL     1       0.730  -0.562  -1.239  0.00  0.00    +0.122 C 
BRANCH  16  18
ATOM     17  C   UNL     1      -0.079   1.443   0.013  0.00  0.00    +0.021 C 
ATOM     18  C   UNL     1       0.005  -0.085   0.021  0.00  0.00    +0.112 C 
BRANCH  18  19
ATOM     19  C   UNL     1      -1.386  -0.664   0.051  0.00  0.00    +0.311 C 
ATOM     20  O   UNL     1      -1.759  -1.385  -0.844  0.00  0.00    -0.251 OA
BRANCH  19  21
ATOM     21  O   UNL     1      -2.210  -0.380   1.071  0.00  0.00    -0.468 OA
ATOM     22  C   UNL     1      -3.514  -0.963   1.035  0.00  0.00    +0.280 C 
ENDBRANCH  19  21
ENDBRANCH  18  19
ENDBRANCH  16  18
ENDBRANCH   1  16
TORSDOF 5
