REMARK  Name = ZINC12859231
REMARK  13 active torsions:
REMARK  status: ('A' for Active; 'I' for Inactive)
REMARK    1  A    between atoms: C_1  and  C_2
REMARK    2  A    between atoms: C_2  and  O_3
REMARK    3  A    between atoms: O_3  and  C_4
REMARK    4  A    between atoms: C_4  and  C_6
REMARK    5  A    between atoms: C_7  and  C_26
REMARK    6  A    between atoms: C_9  and  N_25
REMARK    7  A    between atoms: C_10  and  C_23
REMARK    8  A    between atoms: C_11  and  C_13
REMARK    9  A    between atoms: C_18  and  C_19
REMARK   10  A    between atoms: C_26  and  S_27
REMARK   11  A    between atoms: S_27  and  C_28
REMARK   12  A    between atoms: C_29  and  C_39
REMARK   13  A    between atoms: N_36  and  C_38
REMARK                            x       y       z     vdW  Elec       q    Type
REMARK                         _______ _______ _______ _____ _____    ______ ____
ROOT
ATOM      1  C   UNL     1       1.569  -2.364   2.372  0.00  0.00    +0.088 C 
ATOM      2  C   UNL     1       1.492  -3.680   2.611  0.00  0.00    +0.128 C 
ATOM      3  O   UNL     1       2.018  -4.233   3.715  0.00  0.00    -0.444 OA
ATOM      4  C   UNL     1       2.304  -3.462   4.780  0.00  0.00    +0.198 C 
ATOM      5  C   UNL     1       2.430  -2.117   4.667  0.00  0.00    +0.098 C 
ATOM      6  C   UNL     1       2.260  -1.437   3.334  0.00  0.00    +0.105 C 
ENDROOT
BRANCH   6   7
ATOM      7  C   UNL     1       3.611  -1.060   2.783  0.00  0.00    -0.023 A 
ATOM      8  C   UNL     1       4.550  -2.041   2.523  0.00  0.00    +0.005 A 
ATOM      9  C   UNL     1       5.788  -1.695   2.017  0.00  0.00    +0.000 A 
ATOM     10  C   UNL     1       6.089  -0.368   1.772  0.00  0.00    +0.001 A 
ATOM     11  C   UNL     1       5.150   0.612   2.031  0.00  0.00    +0.012 A 
ATOM     12  C   UNL     1       3.909   0.266   2.533  0.00  0.00    +0.059 A 
BRANCH  12  13
ATOM     13  C   UNL     1       2.884   1.335   2.810  0.00  0.00    +0.418 C 
ATOM     14  F   UNL     1       3.414   2.587   2.480  0.00  0.00    -0.166 F 
ATOM     15  F   UNL     1       1.740   1.095   2.042  0.00  0.00    -0.166 F 
ATOM     16  F   UNL     1       2.546   1.315   4.168  0.00  0.00    -0.166 F 
ENDBRANCH  12  13
ENDBRANCH   6   7
BRANCH   4  17
ATOM     17  N   UNL     1       2.472  -4.051   6.009  0.00  0.00    -0.328 N 
ATOM     18  H   UNL     1       2.384  -5.012   6.102  0.00  0.00    +0.145 HD
ATOM     19  H   UNL     1       2.678  -3.505   6.784  0.00  0.00    +0.145 HD
ENDBRANCH   4  17
BRANCH   1  20
ATOM     20  C   UNL     1       0.995  -1.837   1.190  0.00  0.00    +0.339 C 
ATOM     21  O   UNL     1      -0.091  -1.289   1.232  0.00  0.00    -0.245 OA
BRANCH  20  22
ATOM     22  O   UNL     1       1.651  -1.944   0.015  0.00  0.00    -0.462 OA
BRANCH  22  24
ATOM     23  C   UNL     1       1.900  -1.605  -2.364  0.00  0.00    +0.048 C 
ATOM     24  C   UNL     1       1.012  -1.390  -1.137  0.00  0.00    +0.229 C 
ENDBRANCH  22  24
ENDBRANCH  20  22
ENDBRANCH   1  20
BRANCH   5  25
ATOM     25  C   UNL     1       2.734  -1.335   5.828  0.00  0.00    +0.101 C 
ATOM     26  N   UNL     1       2.974  -0.715   6.749  0.00  0.00    -0.191 NA
ENDBRANCH   5  25
BRANCH   2  27
ATOM     27  C   UNL     1       0.793  -4.565   1.612  0.00  0.00    +0.150 C 
BRANCH  27  28
ATOM     28  S   UNL     1       2.027  -5.492   0.658  0.00  0.00    -0.097 S 
BRANCH  28  29
ATOM     29  C   UNL     1       1.065  -6.466  -0.451  0.00  0.00    +0.115 A 
ATOM     30  C   UNL     1       1.703  -7.332  -1.358  0.00  0.00    +0.084 A 
ATOM     31  C   UNL     1       0.912  -8.088  -2.227  0.00  0.00    +0.028 A 
ATOM     32  C   UNL     1      -0.468  -7.957  -2.158  0.00  0.00    -0.011 A 
ATOM     33  C   UNL     1      -1.024  -7.091  -1.240  0.00  0.00    +0.048 A 
ATOM     34  N   UNL     1      -0.254  -6.385  -0.425  0.00  0.00    -0.244 NA
ATOM     35  C   UNL     1      -2.519  -6.926  -1.122  0.00  0.00    +0.071 C 
ATOM     36  C   UNL     1      -3.205  -7.473  -2.373  0.00  0.00    +0.090 C 
ATOM     37  N   UNL     1      -2.699  -8.831  -2.630  0.00  0.00    -0.301 NA
ATOM     38  C   UNL     1      -1.312  -8.773  -3.102  0.00  0.00    +0.121 C 
ATOM     39  C   UNL     1      -3.553  -9.538  -3.593  0.00  0.00    +0.105 C 
BRANCH  30  40
ATOM     40  C   UNL     1       3.131  -7.435  -1.390  0.00  0.00    +0.102 C 
ATOM     41  N   UNL     1       4.264  -7.516  -1.416  0.00  0.00    -0.191 NA
ENDBRANCH  30  40
ENDBRANCH  28  29
ENDBRANCH  27  28
ENDBRANCH   2  27
TORSDOF 11
