REMARK  Name = ZINC67010912
REMARK  12 active torsions:
REMARK  status: ('A' for Active; 'I' for Inactive)
REMARK    1  A    between atoms: C_1  and  C_2
REMARK    2  A    between atoms: C_6  and  C_8
REMARK    3  A    between atoms: C_8  and  N_13
REMARK    4  A    between atoms: N_13  and  C_14
REMARK    5  A    between atoms: C_14  and  C_15
REMARK    6  A    between atoms: C_17  and  O_28
REMARK    7  A    between atoms: C_18  and  O_23
REMARK    8  A    between atoms: C_19  and  O_21
REMARK    9  A    between atoms: O_21  and  C_22
REMARK   10  A    between atoms: O_23  and  C_24
REMARK   11  A    between atoms: C_24  and  C_25
REMARK   12  A    between atoms: O_28  and  C_29
REMARK                            x       y       z     vdW  Elec       q    Type
REMARK                         _______ _______ _______ _____ _____    ______ ____
ROOT
ATOM      1  C   UNL     1      -0.731   0.126   4.604  0.00  0.00    -0.057 A 
ATOM      2  C   UNL     1      -1.826   0.909   4.290  0.00  0.00    +0.051 A 
ATOM      3  C   UNL     1      -2.450   1.658   5.276  0.00  0.00    +0.165 A 
ATOM      4  C   UNL     1      -1.974   1.620   6.581  0.00  0.00    +0.204 A 
ATOM      5  C   UNL     1      -0.873   0.831   6.892  0.00  0.00    +0.165 A 
ATOM      6  C   UNL     1      -0.257   0.081   5.902  0.00  0.00    +0.051 A 
ENDROOT
BRANCH   5   7
ATOM      7  O   UNL     1      -0.403   0.791   8.168  0.00  0.00    -0.491 OA
ATOM      8  C   UNL     1       0.732  -0.042   8.415  0.00  0.00    +0.277 C 
ENDBRANCH   5   7
BRANCH   3   9
ATOM      9  O   UNL     1      -3.527   2.429   4.966  0.00  0.00    -0.491 OA
ATOM     10  C   UNL     1      -3.961   2.420   3.605  0.00  0.00    +0.277 C 
ENDBRANCH   3   9
BRANCH   1  11
ATOM     11  C   UNL     1      -0.055  -0.686   3.529  0.00  0.00    -0.045 C 
BRANCH  11  12
ATOM     12  N   UNL     1      -0.680  -2.013   3.451  0.00  0.00    +0.388 N 
ATOM     13  H   UNL     1      -1.637  -1.916   3.144  0.00  0.00    -0.084 HD
ATOM     14  H   UNL     1      -0.661  -2.447   4.361  0.00  0.00    -0.084 HD
BRANCH  12  15
ATOM     15  C   UNL     1       0.059  -2.847   2.494  0.00  0.00    -0.042 C 
ATOM     16  C   UNL     1       0.175  -2.121   1.138  0.00  0.00    -0.008 C 
ATOM     17  C   UNL     1       1.562  -1.433   1.194  0.00  0.00    -0.001 C 
ATOM     18  C   UNL     1       2.435  -2.482   1.926  0.00  0.00    -0.001 C 
ATOM     19  C   UNL     1       1.495  -3.077   2.995  0.00  0.00    -0.008 C 
BRANCH  15  25
ATOM     20  C   UNL     1      -3.564  -6.045   3.797  0.00  0.00    +0.044 C 
ATOM     21  C   UNL     1      -2.375  -5.699   2.937  0.00  0.00    -0.050 A 
ATOM     22  C   UNL     1      -1.928  -6.594   1.983  0.00  0.00    +0.003 A 
ATOM     23  C   UNL     1      -0.838  -6.277   1.195  0.00  0.00    +0.000 A 
ATOM     24  C   UNL     1      -0.195  -5.064   1.360  0.00  0.00    +0.002 A 
ATOM     25  C   UNL     1      -0.643  -4.169   2.314  0.00  0.00    -0.058 A 
ATOM     26  C   UNL     1      -1.736  -4.485   3.099  0.00  0.00    +0.005 A 
ENDBRANCH  15  25
ENDBRANCH  12  15
ENDBRANCH  11  12
ENDBRANCH   1  11
BRANCH   4  27
ATOM     27  O   UNL     1      -2.583   2.354   7.552  0.00  0.00    -0.476 OA
BRANCH  27  28
ATOM     28  C   UNL     1      -3.648   1.725   8.268  0.00  0.00    +0.324 C 
BRANCH  28  29
ATOM     29  C   UNL     1      -4.197   2.683   9.294  0.00  0.00    +0.248 C 
ATOM     30  O   UNL     1      -3.724   3.794   9.401  0.00  0.00    -0.272 OA
ATOM     31  N   UNL     1      -5.215   2.304  10.093  0.00  0.00    -0.327 N 
ATOM     32  H   UNL     1      -5.593   1.415  10.007  0.00  0.00    +0.145 HD
ATOM     33  H   UNL     1      -5.568   2.920  10.753  0.00  0.00    +0.145 HD
ENDBRANCH  28  29
ENDBRANCH  27  28
ENDBRANCH   4  27
TORSDOF 9
