REMARK  Name = ZINC39467422
REMARK  4 active torsions:
REMARK  status: ('A' for Active; 'I' for Inactive)
REMARK    1  A    between atoms: C_1  and  O_2
REMARK    2  A    between atoms: O_2  and  C_3
REMARK    3  A    between atoms: P_19  and  C_22
REMARK    4  A    between atoms: C_27  and  O_28
REMARK                            x       y       z     vdW  Elec       q    Type
REMARK                         _______ _______ _______ _____ _____    ______ ____
ROOT
ATOM      1  C   UNL     1      -1.200  -0.637   0.010  0.00  0.00    +0.130 C 
ATOM      2  C   UNL     1      -2.335   0.069   0.019  0.00  0.00    +0.022 C 
ATOM      3  C   UNL     1      -3.655  -0.652   0.040  0.00  0.00    +0.008 C 
ATOM      4  C   UNL     1      -4.748   0.244   0.605  0.00  0.00    -0.046 C 
ATOM      5  N   UNL     1      -4.458   0.621   1.998  0.00  0.00    +0.398 N 
ATOM      6  C   UNL     1      -4.383  -0.573   2.844  0.00  0.00    -0.020 C 
ATOM      7  C   UNL     1      -3.274  -1.505   2.343  0.00  0.00    -0.003 C 
ATOM      8  C   UNL     1      -3.541  -1.906   0.912  0.00  0.00    +0.017 C 
ATOM      9  C   UNL     1      -2.365  -2.725   0.438  0.00  0.00    -0.004 C 
ATOM     10  C   UNL     1      -1.266  -2.112   0.003  0.00  0.00    +0.056 C 
ATOM     11 BR   UNL     1       0.208  -3.124  -0.614  0.00  0.00    -0.047 Br
ATOM     12  C   UNL     1      -4.044  -0.215   4.296  0.00  0.00    +0.157 C 
ATOM     13  O   UNL     1      -5.079   0.624   4.840  0.00  0.00    -0.316 OA
ATOM     14  P   UNL     1      -5.525   1.928   3.975  0.00  0.00    +0.291 P 
ATOM     15  O   UNL     1      -4.564   3.034   4.182  0.00  0.00    -0.269 OA
ATOM     16  N   UNL     1      -5.501   1.431   2.397  0.00  0.00    -0.288 NA
ATOM     17  H   UNL     1      -6.192   1.701   1.771  0.00  0.00    +0.111 HD
ATOM     18  H   UNL     1      -3.592   1.137   2.039  0.00  0.00    -0.055 HD
ENDROOT
BRANCH  14  19
ATOM     19  C   UNL     1      -7.197   2.453   4.444  0.00  0.00    +0.091 A 
ATOM     20  C   UNL     1      -8.295   1.933   3.786  0.00  0.00    +0.018 A 
ATOM     21  C   UNL     1      -9.569   2.333   4.143  0.00  0.00    +0.001 A 
ATOM     22  C   UNL     1      -9.749   3.253   5.159  0.00  0.00    +0.004 A 
ATOM     23  C   UNL     1      -8.654   3.775   5.821  0.00  0.00    +0.046 A 
ATOM     24  C   UNL     1      -7.375   3.371   5.468  0.00  0.00    +0.131 A 
BRANCH  24  25
ATOM     25  O   UNL     1      -6.296   3.879   6.122  0.00  0.00    -0.506 OA
ATOM     26  H   UNL     1      -5.941   4.686   5.726  0.00  0.00    +0.292 HD
ENDBRANCH  24  25
ENDBRANCH  14  19
BRANCH   1  28
ATOM     27  C   UNL     1      -0.017   1.425   0.010  0.00  0.00    +0.277 C 
ATOM     28  O   UNL     1       0.002  -0.004   0.002  0.00  0.00    -0.494 OA
ENDBRANCH   1  28
TORSDOF 3
