REMARK  Name = ZINC05182554
REMARK  8 active torsions:
REMARK  status: ('A' for Active; 'I' for Inactive)
REMARK    1  A    between atoms: C_1  and  C_2
REMARK    2  A    between atoms: C_5  and  N_8
REMARK    3  A    between atoms: C_9  and  C_11
REMARK    4  A    between atoms: C_12  and  C_29
REMARK    5  A    between atoms: C_16  and  C_21
REMARK    6  A    between atoms: C_17  and  O_20
REMARK    7  A    between atoms: C_21  and  N_57
REMARK    8  A    between atoms: C_26  and  C_28
REMARK                            x       y       z     vdW  Elec       q    Type
REMARK                         _______ _______ _______ _____ _____    ______ ____
ROOT
ATOM      1  C   UNL     1       3.670   2.491  -3.965  0.00  0.00    +0.086 A 
ATOM      2  C   UNL     1       4.456   3.586  -4.152  0.00  0.00    +0.115 A 
ATOM      3  O   UNL     1       5.686   3.348  -3.683  0.00  0.00    -0.459 OA
ATOM      4  C   UNL     1       5.783   2.104  -3.167  0.00  0.00    +0.136 A 
ATOM      5  C   UNL     1       4.533   1.485  -3.314  0.00  0.00    +0.037 A 
ATOM      6  C   UNL     1       4.335   0.186  -2.860  0.00  0.00    -0.011 A 
ATOM      7  C   UNL     1       5.383  -0.499  -2.272  0.00  0.00    +0.119 A 
ATOM      8  C   UNL     1       6.625   0.113  -2.131  0.00  0.00    +0.049 A 
ATOM      9  C   UNL     1       6.825   1.403  -2.574  0.00  0.00    +0.050 A 
ATOM     10  C   UNL     1       4.007   4.874  -4.793  0.00  0.00    +0.087 C 
ENDROOT
BRANCH   1  12
ATOM     11  N   UNL     1       1.290   2.575  -3.427  0.00  0.00    -0.281 N 
ATOM     12  C   UNL     1       2.255   2.339  -4.337  0.00  0.00    +0.252 C 
ATOM     13  O   UNL     1       1.957   2.001  -5.467  0.00  0.00    -0.270 OA
ATOM     14  H   UNL     1       1.528   2.819  -2.519  0.00  0.00    +0.155 HD
BRANCH  11  19
ATOM     15  C   UNL     1      -4.169   2.141  -4.907  0.00  0.00    +0.044 C 
ATOM     16  C   UNL     1      -2.719   2.256  -4.513  0.00  0.00    -0.050 A 
ATOM     17  C   UNL     1      -2.352   3.076  -3.462  0.00  0.00    +0.005 A 
ATOM     18  C   UNL     1      -1.024   3.184  -3.099  0.00  0.00    +0.023 A 
ATOM     19  C   UNL     1      -0.056   2.468  -3.792  0.00  0.00    +0.034 A 
ATOM     20  C   UNL     1      -0.427   1.649  -4.851  0.00  0.00    +0.023 A 
ATOM     21  C   UNL     1      -1.758   1.542  -5.205  0.00  0.00    +0.005 A 
ENDBRANCH  11  19
ENDBRANCH   1  12
BRANCH   7  22
ATOM     22  O   UNL     1       5.200  -1.772  -1.831  0.00  0.00    -0.507 OA
ATOM     23  H   UNL     1       5.390  -2.449  -2.494  0.00  0.00    +0.292 HD
ENDBRANCH   7  22
BRANCH   6  24
ATOM     24  C   UNL     1       2.990  -0.475  -3.014  0.00  0.00    -0.038 C 
BRANCH  24  31
ATOM     25  C   UNL     1       4.045  -1.433  -4.971  0.00  0.00    -0.078 C 
ATOM     26  C   UNL     1       3.856  -1.713  -6.464  0.00  0.00    -0.019 C 
ATOM     27  C   UNL     1       2.707  -2.708  -6.649  0.00  0.00    -0.003 C 
ATOM     28  C   UNL     1       1.437  -2.134  -6.017  0.00  0.00    -0.016 C 
ATOM     29  C   UNL     1       1.696  -1.842  -4.537  0.00  0.00    -0.071 C 
ATOM     30  C   UNL     1       0.435  -1.248  -3.906  0.00  0.00    -0.013 C 
ATOM     31  N   UNL     1       2.796  -0.859  -4.428  0.00  0.00    +0.384 N 
ATOM     32  H   UNL     1       2.550  -0.023  -4.970  0.00  0.00    -0.081 HD
ENDBRANCH  24  31
ENDBRANCH   6  24
TORSDOF 5
