REMARK  Name = ZINC59461848
REMARK  8 active torsions:
REMARK  status: ('A' for Active; 'I' for Inactive)
REMARK    1  A    between atoms: C_1  and  C_2
REMARK    2  A    between atoms: C_5  and  C_8
REMARK    3  A    between atoms: C_15  and  C_19
REMARK    4  A    between atoms: C_16  and  C_18
REMARK    5  A    between atoms: C_19  and  C_21
REMARK    6  A    between atoms: C_19  and  C_28
REMARK    7  A    between atoms: C_28  and  C_30
REMARK    8  A    between atoms: C_28  and  C_32
REMARK                            x       y       z     vdW  Elec       q    Type
REMARK                         _______ _______ _______ _____ _____    ______ ____
ROOT
ATOM      1  C   UNL     1      -0.928  -3.529  -1.688  0.00  0.00    +0.080 A 
ATOM      2  C   UNL     1      -0.805  -3.891  -0.375  0.00  0.00    +0.077 A 
ATOM      3  S   UNL     1      -0.511  -5.647  -0.542  0.00  0.00    -0.056 S 
ATOM      4  C   UNL     1      -0.582  -5.716  -2.327  0.00  0.00    +0.196 A 
ATOM      5  N   UNL     1      -0.818  -4.453  -2.630  0.00  0.00    -0.221 NA
ATOM      6  N   UNL     1      -0.433  -6.809  -3.170  0.00  0.00    -0.194 N 
ATOM      7  C   UNL     1      -0.197  -8.081  -2.790  0.00  0.00    +0.277 A 
ATOM      8  C   UNL     1      -0.115  -8.870  -3.961  0.00  0.00    +0.048 A 
ATOM      9  C   UNL     1      -0.302  -8.062  -5.024  0.00  0.00    +0.039 A 
ATOM     10  N   UNL     1      -0.506  -6.790  -4.569  0.00  0.00    -0.292 N 
ATOM     11  C   UNL     1      -0.295  -8.491  -6.469  0.00  0.00    +0.065 C 
ATOM     12  O   UNL     1      -0.076  -8.479  -1.645  0.00  0.00    -0.265 OA
ATOM     13  H   UNL     1      -0.671  -6.008  -5.120  0.00  0.00    +0.187 HD
ENDROOT
BRANCH   1  18
ATOM     14  C   UNL     1      -1.940   1.960  -3.105  0.00  0.00    +0.044 C 
ATOM     15  C   UNL     1      -1.675   0.524  -2.734  0.00  0.00    -0.050 A 
ATOM     16  C   UNL     1      -1.561  -0.434  -3.726  0.00  0.00    +0.004 A 
ATOM     17  C   UNL     1      -1.318  -1.751  -3.392  0.00  0.00    +0.010 A 
ATOM     18  C   UNL     1      -1.188  -2.115  -2.053  0.00  0.00    +0.001 A 
ATOM     19  C   UNL     1      -1.305  -1.146  -1.058  0.00  0.00    +0.010 A 
ATOM     20  C   UNL     1      -1.542   0.169  -1.404  0.00  0.00    +0.004 A 
ENDBRANCH   1  18
BRANCH   8  21
ATOM     21  C   UNL     1       0.138 -10.355  -4.012  0.00  0.00    +0.082 C 
BRANCH  21  22
ATOM     22  C   UNL     1      -1.016 -11.083  -3.373  0.00  0.00    -0.038 A 
ATOM     23  C   UNL     1      -1.178 -11.053  -2.001  0.00  0.00    +0.006 A 
ATOM     24  C   UNL     1      -2.237 -11.721  -1.414  0.00  0.00    +0.020 A 
ATOM     25  C   UNL     1      -3.134 -12.420  -2.201  0.00  0.00    +0.041 A 
ATOM     26  C   UNL     1      -2.971 -12.451  -3.575  0.00  0.00    +0.020 A 
ATOM     27  C   UNL     1      -1.916 -11.777  -4.160  0.00  0.00    +0.006 A 
ATOM     28 CL   UNL     1      -4.463 -13.260  -1.466  0.00  0.00    -0.084 Cl
ENDBRANCH  21  22
BRANCH  21  29
ATOM     29  C   UNL     1       1.427 -10.678  -3.254  0.00  0.00    +0.189 C 
BRANCH  29  30
ATOM     30  C   UNL     1       2.582  -9.950  -3.893  0.00  0.00    +0.228 C 
ATOM     31  O   UNL     1       3.518 -10.575  -4.345  0.00  0.00    -0.275 OA
ATOM     32  N   UNL     1       2.574  -8.604  -3.962  0.00  0.00    -0.328 N 
ATOM     33  H   UNL     1       1.825  -8.104  -3.600  0.00  0.00    +0.145 HD
ATOM     34  H   UNL     1       3.317  -8.135  -4.373  0.00  0.00    +0.145 HD
ENDBRANCH  29  30
BRANCH  29  35
ATOM     35  C   UNL     1       1.675 -12.129  -3.304  0.00  0.00    +0.076 C 
ATOM     36  N   UNL     1       1.866 -13.248  -3.342  0.00  0.00    -0.196 NA
ENDBRANCH  29  35
ENDBRANCH  21  29
ENDBRANCH   8  21
TORSDOF 6
