REMARK  Name = ZINC67622807
REMARK  9 active torsions:
REMARK  status: ('A' for Active; 'I' for Inactive)
REMARK    1  A    between atoms: C_1  and  C_2
REMARK    2  A    between atoms: C_2  and  C_3
REMARK    3  A    between atoms: C_2  and  C_4
REMARK    4  A    between atoms: C_4  and  C_6
REMARK    5  A    between atoms: C_4  and  N_22
REMARK    6  A    between atoms: C_6  and  N_7
REMARK    7  A    between atoms: N_10  and  C_11
REMARK    8  A    between atoms: N_16  and  S_18
REMARK    9  A    between atoms: S_18  and  C_21
REMARK                            x       y       z     vdW  Elec       q    Type
REMARK                         _______ _______ _______ _____ _____    ______ ____
ROOT
ATOM      1  N   UNL     1      -2.554  -2.691  -0.017  0.00  0.00    -0.301 N 
ATOM      2  C   UNL     1      -2.663  -4.031   0.083  0.00  0.00    +0.300 C 
ATOM      3  O   UNL     1      -1.682  -4.704   0.335  0.00  0.00    -0.253 OA
ATOM      4  N   UNL     1      -3.859  -4.625  -0.098  0.00  0.00    -0.295 N 
ATOM      5  H   UNL     1      -3.337  -2.155  -0.218  0.00  0.00    +0.150 HD
ATOM      6  H   UNL     1      -4.641  -4.089  -0.300  0.00  0.00    +0.151 HD
ENDROOT
BRANCH   4   7
ATOM      7  C   UNL     1      -3.977  -6.081   0.010  0.00  0.00    +0.090 C 
ATOM      8  C   UNL     1      -3.622  -6.723  -1.333  0.00  0.00    +0.025 C 
ATOM      9  C   UNL     1      -3.713  -8.246  -1.213  0.00  0.00    +0.019 C 
ATOM     10  C   UNL     1      -5.149  -8.641  -0.853  0.00  0.00    +0.109 C 
ATOM     11  N   UNL     1      -5.549  -7.914   0.360  0.00  0.00    -0.180 NA
ATOM     12  C   UNL     1      -5.416  -6.451   0.384  0.00  0.00    +0.131 C 
BRANCH  11  13
ATOM     13  S   UNL     1      -6.140  -8.729   1.675  0.00  0.00    +0.029 S 
ATOM     14  O   UNL     1      -6.959  -7.784   2.349  0.00  0.00    -0.158 OA
ATOM     15  O   UNL     1      -6.699  -9.922   1.142  0.00  0.00    -0.158 OA
ATOM     16  C   UNL     1      -4.679  -9.117   2.678  0.00  0.00    +0.215 C 
ENDBRANCH  11  13
ENDBRANCH   4   7
BRANCH   1  17
ATOM     17  C   UNL     1      -1.254  -2.045   0.180  0.00  0.00    +0.091 C 
BRANCH  17  18
ATOM     18  C   UNL     1      -1.369  -0.556  -0.153  0.00  0.00    -0.048 C 
BRANCH  18  19
ATOM     19  N   UNL     1      -1.641  -0.395  -1.587  0.00  0.00    +0.383 N 
ATOM     20  C   UNL     1      -3.014  -0.863  -1.863  0.00  0.00    -0.078 C 
ATOM     21  C   UNL     1      -3.506  -0.175  -3.112  0.00  0.00    -0.019 C 
ATOM     22  C   UNL     1      -3.297  -1.053  -4.359  0.00  0.00    -0.002 C 
ATOM     23  C   UNL     1      -1.935  -1.776  -4.329  0.00  0.00    -0.002 C 
ATOM     24  C   UNL     1      -0.825  -0.886  -3.831  0.00  0.00    -0.019 C 
ATOM     25  C   UNL     1      -0.665  -1.084  -2.309  0.00  0.00    -0.078 C 
ATOM     26  H   UNL     1      -1.583   0.586  -1.819  0.00  0.00    -0.081 HD
ENDBRANCH  18  19
BRANCH  18  28
ATOM     27  C   UNL     1      -0.134   1.614  -0.230  0.00  0.00    +0.005 C 
ATOM     28  C   UNL     1      -0.056   0.147   0.199  0.00  0.00    -0.029 C 
ATOM     29  C   UNL     1       0.175   0.069   1.709  0.00  0.00    +0.005 C 
ENDBRANCH  18  28
ENDBRANCH  17  18
ENDBRANCH   1  17
TORSDOF 6
