REMARK  Name = ZINC28304907
REMARK  5 active torsions:
REMARK  status: ('A' for Active; 'I' for Inactive)
REMARK    1  A    between atoms: C_1  and  C_2
REMARK    2  A    between atoms: C_6  and  N_11
REMARK    3  A    between atoms: C_12  and  C_14
REMARK    4  A    between atoms: C_16  and  N_25
REMARK    5  A    between atoms: C_19  and  N_20
REMARK                            x       y       z     vdW  Elec       q    Type
REMARK                         _______ _______ _______ _____ _____    ______ ____
ROOT
ATOM      1  N   UNL     1      -5.187  -0.183   0.289  0.00  0.00    -0.281 N 
ATOM      2  C   UNL     1      -5.126   1.163   0.278  0.00  0.00    +0.250 C 
ATOM      3  O   UNL     1      -6.146   1.819   0.373  0.00  0.00    -0.270 OA
ATOM      4  H   UNL     1      -4.260  -0.776   0.281  0.00  0.00    +0.155 HD
ENDROOT
BRANCH   1  10
ATOM      5  C   UNL     1     -10.447  -5.096  -0.971  0.00  0.00    +0.109 C 
ATOM      6  C   UNL     1      -9.566  -3.946  -0.556  0.00  0.00    +0.194 A 
ATOM      7  N   UNL     1      -8.319  -3.807  -0.894  0.00  0.00    -0.213 NA
ATOM      8  C   UNL     1      -7.841  -2.658  -0.343  0.00  0.00    +0.111 A 
ATOM      9  C   UNL     1      -6.600  -2.019  -0.369  0.00  0.00    +0.055 A 
ATOM     10  C   UNL     1      -6.429  -0.828   0.312  0.00  0.00    +0.036 A 
ATOM     11  C   UNL     1      -7.487  -0.269   1.026  0.00  0.00    +0.027 A 
ATOM     12  C   UNL     1      -8.717  -0.891   1.052  0.00  0.00    +0.050 A 
ATOM     13  C   UNL     1      -8.903  -2.086   0.373  0.00  0.00    +0.155 A 
ATOM     14  O   UNL     1      -9.957  -2.919   0.214  0.00  0.00    -0.440 OA
ENDBRANCH   1  10
BRANCH   2  15
ATOM     15  C   UNL     1      -3.823   1.841   0.150  0.00  0.00    +0.060 A 
ATOM     16  C   UNL     1      -2.640   1.097   0.151  0.00  0.00    +0.047 A 
ATOM     17  C   UNL     1      -1.426   1.736   0.030  0.00  0.00    +0.127 A 
ATOM     18  C   UNL     1      -1.370   3.116  -0.086  0.00  0.00    +0.034 A 
ATOM     19  C   UNL     1      -2.529   3.865  -0.094  0.00  0.00    +0.026 A 
ATOM     20  C   UNL     1      -3.763   3.238   0.026  0.00  0.00    +0.042 A 
BRANCH  20  21
ATOM     21  N   UNL     1      -4.931   3.989   0.024  0.00  0.00    -0.329 N 
ATOM     22  C   UNL     1      -4.873   5.067   1.045  0.00  0.00    +0.105 C 
ATOM     23  C   UNL     1      -5.946   6.074   0.559  0.00  0.00    +0.020 C 
ATOM     24  C   UNL     1      -5.794   6.025  -0.979  0.00  0.00    +0.020 C 
ATOM     25  C   UNL     1      -5.118   4.673  -1.274  0.00  0.00    +0.105 C 
ENDBRANCH  20  21
BRANCH  17  26
ATOM     26  N   UNL     1      -0.174   0.946   0.032  0.00  0.00    +0.056 N 
ATOM     27  O   UNL     1      -0.220  -0.267   0.139  0.00  0.00    -0.126 OA
ATOM     28  O   UNL     1       0.900   1.508  -0.079  0.00  0.00    -0.126 OA
ENDBRANCH  17  26
ENDBRANCH   2  15
TORSDOF 4
