REMARK  Name = ZINC03309152
REMARK  6 active torsions:
REMARK  status: ('A' for Active; 'I' for Inactive)
REMARK    1  A    between atoms: C_4  and  C_7
REMARK    2  A    between atoms: C_12  and  O_16
REMARK    3  A    between atoms: O_16  and  C_17
REMARK    4  A    between atoms: C_17  and  C_18
REMARK    5  A    between atoms: N_20  and  C_21
REMARK    6  A    between atoms: C_22  and  C_30
REMARK                            x       y       z     vdW  Elec       q    Type
REMARK                         _______ _______ _______ _____ _____    ______ ____
ROOT
ATOM      1  C   UNL     1      -0.339   3.039  -3.268  0.00  0.00    +0.255 C 
ATOM      2  O   UNL     1      -0.569   2.135  -2.492  0.00  0.00    -0.272 OA
ATOM      3  N   UNL     1      -1.267   3.398  -4.177  0.00  0.00    -0.277 N 
ATOM      4  H   UNL     1      -1.084   4.121  -4.798  0.00  0.00    +0.155 HD
ENDROOT
BRANCH   3   5
ATOM      5  C   UNL     1      -2.483   2.734  -4.226  0.00  0.00    +0.084 A 
ATOM      6  C   UNL     1      -3.555   2.960  -5.078  0.00  0.00    +0.068 A 
ATOM      7  C   UNL     1      -4.726   2.113  -4.924  0.00  0.00    -0.023 A 
ATOM      8  C   UNL     1      -4.642   1.189  -3.942  0.00  0.00    -0.004 A 
ATOM      9  S   UNL     1      -3.037   1.425  -3.234  0.00  0.00    -0.077 S 
ATOM     10  C   UNL     1      -5.686   0.190  -3.550  0.00  0.00    +0.043 C 
ATOM     11  C   UNL     1      -7.021   0.613  -4.182  0.00  0.00    +0.005 C 
ATOM     12  C   UNL     1      -6.786   0.940  -5.659  0.00  0.00    +0.005 C 
ATOM     13  C   UNL     1      -5.978   2.233  -5.784  0.00  0.00    +0.037 C 
BRANCH   6  14
ATOM     14  C   UNL     1      -3.506   4.011  -6.099  0.00  0.00    +0.244 C 
ATOM     15  O   UNL     1      -3.084   3.759  -7.212  0.00  0.00    -0.270 OA
ATOM     16  N   UNL     1      -3.930   5.256  -5.805  0.00  0.00    -0.325 N 
ATOM     17  H   UNL     1      -4.267   5.457  -4.917  0.00  0.00    +0.145 HD
ATOM     18  H   UNL     1      -3.898   5.952  -6.480  0.00  0.00    +0.145 HD
ENDBRANCH   6  14
ENDBRANCH   3   5
BRANCH   1  19
ATOM     19  C   UNL     1       0.983   3.760  -3.214  0.00  0.00    +0.326 C 
BRANCH  19  20
ATOM     20  O   UNL     1       1.789   3.201  -2.175  0.00  0.00    -0.466 OA
BRANCH  20  26
ATOM     21  C   UNL     1       3.659   2.163  -0.023  0.00  0.00    +0.003 A 
ATOM     22  C   UNL     1       4.641   1.869   0.862  0.00  0.00    +0.056 A 
ATOM     23  S   UNL     1       5.933   3.026   0.449  0.00  0.00    -0.076 S 
ATOM     24  C   UNL     1       5.133   3.878  -0.883  0.00  0.00    +0.116 A 
ATOM     25  C   UNL     1       3.877   3.241  -0.982  0.00  0.00    +0.077 A 
ATOM     26  C   UNL     1       3.018   3.741  -1.993  0.00  0.00    +0.227 A 
ATOM     27  N   UNL     1       3.429   4.739  -2.756  0.00  0.00    -0.201 NA
ATOM     28  C   UNL     1       4.621   5.291  -2.609  0.00  0.00    +0.226 A 
ATOM     29  N   UNL     1       5.464   4.870  -1.687  0.00  0.00    -0.228 NA
BRANCH  21  33
ATOM     30  C   UNL     1       0.002  -0.004   0.002  0.00  0.00    +0.000 A 
ATOM     31  C   UNL     1      -0.017   1.379   0.010  0.00  0.00    +0.001 A 
ATOM     32  C   UNL     1       1.167   2.088   0.002  0.00  0.00    +0.008 A 
ATOM     33  C   UNL     1       2.384   1.407  -0.014  0.00  0.00    -0.017 A 
ATOM     34  C   UNL     1       2.397   0.013  -0.021  0.00  0.00    +0.008 A 
ATOM     35  C   UNL     1       1.206  -0.685  -0.013  0.00  0.00    +0.001 A 
ENDBRANCH  21  33
ENDBRANCH  20  26
ENDBRANCH  19  20
ENDBRANCH   1  19
TORSDOF 6
