REMARK  Name = ZINC10209565
REMARK  10 active torsions:
REMARK  status: ('A' for Active; 'I' for Inactive)
REMARK    1  A    between atoms: C_1  and  C_2
REMARK    2  A    between atoms: C_2  and  C_3
REMARK    3  A    between atoms: C_2  and  C_4
REMARK    4  A    between atoms: C_4  and  N_5
REMARK    5  A    between atoms: C_9  and  C_11
REMARK    6  A    between atoms: C_11  and  O_12
REMARK    7  A    between atoms: O_12  and  C_13
REMARK    8  A    between atoms: C_13  and  C_15
REMARK    9  A    between atoms: N_18  and  S_21
REMARK   10  A    between atoms: S_21  and  C_24
REMARK                            x       y       z     vdW  Elec       q    Type
REMARK                         _______ _______ _______ _____ _____    ______ ____
ROOT
ATOM      1  C   UNL     1      -4.122  -3.501   4.408  0.00  0.00    +0.311 C 
ATOM      2  O   UNL     1      -5.293  -3.293   4.193  0.00  0.00    -0.251 OA
ENDROOT
BRANCH   1   3
ATOM      3  C   UNL     1      -3.073  -2.618   3.782  0.00  0.00    +0.100 C 
ATOM      4  C   UNL     1      -3.753  -1.546   2.928  0.00  0.00    +0.032 C 
ATOM      5  C   UNL     1      -2.685  -0.629   2.321  0.00  0.00    +0.110 C 
ATOM      6  N   UNL     1      -1.713  -1.455   1.592  0.00  0.00    -0.176 NA
ATOM      7  C   UNL     1      -1.071  -2.575   2.293  0.00  0.00    +0.110 C 
ATOM      8  C   UNL     1      -2.152  -3.466   2.901  0.00  0.00    +0.032 C 
BRANCH   6   9
ATOM      9  S   UNL     1      -1.351  -1.132   0.008  0.00  0.00    +0.067 S 
ATOM     10  O   UNL     1      -2.466  -0.432  -0.528  0.00  0.00    -0.152 OA
ATOM     11  O   UNL     1      -0.871  -2.346  -0.554  0.00  0.00    -0.152 OA
BRANCH   9  12
ATOM     12  C   UNL     1       0.002  -0.004   0.002  0.00  0.00    +0.143 A 
ATOM     13  C   UNL     1       1.332  -0.266  -0.012  0.00  0.00    +0.036 A 
ATOM     14  C   UNL     1       2.223   0.790  -0.015  0.00  0.00    +0.010 A 
ATOM     15  C   UNL     1       1.742   2.057  -0.004  0.00  0.00    +0.047 A 
ATOM     16  S   UNL     1      -0.022   1.781   0.012  0.00  0.00    -0.077 S 
ENDBRANCH   9  12
ENDBRANCH   6   9
ENDBRANCH   1   3
BRANCH   1  17
ATOM     17  O   UNL     1      -3.756  -4.517   5.204  0.00  0.00    -0.455 OA
BRANCH  17  18
ATOM     18  C   UNL     1      -4.820  -5.326   5.772  0.00  0.00    +0.328 C 
BRANCH  18  23
ATOM     19  N   UNL     1      -5.295  -9.134   8.667  0.00  0.00    -0.299 N 
ATOM     20  C   UNL     1      -4.492  -8.257   8.033  0.00  0.00    +0.306 C 
ATOM     21  O   UNL     1      -3.285  -8.341   8.155  0.00  0.00    -0.252 OA
ATOM     22  N   UNL     1      -5.026  -7.287   7.265  0.00  0.00    -0.237 N 
ATOM     23  C   UNL     1      -4.223  -6.410   6.631  0.00  0.00    +0.258 C 
ATOM     24  O   UNL     1      -3.019  -6.493   6.753  0.00  0.00    -0.272 OA
ATOM     25  H   UNL     1      -6.258  -9.068   8.570  0.00  0.00    +0.150 HD
ATOM     26  H   UNL     1      -5.989  -7.221   7.168  0.00  0.00    +0.159 HD
BRANCH  19  27
ATOM     27  C   UNL     1      -4.715 -10.188   9.502  0.00  0.00    +0.108 C 
BRANCH  27  29
ATOM     28  C   UNL     1      -6.574 -11.773   8.979  0.00  0.00    +0.009 C 
ATOM     29  C   UNL     1      -5.836 -11.040  10.101  0.00  0.00    -0.000 C 
ATOM     30  C   UNL     1      -5.238 -12.062  11.071  0.00  0.00    +0.009 C 
ENDBRANCH  27  29
ENDBRANCH  19  27
ENDBRANCH  18  23
ENDBRANCH  17  18
ENDBRANCH   1  17
TORSDOF 8
