REMARK  Name = ZINC39768547
REMARK  6 active torsions:
REMARK  status: ('A' for Active; 'I' for Inactive)
REMARK    1  A    between atoms: C_1  and  C_2
REMARK    2  A    between atoms: C_10  and  C_11
REMARK    3  A    between atoms: C_15  and  S_24
REMARK    4  A    between atoms: N_17  and  C_18
REMARK    5  A    between atoms: S_24  and  C_25
REMARK    6  A    between atoms: C_25  and  C_26
REMARK                            x       y       z     vdW  Elec       q    Type
REMARK                         _______ _______ _______ _____ _____    ______ ____
ROOT
ATOM      1  C   UNL     1       0.030  -0.352   2.503  0.00  0.00    +0.283 C 
ATOM      2  N   UNL     1       0.747   0.919   2.618  0.00  0.00    -0.159 NA
ATOM      3  N   UNL     1       1.725   0.827   3.357  0.00  0.00    -0.156 NA
ATOM      4  C   UNL     1       1.874  -0.526   3.897  0.00  0.00    +0.276 C 
ATOM      5  N   UNL     1       0.761  -1.319   3.343  0.00  0.00    -0.269 N 
ENDROOT
BRANCH   1  15
ATOM      6  C   UNL     1      -0.018   1.503   0.010  0.00  0.00    +0.048 C 
ATOM      7  C   UNL     1       0.002  -0.004   0.002  0.00  0.00    +0.002 A 
ATOM      8  C   UNL     1       0.009  -0.879  -1.177  0.00  0.00    +0.023 A 
ATOM      9  C   UNL     1       0.000  -0.660  -2.553  0.00  0.00    +0.012 A 
ATOM     10  C   UNL     1       0.011  -1.726  -3.409  0.00  0.00    +0.001 A 
ATOM     11  C   UNL     1       0.031  -3.023  -2.916  0.00  0.00    +0.004 A 
ATOM     12  C   UNL     1       0.040  -3.259  -1.558  0.00  0.00    +0.047 A 
ATOM     13  C   UNL     1       0.029  -2.190  -0.671  0.00  0.00    +0.136 A 
ATOM     14  O   UNL     1       0.033  -2.100   0.674  0.00  0.00    -0.456 OA
ATOM     15  C   UNL     1       0.023  -0.814   1.069  0.00  0.00    +0.153 A 
ENDBRANCH   1  15
BRANCH   5  16
ATOM     16  C   UNL     1       0.467  -2.667   3.561  0.00  0.00    +0.034 A 
ATOM     17  C   UNL     1      -0.631  -3.249   2.942  0.00  0.00    +0.023 A 
ATOM     18  C   UNL     1      -0.918  -4.582   3.159  0.00  0.00    +0.002 A 
ATOM     19  C   UNL     1      -0.113  -5.337   3.992  0.00  0.00    +0.000 A 
ATOM     20  C   UNL     1       0.981  -4.761   4.610  0.00  0.00    +0.002 A 
ATOM     21  C   UNL     1       1.277  -3.429   4.393  0.00  0.00    +0.023 A 
ENDBRANCH   5  16
BRANCH   4  22
ATOM     22  S   UNL     1       3.463  -1.232   3.379  0.00  0.00    -0.106 S 
BRANCH  22  23
ATOM     23  C   UNL     1       3.390  -1.192   1.567  0.00  0.00    +0.147 C 
BRANCH  23  24
ATOM     24  C   UNL     1       4.667  -1.759   1.001  0.00  0.00    +0.120 A 
ATOM     25  N   UNL     1       4.806  -1.809  -0.350  0.00  0.00    -0.310 N 
ATOM     26  H   UNL     1       4.091  -1.484  -0.919  0.00  0.00    +0.170 HD
ATOM     27  C   UNL     1       5.934  -2.309  -0.908  0.00  0.00    +0.259 A 
ATOM     28  O   UNL     1       6.072  -2.359  -2.116  0.00  0.00    -0.267 OA
ATOM     29  C   UNL     1       6.984  -2.788   0.002  0.00  0.00    +0.065 A 
ATOM     30  C   UNL     1       8.182  -3.320  -0.470  0.00  0.00    +0.015 A 
ATOM     31  C   UNL     1       9.133  -3.754   0.427  0.00  0.00    +0.001 A 
ATOM     32  C   UNL     1       8.906  -3.665   1.794  0.00  0.00    +0.002 A 
ATOM     33  C   UNL     1       7.729  -3.143   2.282  0.00  0.00    +0.028 A 
ATOM     34  C   UNL     1       6.750  -2.696   1.392  0.00  0.00    +0.078 A 
ATOM     35  N   UNL     1       5.579  -2.169   1.829  0.00  0.00    -0.233 NA
ENDBRANCH  23  24
ENDBRANCH  22  23
ENDBRANCH   4  22
TORSDOF 5
