REMARK  Name = ZINC08791015
REMARK  7 active torsions:
REMARK  status: ('A' for Active; 'I' for Inactive)
REMARK    1  A    between atoms: C_1  and  C_2
REMARK    2  A    between atoms: C_16  and  C_18
REMARK    3  A    between atoms: C_18  and  C_19
REMARK    4  A    between atoms: C_22  and  O_25
REMARK    5  A    between atoms: N_28  and  C_31
REMARK    6  A    between atoms: C_31  and  C_32
REMARK    7  A    between atoms: C_32  and  C_33
REMARK                            x       y       z     vdW  Elec       q    Type
REMARK                         _______ _______ _______ _____ _____    ______ ____
ROOT
ATOM      1  C   UNL     1      -2.044  -0.208   7.860  0.00  0.00    +0.046 C 
ATOM      2  C   UNL     1      -1.062  -0.279   6.719  0.00  0.00    -0.028 A 
ATOM      3  C   UNL     1       0.260   0.058   6.928  0.00  0.00    +0.025 A 
ATOM      4  C   UNL     1       1.169  -0.004   5.887  0.00  0.00    +0.042 A 
ATOM      5  C   UNL     1       0.750  -0.407   4.630  0.00  0.00    +0.024 A 
ATOM      6  C   UNL     1      -0.568  -0.744   4.418  0.00  0.00    -0.026 A 
ATOM      7  C   UNL     1      -1.491  -0.686   5.459  0.00  0.00    +0.039 A 
ATOM      8  N   UNL     1      -2.755  -1.071   5.005  0.00  0.00    -0.286 N 
ATOM      9  C   UNL     1      -2.749  -1.393   3.697  0.00  0.00    +0.211 C 
ATOM     10  O   UNL     1      -3.698  -1.762   3.038  0.00  0.00    -0.277 OA
ATOM     11  C   UNL     1      -1.337  -1.208   3.213  0.00  0.00    +0.050 C 
ATOM     12  C   UNL     1      -0.763  -2.512   2.646  0.00  0.00    +0.088 C 
ATOM     13  C   UNL     1       0.132  -2.062   1.457  0.00  0.00    +0.073 C 
ATOM     14  C   UNL     1       0.023  -0.522   1.442  0.00  0.00    -0.053 C 
ATOM     15  C   UNL     1       1.528  -2.456   1.883  0.00  0.00    +0.224 C 
ATOM     16  O   UNL     1       2.534  -2.286   1.229  0.00  0.00    -0.275 OA
ATOM     17  N   UNL     1       1.460  -3.023   3.110  0.00  0.00    -0.241 N 
ATOM     18  C   UNL     1       0.227  -3.104   3.623  0.00  0.00    +0.225 C 
ATOM     19  O   UNL     1      -0.053  -3.579   4.703  0.00  0.00    -0.275 OA
ATOM     20 CL   UNL     1       2.830   0.422   6.155  0.00  0.00    -0.084 Cl
ATOM     21  H   UNL     1      -3.546  -1.103   5.567  0.00  0.00    +0.155 HD
ATOM     22  N   UNL     1      -1.242  -0.248   2.127  0.00  0.00    +0.394 N 
ATOM     23  H   UNL     1      -1.245   0.710   2.498  0.00  0.00    -0.083 HD
ATOM     24  H   UNL     1      -2.030  -0.366   1.479  0.00  0.00    -0.083 HD
ENDROOT
BRANCH  14  25
ATOM     25  C   UNL     1       0.002  -0.004   0.002  0.00  0.00    +0.020 C 
BRANCH  25  26
ATOM     26  C   UNL     1      -0.018   1.503   0.010  0.00  0.00    -0.049 A 
ATOM     27  C   UNL     1      -1.226   2.177   0.020  0.00  0.00    +0.007 A 
ATOM     28  C   UNL     1      -1.247   3.558   0.033  0.00  0.00    +0.045 A 
ATOM     29  C   UNL     1      -0.056   4.269   0.026  0.00  0.00    +0.117 A 
ATOM     30  C   UNL     1       1.154   3.591   0.011  0.00  0.00    +0.045 A 
ATOM     31  C   UNL     1       1.170   2.209   0.003  0.00  0.00    +0.007 A 
BRANCH  29  32
ATOM     32  O   UNL     1      -0.074   5.628   0.033  0.00  0.00    -0.507 OA
ATOM     33  H   UNL     1      -0.088   6.026  -0.848  0.00  0.00    +0.292 HD
ENDBRANCH  29  32
ENDBRANCH  25  26
ENDBRANCH  14  25
BRANCH  17  34
ATOM     34  C   UNL     1       2.646  -3.515   3.817  0.00  0.00    +0.121 C 
BRANCH  34  35
ATOM     35  C   UNL     1       2.888  -4.980   3.448  0.00  0.00    +0.054 C 
BRANCH  35  36
ATOM     36  C   UNL     1       4.107  -5.486   4.175  0.00  0.00    -0.046 A 
ATOM     37  C   UNL     1       5.355  -5.379   3.589  0.00  0.00    +0.004 A 
ATOM     38  C   UNL     1       6.474  -5.839   4.257  0.00  0.00    +0.000 A 
ATOM     39  C   UNL     1       6.344  -6.415   5.507  0.00  0.00    +0.000 A 
ATOM     40  C   UNL     1       5.096  -6.527   6.091  0.00  0.00    +0.000 A 
ATOM     41  C   UNL     1       3.977  -6.062   5.424  0.00  0.00    +0.004 A 
ENDBRANCH  35  36
ENDBRANCH  34  35
ENDBRANCH  17  34
TORSDOF 6
