REMARK  Name = ZINC13147143
REMARK  7 active torsions:
REMARK  status: ('A' for Active; 'I' for Inactive)
REMARK    1  A    between atoms: C_1  and  C_2
REMARK    2  A    between atoms: C_2  and  S_3
REMARK    3  A    between atoms: S_3  and  C_4
REMARK    4  A    between atoms: C_12  and  C_25
REMARK    5  A    between atoms: C_14  and  C_16
REMARK    6  A    between atoms: C_21  and  O_23
REMARK    7  A    between atoms: O_23  and  C_24
REMARK                            x       y       z     vdW  Elec       q    Type
REMARK                         _______ _______ _______ _____ _____    ______ ____
ROOT
ATOM      1  C   UNL     1      -1.508  -2.383   0.004  0.00  0.00    +0.171 A 
ATOM      2  N   UNL     1      -2.621  -3.171   0.004  0.00  0.00    -0.302 N 
ATOM      3  C   UNL     1      -2.497  -4.517  -0.004  0.00  0.00    +0.258 A 
ATOM      4  O   UNL     1      -3.484  -5.236  -0.004  0.00  0.00    -0.267 OA
ATOM      5  C   UNL     1      -1.221  -5.064  -0.014  0.00  0.00    +0.073 A 
ATOM      6  C   UNL     1      -0.103  -4.226  -0.015  0.00  0.00    +0.165 A 
ATOM      7  N   UNL     1      -0.295  -2.893  -0.011  0.00  0.00    -0.204 NA
ATOM      8  N   UNL     1       1.141  -4.733  -0.025  0.00  0.00    -0.232 NA
ATOM      9  C   UNL     1       1.434  -6.007  -0.034  0.00  0.00    +0.051 C 
ATOM     10  C   UNL     1       0.455  -7.006  -0.036  0.00  0.00    +0.070 C 
ATOM     11  C   UNL     1      -0.998  -6.558  -0.024  0.00  0.00    +0.103 C 
ATOM     12  C   UNL     1       0.789  -8.329  -0.046  0.00  0.00    +0.338 C 
ATOM     13  O   UNL     1      -0.177  -9.269  -0.047  0.00  0.00    -0.245 OA
ATOM     14  C   UNL     1       2.885  -6.415  -0.045  0.00  0.00    +0.066 C 
ATOM     15  H   UNL     1      -3.502  -2.765   0.011  0.00  0.00    +0.171 HD
ENDROOT
BRANCH  11  16
ATOM     16  C   UNL     1      -1.677  -7.128  -1.243  0.00  0.00    +0.002 A 
ATOM     17  C   UNL     1      -2.671  -8.047  -1.316  0.00  0.00    +0.012 A 
ATOM     18  C   UNL     1      -3.145  -8.425  -2.558  0.00  0.00    +0.008 A 
ATOM     19  C   UNL     1      -2.602  -7.866  -3.667  0.00  0.00    +0.045 A 
ATOM     20  S   UNL     1      -1.386  -6.763  -2.966  0.00  0.00    -0.101 S 
ENDBRANCH  11  16
BRANCH  12  21
ATOM     21  O   UNL     1       2.087  -8.695  -0.055  0.00  0.00    -0.465 OA
ATOM     22  C   UNL     1       2.365 -10.097  -0.066  0.00  0.00    +0.280 C 
ENDBRANCH  12  21
BRANCH   1  23
ATOM     23  S   UNL     1      -1.700  -0.632   0.015  0.00  0.00    -0.088 S 
BRANCH  23  25
ATOM     24  C   UNL     1      -0.019   1.526   0.010  0.00  0.00    +0.016 C 
ATOM     25  C   UNL     1       0.002  -0.004   0.002  0.00  0.00    +0.074 C 
ENDBRANCH  23  25
ENDBRANCH   1  23
TORSDOF 4
