REMARK  Name = ZINC09282808
REMARK  5 active torsions:
REMARK  status: ('A' for Active; 'I' for Inactive)
REMARK    1  A    between atoms: C_1  and  C_2
REMARK    2  A    between atoms: C_6  and  C_13
REMARK    3  A    between atoms: C_13  and  N_14
REMARK    4  A    between atoms: C_17  and  C_21
REMARK    5  A    between atoms: C_17  and  C_22
REMARK                            x       y       z     vdW  Elec       q    Type
REMARK                         _______ _______ _______ _____ _____    ______ ____
ROOT
ATOM      1  N   UNL     1       3.092   1.137   1.312  0.00  0.00    -0.220 N 
ATOM      2  C   UNL     1       3.841   2.171   1.742  0.00  0.00    +0.251 C 
ATOM      3  O   UNL     1       4.124   3.176   1.126  0.00  0.00    -0.272 OA
ATOM      4  C   UNL     1       4.254   1.818   3.157  0.00  0.00    +0.136 C 
ATOM      5  N   UNL     1       3.638   0.498   3.378  0.00  0.00    -0.281 N 
ATOM      6  C   UNL     1       2.982   0.185   2.247  0.00  0.00    +0.310 C 
ATOM      7  O   UNL     1       2.359  -0.846   2.090  0.00  0.00    -0.252 OA
ATOM      8  C   UNL     1       3.706   2.842   4.154  0.00  0.00    +0.047 C 
ATOM      9  H   UNL     1       3.695  -0.040   4.183  0.00  0.00    +0.152 HD
ENDROOT
BRANCH   4  10
ATOM     10  C   UNL     1       5.754   1.728   3.264  0.00  0.00    +0.003 A 
ATOM     11  C   UNL     1       6.354   0.519   3.567  0.00  0.00    +0.009 A 
ATOM     12  C   UNL     1       7.730   0.436   3.664  0.00  0.00    +0.020 A 
ATOM     13  C   UNL     1       8.508   1.562   3.460  0.00  0.00    +0.042 A 
ATOM     14  C   UNL     1       7.909   2.771   3.158  0.00  0.00    +0.040 A 
ATOM     15  C   UNL     1       6.532   2.853   3.054  0.00  0.00    +0.048 A 
ATOM     16 CL   UNL     1       5.779   4.368   2.666  0.00  0.00    -0.083 Cl
ATOM     17 CL   UNL     1      10.237   1.456   3.583  0.00  0.00    -0.083 Cl
ENDBRANCH   4  10
BRANCH   1  18
ATOM     18  C   UNL     1       2.480   1.060  -0.017  0.00  0.00    +0.154 C 
BRANCH  18  24
ATOM     19  C   UNL     1      -1.925   2.501  -4.785  0.00  0.00    +0.044 C 
ATOM     20  C   UNL     1      -1.120   2.307  -3.526  0.00  0.00    -0.047 A 
ATOM     21  C   UNL     1       0.105   1.658  -3.587  0.00  0.00    +0.004 A 
ATOM     22  C   UNL     1       0.849   1.473  -2.455  0.00  0.00    +0.012 A 
ATOM     23  C   UNL     1       0.372   1.943  -1.228  0.00  0.00    +0.022 A 
ATOM     24  C   UNL     1       1.146   1.760   0.004  0.00  0.00    -0.012 A 
ATOM     25  C   UNL     1       0.628   2.239   1.163  0.00  0.00    +0.098 A 
ATOM     26  C   UNL     1      -0.627   2.886   1.157  0.00  0.00    +0.338 A 
ATOM     27  O   UNL     1      -1.084   3.307   2.204  0.00  0.00    -0.245 OA
ATOM     28  O   UNL     1      -1.327   3.055   0.024  0.00  0.00    -0.422 OA
ATOM     29  C   UNL     1      -0.868   2.602  -1.162  0.00  0.00    +0.140 A 
ATOM     30  C   UNL     1      -1.608   2.778  -2.325  0.00  0.00    +0.050 A 
ENDBRANCH  18  24
ENDBRANCH   1  18
TORSDOF 3
