REMARK  Name = ZINC33154984
REMARK  4 active torsions:
REMARK  status: ('A' for Active; 'I' for Inactive)
REMARK    1  A    between atoms: C_1  and  O_2
REMARK    2  A    between atoms: O_2  and  C_3
REMARK    3  A    between atoms: C_6  and  C_10
REMARK    4  A    between atoms: N_11  and  N_12
REMARK                            x       y       z     vdW  Elec       q    Type
REMARK                         _______ _______ _______ _____ _____    ______ ____
ROOT
ATOM      1  C   UNL     1      -0.994   3.486  -0.072  0.00  0.00    +0.143 C 
ATOM      2  N   UNL     1      -2.033   4.265  -0.066  0.00  0.00    -0.152 NA
ENDROOT
BRANCH   2   3
ATOM      3  N   UNL     1      -1.910   5.599  -0.474  0.00  0.00    -0.095 N 
ATOM      4  C   UNL     1      -2.245   6.716   0.232  0.00  0.00    +0.255 A 
ATOM      5  N   UNL     1      -1.958   7.750  -0.529  0.00  0.00    -0.091 NA
ATOM      6  N   UNL     1      -1.471   7.363  -1.652  0.00  0.00    -0.020 NA
ATOM      7  N   UNL     1      -1.409   6.076  -1.698  0.00  0.00    -0.020 NA
ATOM      8  N   UNL     1      -2.785   6.755   1.506  0.00  0.00    -0.325 N 
ATOM      9  H   UNL     1      -3.016   7.722   1.976  0.00  0.00    +0.145 HD
ATOM     10  H   UNL     1      -2.982   5.818   2.048  0.00  0.00    +0.145 HD
ENDBRANCH   2   3
BRANCH   1  14
ATOM     11  C   UNL     1       2.911   5.153  -0.082  0.00  0.00    +0.134 A 
ATOM     12  C   UNL     1       2.738   3.792  -0.297  0.00  0.00    +0.047 A 
ATOM     13  C   UNL     1       1.473   3.245  -0.290  0.00  0.00    +0.013 A 
ATOM     14  C   UNL     1       0.361   4.065  -0.076  0.00  0.00    -0.004 A 
ATOM     15  C   UNL     1       0.539   5.434   0.141  0.00  0.00    +0.028 A 
ATOM     16  C   UNL     1       1.809   5.971   0.137  0.00  0.00    +0.060 A 
ATOM     17 BR   UNL     1       2.051   7.824   0.429  0.00  0.00    -0.046 Br
BRANCH  11  19
ATOM     18  C   UNL     1       5.248   4.788  -0.315  0.00  0.00    +0.277 C 
ATOM     19  O   UNL     1       4.160   5.686  -0.084  0.00  0.00    -0.494 OA
ENDBRANCH  11  19
ENDBRANCH   1  14
TORSDOF 3
