REMARK  Name = ZINC14607965
REMARK  7 active torsions:
REMARK  status: ('A' for Active; 'I' for Inactive)
REMARK    1  A    between atoms: C_1  and  C_2
REMARK    2  A    between atoms: C_2  and  C_3
REMARK    3  A    between atoms: C_3  and  C_4
REMARK    4  A    between atoms: C_5  and  C_20
REMARK    5  A    between atoms: N_25  and  C_28
REMARK    6  A    between atoms: C_31  and  C_34
REMARK    7  A    between atoms: C_34  and  C_36
REMARK                            x       y       z     vdW  Elec       q    Type
REMARK                         _______ _______ _______ _____ _____    ______ ____
ROOT
ATOM      1  C   UNL     1      -1.518  -1.766   0.109  0.00  0.00    +0.042 A 
ATOM      2  C   UNL     1      -1.598  -2.651   1.125  0.00  0.00    +0.052 A 
ATOM      3  C   UNL     1      -1.689  -3.948   0.571  0.00  0.00    +0.278 A 
ATOM      4  N   UNL     1      -1.661  -3.822  -0.772  0.00  0.00    -0.186 N 
ATOM      5  N   UNL     1      -1.560  -2.456  -1.069  0.00  0.00    -0.291 N 
ATOM      6  C   UNL     1      -1.727  -4.854  -1.690  0.00  0.00    +0.232 A 
ATOM      7  N   UNL     1      -1.692  -4.701  -3.046  0.00  0.00    -0.322 N 
ATOM      8  H   UNL     1      -1.618  -3.862  -3.529  0.00  0.00    +0.169 HD
ATOM      9  C   UNL     1      -1.782  -5.964  -3.605  0.00  0.00    +0.068 A 
ATOM     10  C   UNL     1      -1.798  -6.441  -4.907  0.00  0.00    +0.028 A 
ATOM     11  C   UNL     1      -1.902  -7.797  -5.140  0.00  0.00    +0.002 A 
ATOM     12  C   UNL     1      -1.990  -8.688  -4.080  0.00  0.00    +0.002 A 
ATOM     13  C   UNL     1      -1.976  -8.232  -2.782  0.00  0.00    +0.030 A 
ATOM     14  C   UNL     1      -1.871  -6.862  -2.528  0.00  0.00    +0.091 A 
ATOM     15  N   UNL     1      -1.827  -6.124  -1.388  0.00  0.00    -0.211 NA
ATOM     16  O   UNL     1      -1.775  -4.991   1.193  0.00  0.00    -0.265 OA
ATOM     17  H   UNL     1      -1.524  -2.068  -1.957  0.00  0.00    +0.187 HD
ENDROOT
BRANCH   2  18
ATOM     18  C   UNL     1      -1.591  -2.314   2.594  0.00  0.00    +0.122 C 
ATOM     19  C   UNL     1      -0.429  -3.032   3.309  0.00  0.00    +0.114 C 
ATOM     20  C   UNL     1      -1.127  -3.918   4.318  0.00  0.00    +0.227 C 
ATOM     21  O   UNL     1      -0.575  -4.662   5.099  0.00  0.00    -0.275 OA
ATOM     22  N   UNL     1      -2.451  -3.749   4.211  0.00  0.00    -0.210 N 
ATOM     23  C   UNL     1      -2.826  -2.866   3.272  0.00  0.00    +0.234 C 
ATOM     24  O   UNL     1      -3.969  -2.560   3.008  0.00  0.00    -0.274 OA
BRANCH  22  25
ATOM     25  C   UNL     1      -3.368  -4.434   5.013  0.00  0.00    +0.044 A 
ATOM     26  C   UNL     1      -3.348  -4.259   6.393  0.00  0.00    +0.024 A 
ATOM     27  C   UNL     1      -4.249  -4.931   7.186  0.00  0.00    +0.013 A 
ATOM     28  C   UNL     1      -5.186  -5.792   6.603  0.00  0.00    +0.017 A 
ATOM     29  C   UNL     1      -5.202  -5.965   5.213  0.00  0.00    +0.013 A 
ATOM     30  C   UNL     1      -4.301  -5.284   4.428  0.00  0.00    +0.024 A 
BRANCH  28  31
ATOM     31  C   UNL     1      -6.150  -6.513   7.446  0.00  0.00    +0.160 C 
ATOM     32  O   UNL     1      -6.218  -6.270   8.632  0.00  0.00    -0.292 OA
ATOM     33  C   UNL     1      -7.053  -7.554   6.837  0.00  0.00    +0.091 C 
ENDBRANCH  28  31
ENDBRANCH  22  25
ENDBRANCH   2  18
BRANCH   1  34
ATOM     34  C   UNL     1      -1.407  -0.270   0.250  0.00  0.00    +0.055 C 
BRANCH  34  36
ATOM     35  C   UNL     1       0.179   1.659   0.328  0.00  0.00    +0.004 C 
ATOM     36  C   UNL     1       0.066   0.140   0.185  0.00  0.00    +0.003 C 
ENDBRANCH  34  36
ENDBRANCH   1  34
TORSDOF 5
