REMARK  Name = ZINC40780275
REMARK  3 active torsions:
REMARK  status: ('A' for Active; 'I' for Inactive)
REMARK    1  A    between atoms: C_12  and  N_26
REMARK    2  A    between atoms: C_13  and  N_17
REMARK    3  A    between atoms: N_17  and  C_18
REMARK                            x       y       z     vdW  Elec       q    Type
REMARK                         _______ _______ _______ _____ _____    ______ ____
ROOT
ATOM      1  C   UNL     1       2.119  -0.787   3.877  0.00  0.00    +0.000 A 
ATOM      2  C   UNL     1       3.421  -0.387   3.637  0.00  0.00    +0.002 A 
ATOM      3  C   UNL     1       3.896  -0.330   2.342  0.00  0.00    +0.024 A 
ATOM      4  C   UNL     1       3.067  -0.676   1.281  0.00  0.00    +0.038 A 
ATOM      5  C   UNL     1       1.763  -1.080   1.522  0.00  0.00    -0.026 A 
ATOM      6  C   UNL     1       1.294  -1.131   2.824  0.00  0.00    +0.005 A 
ATOM      7  C   UNL     1       0.840  -1.472   0.399  0.00  0.00    +0.038 C 
ATOM      8  C   UNL     1       1.331  -0.887  -0.926  0.00  0.00    +0.024 C 
ATOM      9  C   UNL     1       2.811  -1.248  -1.109  0.00  0.00    +0.113 C 
ATOM     10  N   UNL     1       3.567  -0.608  -0.025  0.00  0.00    -0.283 N 
ATOM     11  C   UNL     1       4.759   0.056  -0.291  0.00  0.00    +0.151 A 
ATOM     12  C   UNL     1       4.752   1.392  -0.698  0.00  0.00    +0.104 A 
ATOM     13  C   UNL     1       5.977   2.011  -0.952  0.00  0.00    +0.126 A 
ATOM     14  N   UNL     1       7.098   1.309  -0.798  0.00  0.00    -0.333 N 
ATOM     15  C   UNL     1       7.061   0.049  -0.413  0.00  0.00    +0.200 A 
ATOM     16  N   UNL     1       5.926  -0.570  -0.158  0.00  0.00    -0.220 NA
ATOM     17  H   UNL     1       7.954   1.730  -0.972  0.00  0.00    +0.168 HD
ENDROOT
BRANCH  12  18
ATOM     18  N   UNL     1       3.545   2.094  -0.847  0.00  0.00    -0.353 N 
ATOM     19  H   UNL     1       2.707   1.675  -0.596  0.00  0.00    +0.143 HD
ATOM     20  H   UNL     1       3.550   2.997  -1.202  0.00  0.00    +0.143 HD
ENDBRANCH  12  18
BRANCH  13  21
ATOM     21  N   UNL     1       6.027   3.339  -1.359  0.00  0.00    -0.297 N 
ATOM     22  H   UNL     1       5.214   3.868  -1.387  0.00  0.00    +0.154 HD
BRANCH  21  23
ATOM     23  C   UNL     1       7.248   3.912  -1.730  0.00  0.00    +0.068 A 
ATOM     24  C   UNL     1       7.802   4.927  -0.961  0.00  0.00    +0.027 A 
ATOM     25  C   UNL     1       9.008   5.491  -1.328  0.00  0.00    +0.017 A 
ATOM     26  C   UNL     1       9.665   5.047  -2.462  0.00  0.00    +0.021 A 
ATOM     27  C   UNL     1       9.117   4.036  -3.231  0.00  0.00    +0.055 A 
ATOM     28  C   UNL     1       7.913   3.463  -2.865  0.00  0.00    +0.145 A 
ATOM     29  F   UNL     1       7.380   2.472  -3.614  0.00  0.00    -0.204 F 
ATOM     30 BR   UNL     1      11.316   5.823  -2.960  0.00  0.00    -0.050 Br
ENDBRANCH  21  23
ENDBRANCH  13  21
TORSDOF 3
