REMARK  Name = ZINC09956513
REMARK  12 active torsions:
REMARK  status: ('A' for Active; 'I' for Inactive)
REMARK    1  A    between atoms: C_1  and  C_2
REMARK    2  A    between atoms: C_2  and  C_3
REMARK    3  A    between atoms: C_3  and  C_4
REMARK    4  A    between atoms: C_4  and  N_5
REMARK    5  A    between atoms: N_5  and  C_6
REMARK    6  A    between atoms: C_7  and  N_18
REMARK    7  A    between atoms: N_8  and  C_15
REMARK    8  A    between atoms: C_15  and  C_16
REMARK    9  A    between atoms: C_16  and  C_17
REMARK   10  A    between atoms: C_19  and  C_21
REMARK   11  A    between atoms: N_26  and  C_28
REMARK   12  A    between atoms: C_31  and  C_34
REMARK                            x       y       z     vdW  Elec       q    Type
REMARK                         _______ _______ _______ _____ _____    ______ ____
ROOT
ATOM      1  N   UNL     1      -3.041  -2.519  -0.003  0.00  0.00    -0.264 N 
ATOM      2  C   UNL     1      -3.316  -3.251   1.097  0.00  0.00    +0.225 C 
ATOM      3  O   UNL     1      -4.035  -4.225   1.013  0.00  0.00    -0.275 OA
ENDROOT
BRANCH   1   4
ATOM      4  C   UNL     1      -3.678  -2.817  -1.226  0.00  0.00    +0.140 A 
ATOM      5  C   UNL     1      -2.956  -3.321  -2.289  0.00  0.00    +0.127 A 
ATOM      6  N   UNL     1      -3.606  -3.601  -3.469  0.00  0.00    -0.280 N 
ATOM      7  C   UNL     1      -4.929  -3.387  -3.585  0.00  0.00    +0.331 A 
ATOM      8  O   UNL     1      -5.484  -3.641  -4.637  0.00  0.00    -0.246 OA
ATOM      9  N   UNL     1      -5.648  -2.897  -2.560  0.00  0.00    -0.273 N 
ATOM     10  H   UNL     1      -6.601  -2.751  -2.669  0.00  0.00    +0.173 HD
ATOM     11  C   UNL     1      -5.062  -2.611  -1.381  0.00  0.00    +0.277 A 
ATOM     12  O   UNL     1      -5.724  -2.171  -0.457  0.00  0.00    -0.266 OA
BRANCH   5  13
ATOM     13  N   UNL     1      -1.605  -3.539  -2.170  0.00  0.00    -0.343 N 
ATOM     14  H   UNL     1      -1.139  -3.270  -1.363  0.00  0.00    +0.144 HD
ATOM     15  H   UNL     1      -1.116  -3.962  -2.893  0.00  0.00    +0.144 HD
ENDBRANCH   5  13
BRANCH   6  16
ATOM     16  C   UNL     1      -2.852  -4.136  -4.605  0.00  0.00    +0.128 C 
BRANCH  16  17
ATOM     17  C   UNL     1      -2.847  -5.665  -4.540  0.00  0.00    +0.018 C 
ATOM     18  C   UNL     1      -2.060  -6.224  -5.726  0.00  0.00    +0.005 C 
ENDBRANCH  16  17
ENDBRANCH   6  16
ENDBRANCH   1   4
BRANCH   2  19
ATOM     19  C   UNL     1      -2.732  -2.858   2.429  0.00  0.00    +0.102 C 
ATOM     20  C   UNL     1      -1.256  -3.304   2.539  0.00  0.00    +0.110 C 
ATOM     21  C   UNL     1      -1.103  -3.728   3.983  0.00  0.00    +0.221 C 
ATOM     22  O   UNL     1      -0.044  -3.880   4.555  0.00  0.00    -0.275 OA
ATOM     23  N   UNL     1      -2.312  -3.913   4.542  0.00  0.00    -0.271 N 
ATOM     24  C   UNL     1      -3.389  -3.655   3.578  0.00  0.00    +0.127 C 
BRANCH  23  25
ATOM     25  C   UNL     1      -2.517  -4.300   5.870  0.00  0.00    +0.036 A 
ATOM     26  C   UNL     1      -1.434  -4.629   6.675  0.00  0.00    +0.024 A 
ATOM     27  C   UNL     1      -1.640  -5.011   7.986  0.00  0.00    +0.005 A 
ATOM     28  C   UNL     1      -2.924  -5.066   8.498  0.00  0.00    -0.050 A 
ATOM     29  C   UNL     1      -4.004  -4.739   7.700  0.00  0.00    +0.005 A 
ATOM     30  C   UNL     1      -3.804  -4.350   6.389  0.00  0.00    +0.024 A 
ATOM     31  C   UNL     1      -3.145  -5.482   9.929  0.00  0.00    +0.044 C 
ENDBRANCH  23  25
ENDBRANCH   2  19
BRANCH   1  32
ATOM     32  C   UNL     1      -2.080  -1.416   0.073  0.00  0.00    +0.114 C 
BRANCH  32  33
ATOM     33  C   UNL     1      -2.831  -0.101   0.296  0.00  0.00    +0.019 C 
BRANCH  33  35
ATOM     34  C   UNL     1      -2.578   2.366   0.598  0.00  0.00    +0.004 C 
ATOM     35  C   UNL     1      -1.828   1.052   0.375  0.00  0.00    -0.002 C 
ENDBRANCH  33  35
ENDBRANCH  32  33
ENDBRANCH   1  32
TORSDOF 9
