REMARK  Name = ZINC51613931
REMARK  7 active torsions:
REMARK  status: ('A' for Active; 'I' for Inactive)
REMARK    1  A    between atoms: C_1  and  C_2
REMARK    2  A    between atoms: C_2  and  C_3
REMARK    3  A    between atoms: C_3  and  O_4
REMARK    4  A    between atoms: O_4  and  C_5
REMARK    5  A    between atoms: C_5  and  C_7
REMARK    6  A    between atoms: C_10  and  N_13
REMARK    7  A    between atoms: C_20  and  C_23
REMARK                            x       y       z     vdW  Elec       q    Type
REMARK                         _______ _______ _______ _____ _____    ______ ____
ROOT
ATOM      1  N   UNL     1       1.612  -8.156  -2.575  0.00  0.00    -0.269 N 
ATOM      2  C   UNL     1       2.069  -8.751  -3.695  0.00  0.00    +0.307 C 
ATOM      3  O   UNL     1       2.516  -8.077  -4.603  0.00  0.00    -0.252 OA
ATOM      4  N   UNL     1       2.030 -10.094  -3.808  0.00  0.00    -0.280 N 
ATOM      5  C   UNL     1       1.332 -10.918  -2.809  0.00  0.00    +0.137 C 
ATOM      6  C   UNL     1       0.387 -11.874  -3.546  0.00  0.00    +0.180 C 
ATOM      7  O   UNL     1       1.119 -12.579  -4.551  0.00  0.00    -0.364 OA
ATOM      8  C   UNL     1       1.673 -11.741  -5.569  0.00  0.00    +0.221 C 
ATOM      9  C   UNL     1       2.679 -10.778  -4.938  0.00  0.00    +0.150 C 
ATOM     10  H   UNL     1       1.381  -8.692  -1.801  0.00  0.00    +0.156 HD
ENDROOT
BRANCH   1  14
ATOM     11  C   UNL     1       1.196  -4.014  -2.441  0.00  0.00    +0.059 A 
ATOM     12  C   UNL     1       0.438  -4.822  -1.588  0.00  0.00    +0.017 A 
ATOM     13  C   UNL     1       0.578  -6.191  -1.635  0.00  0.00    +0.024 A 
ATOM     14  C   UNL     1       1.473  -6.770  -2.530  0.00  0.00    +0.035 A 
ATOM     15  C   UNL     1       2.229  -5.968  -3.380  0.00  0.00    +0.024 A 
ATOM     16  C   UNL     1       2.090  -4.599  -3.342  0.00  0.00    +0.017 A 
BRANCH  11  17
ATOM     17  C   UNL     1       1.048  -2.548  -2.393  0.00  0.00    +0.339 C 
ATOM     18  O   UNL     1       1.704  -1.847  -3.138  0.00  0.00    -0.245 OA
BRANCH  17  19
ATOM     19  O   UNL     1       0.186  -1.985  -1.524  0.00  0.00    -0.461 OA
BRANCH  19  20
ATOM     20  C   UNL     1       0.094  -0.559  -1.532  0.00  0.00    +0.232 C 
BRANCH  20  22
ATOM     21  C   UNL     1      -1.026   1.419  -0.495  0.00  0.00    +0.007 C 
ATOM     22  C   UNL     1      -0.927  -0.108  -0.486  0.00  0.00    +0.038 C 
ENDBRANCH  20  22
ENDBRANCH  19  20
ENDBRANCH  17  19
ENDBRANCH  11  17
ENDBRANCH   1  14
BRANCH   8  23
ATOM     23  C   UNL     1       2.365 -12.592  -6.601  0.00  0.00    +0.241 C 
ATOM     24  O   UNL     1       2.463 -13.789  -6.433  0.00  0.00    -0.273 OA
ATOM     25  N   UNL     1       2.876 -12.024  -7.711  0.00  0.00    -0.327 N 
ATOM     26  H   UNL     1       2.798 -11.066  -7.846  0.00  0.00    +0.145 HD
ATOM     27  H   UNL     1       3.322 -12.572  -8.376  0.00  0.00    +0.145 HD
ENDBRANCH   8  23
TORSDOF 6
