REMARK  Name = ZINC42404956
REMARK  7 active torsions:
REMARK  status: ('A' for Active; 'I' for Inactive)
REMARK    1  A    between atoms: C_1  and  C_2
REMARK    2  A    between atoms: C_2  and  C_3
REMARK    3  A    between atoms: C_2  and  C_4
REMARK    4  A    between atoms: C_2  and  C_5
REMARK    5  A    between atoms: C_9  and  C_24
REMARK    6  A    between atoms: C_11  and  N_14
REMARK    7  A    between atoms: C_19  and  C_21
REMARK                            x       y       z     vdW  Elec       q    Type
REMARK                         _______ _______ _______ _____ _____    ______ ____
ROOT
ATOM      1  C   UNL     1       3.318   1.127  -1.234  0.00  0.00    -0.007 C 
ATOM      2  C   UNL     1       4.437   1.747  -2.074  0.00  0.00    +0.005 C 
ATOM      3  C   UNL     1       5.057   0.672  -2.969  0.00  0.00    +0.017 C 
ATOM      4  C   UNL     1       5.633  -0.447  -2.099  0.00  0.00    +0.078 C 
ATOM      5  C   UNL     1       4.514  -1.066  -1.259  0.00  0.00    -0.050 C 
ATOM      6  C   UNL     1       3.893   0.009  -0.364  0.00  0.00    -0.010 C 
ENDROOT
BRANCH   5   7
ATOM      7  N   UNL     1       3.483  -1.618  -2.148  0.00  0.00    +0.390 N 
ATOM      8  C   UNL     1       4.124  -2.224  -3.321  0.00  0.00    -0.077 C 
ATOM      9  C   UNL     1       3.052  -2.729  -4.289  0.00  0.00    -0.019 C 
ATOM     10  C   UNL     1       2.185  -3.775  -3.582  0.00  0.00    -0.003 C 
ATOM     11  C   UNL     1       1.581  -3.154  -2.319  0.00  0.00    -0.006 C 
ATOM     12  C   UNL     1       2.708  -2.633  -1.424  0.00  0.00    +0.019 C 
ATOM     13  H   UNL     1       2.867  -0.877  -2.448  0.00  0.00    -0.080 HD
BRANCH  12  14
ATOM     14  C   UNL     1       2.118  -2.021  -0.180  0.00  0.00    +0.197 C 
ATOM     15  O   UNL     1       1.383  -1.060  -0.266  0.00  0.00    -0.278 OA
ATOM     16  N   UNL     1       2.407  -2.542   1.029  0.00  0.00    -0.331 N 
ATOM     17  H   UNL     1       2.994  -3.310   1.099  0.00  0.00    +0.145 HD
ATOM     18  H   UNL     1       2.027  -2.148   1.830  0.00  0.00    +0.145 HD
ENDBRANCH  12  14
ENDBRANCH   5   7
BRANCH   1  20
ATOM     19  C   UNL     1       3.760   2.743   0.619  0.00  0.00    +0.011 C 
ATOM     20  C   UNL     1       2.697   2.202  -0.339  0.00  0.00    -0.035 C 
ATOM     21  C   UNL     1       1.547   1.594   0.465  0.00  0.00    +0.011 C 
ATOM     22  C   UNL     1       2.165   3.344  -1.208  0.00  0.00    +0.011 C 
ENDBRANCH   1  20
BRANCH   4  23
ATOM     23  C   UNL     1       6.666   0.107  -1.208  0.00  0.00    +0.064 C 
ATOM     24  N   UNL     1       7.463   0.534  -0.521  0.00  0.00    -0.196 NA
ENDBRANCH   4  23
TORSDOF 4
