REMARK  Name = ZINC63557273
REMARK  10 active torsions:
REMARK  status: ('A' for Active; 'I' for Inactive)
REMARK    1  A    between atoms: C_1  and  C_2
REMARK    2  A    between atoms: C_2  and  O_3
REMARK    3  A    between atoms: O_3  and  C_4
REMARK    4  A    between atoms: C_4  and  C_5
REMARK    5  A    between atoms: C_5  and  C_6
REMARK    6  A    between atoms: C_10  and  N_13
REMARK    7  A    between atoms: C_14  and  C_16
REMARK    8  A    between atoms: N_21  and  C_23
REMARK    9  A    between atoms: C_23  and  C_24
REMARK   10  A    between atoms: C_24  and  C_25
REMARK                            x       y       z     vdW  Elec       q    Type
REMARK                         _______ _______ _______ _____ _____    ______ ____
ROOT
ATOM      1  C   UNL     1      -3.148  -8.285   4.505  0.00  0.00    +0.101 C 
ATOM      2  C   UNL     1      -4.390  -9.200   4.404  0.00  0.00    +0.110 C 
ATOM      3  C   UNL     1      -4.357 -10.012   5.681  0.00  0.00    +0.216 C 
ATOM      4  O   UNL     1      -4.985 -11.032   5.872  0.00  0.00    -0.276 OA
ATOM      5  N   UNL     1      -3.531  -9.438   6.572  0.00  0.00    -0.300 N 
ATOM      6  C   UNL     1      -2.934  -8.210   6.033  0.00  0.00    +0.121 C 
ENDROOT
BRANCH   1   8
ATOM      7  N   UNL     1      -3.714  -6.785   2.621  0.00  0.00    -0.290 N 
ATOM      8  C   UNL     1      -3.436  -6.921   3.933  0.00  0.00    +0.220 C 
ATOM      9  O   UNL     1      -3.417  -5.945   4.653  0.00  0.00    -0.275 OA
ATOM     10  H   UNL     1      -3.729  -7.565   2.045  0.00  0.00    +0.151 HD
BRANCH   7  14
ATOM     11  C   UNL     1      -3.005  -3.866   0.010  0.00  0.00    +0.132 C 
ATOM     12  N   UNL     1      -4.427  -4.309  -0.020  0.00  0.00    -0.241 NA
ATOM     13  N   UNL     1      -4.622  -5.556   0.710  0.00  0.00    -0.227 NA
ATOM     14  C   UNL     1      -3.994  -5.459   2.065  0.00  0.00    +0.216 C 
ATOM     15  S   UNL     1      -2.437  -4.574   1.614  0.00  0.00    -0.102 S 
ATOM     16  H   UNL     1      -4.760  -4.389  -0.969  0.00  0.00    +0.142 HD
ATOM     17  H   UNL     1      -4.249  -6.339   0.194  0.00  0.00    +0.143 HD
BRANCH  11  18
ATOM     18  C   UNL     1      -2.905  -2.339   0.017  0.00  0.00    +0.059 C 
BRANCH  18  19
ATOM     19  C   UNL     1      -1.432  -1.925   0.005  0.00  0.00    +0.162 C 
BRANCH  19  20
ATOM     20  O   UNL     1      -1.339  -0.499   0.012  0.00  0.00    -0.380 OA
BRANCH  20  22
ATOM     21  C   UNL     1      -0.019   1.526   0.010  0.00  0.00    +0.034 C 
ATOM     22  C   UNL     1       0.002  -0.004   0.002  0.00  0.00    +0.156 C 
ENDBRANCH  20  22
ENDBRANCH  19  20
ENDBRANCH  18  19
ENDBRANCH  11  18
ENDBRANCH   7  14
ENDBRANCH   1   8
BRANCH   5  23
ATOM     23  C   UNL     1      -3.261  -9.969   7.910  0.00  0.00    +0.112 C 
BRANCH  23  24
ATOM     24  C   UNL     1      -2.064 -10.921   7.849  0.00  0.00    +0.052 C 
BRANCH  24  25
ATOM     25  C   UNL     1      -1.786 -11.468   9.225  0.00  0.00    -0.040 C 
ATOM     26  C   UNL     1      -2.224 -12.640   9.738  0.00  0.00    +0.002 A 
ATOM     27  C   UNL     1      -3.060 -13.714   9.190  0.00  0.00    +0.048 A 
ATOM     28  C   UNL     1      -3.336 -14.791   9.962  0.00  0.00    +0.124 A 
ATOM     29  C   UNL     1      -2.843 -14.904  11.272  0.00  0.00    +0.040 A 
ATOM     30  C   UNL     1      -2.070 -13.958  11.844  0.00  0.00    +0.029 A 
ATOM     31  C   UNL     1      -1.718 -12.784  11.122  0.00  0.00    +0.043 A 
ATOM     32  N   UNL     1      -0.994 -11.742  11.451  0.00  0.00    -0.380 N 
ATOM     33  C   UNL     1      -0.954 -10.820  10.310  0.00  0.00    +0.144 C 
ATOM     34  F   UNL     1      -4.106 -15.782   9.461  0.00  0.00    -0.205 F 
ATOM     35  H   UNL     1      -0.555 -11.604  12.305  0.00  0.00    +0.160 HD
ENDBRANCH  24  25
ENDBRANCH  23  24
ENDBRANCH   5  23
TORSDOF 9
