REMARK  Name = ZINC05612666
REMARK  7 active torsions:
REMARK  status: ('A' for Active; 'I' for Inactive)
REMARK    1  A    between atoms: C_1  and  C_2
REMARK    2  A    between atoms: C_2  and  C_14
REMARK    3  A    between atoms: N_3  and  N_4
REMARK    4  A    between atoms: C_5  and  C_7
REMARK    5  A    between atoms: N_11  and  C_12
REMARK    6  A    between atoms: C_16  and  O_21
REMARK    7  A    between atoms: C_19  and  O_20
REMARK                            x       y       z     vdW  Elec       q    Type
REMARK                         _______ _______ _______ _____ _____    ______ ____
ROOT
ATOM      1  C   UNL     1      -0.103   1.534   0.019  0.00  0.00    +0.068 C 
ATOM      2  C   UNL     1      -0.049   0.028   0.001  0.00  0.00    +0.067 C 
ATOM      3  N   UNL     1      -0.004  -0.634   1.117  0.00  0.00    -0.184 NA
ENDROOT
BRANCH   2   4
ATOM      4  C   UNL     1      -0.048  -0.694  -1.284  0.00  0.00    +0.042 A 
ATOM      5  C   UNL     1      -0.090   0.015  -2.487  0.00  0.00    +0.058 A 
ATOM      6  C   UNL     1      -0.089  -0.669  -3.689  0.00  0.00    +0.118 A 
ATOM      7  C   UNL     1      -0.045  -2.057  -3.702  0.00  0.00    +0.049 A 
ATOM      8  C   UNL     1      -0.003  -2.765  -2.516  0.00  0.00    +0.049 A 
ATOM      9  C   UNL     1       0.002  -2.094  -1.305  0.00  0.00    +0.126 A 
BRANCH   9  10
ATOM     10  O   UNL     1       0.049  -2.791  -0.140  0.00  0.00    -0.506 OA
ATOM     11  H   UNL     1      -0.820  -3.025   0.214  0.00  0.00    +0.292 HD
ENDBRANCH   9  10
BRANCH   6  12
ATOM     12  O   UNL     1      -0.130   0.019  -4.861  0.00  0.00    -0.507 OA
ATOM     13  H   UNL     1       0.741   0.247  -5.215  0.00  0.00    +0.292 HD
ENDBRANCH   6  12
ENDBRANCH   2   4
BRANCH   3  14
ATOM     14  N   UNL     1      -0.005   0.052   2.339  0.00  0.00    -0.201 N 
ATOM     15  C   UNL     1       0.042  -0.634   3.497  0.00  0.00    +0.282 C 
ATOM     16  O   UNL     1      -0.010  -1.850   3.486  0.00  0.00    -0.267 OA
ATOM     17  H   UNL     1      -0.039   1.022   2.350  0.00  0.00    +0.178 HD
BRANCH  15  18
ATOM     18  C   UNL     1       0.156   0.085   4.774  0.00  0.00    +0.138 A 
ATOM     19  C   UNL     1      -0.871   0.389   5.653  0.00  0.00    +0.063 A 
ATOM     20  C   UNL     1      -0.264   1.072   6.710  0.00  0.00    +0.149 A 
ATOM     21  N   UNL     1       1.017   1.152   6.453  0.00  0.00    -0.178 NA
ATOM     22  N   UNL     1       1.298   0.584   5.336  0.00  0.00    -0.261 N 
ATOM     23  C   UNL     1       2.638   0.487   4.752  0.00  0.00    +0.173 C 
ATOM     24  I   UNL     1      -2.902  -0.077   5.441  0.00  0.00    -0.040 I 
ENDBRANCH  15  18
ENDBRANCH   3  14
TORSDOF 5
