REMARK  Name = ZINC36320364
REMARK  5 active torsions:
REMARK  status: ('A' for Active; 'I' for Inactive)
REMARK    1  A    between atoms: C_1  and  N_2
REMARK    2  A    between atoms: N_2  and  C_3
REMARK    3  A    between atoms: N_2  and  S_9
REMARK    4  A    between atoms: S_9  and  C_12
REMARK    5  A    between atoms: C_13  and  N_20
REMARK                            x       y       z     vdW  Elec       q    Type
REMARK                         _______ _______ _______ _____ _____    ______ ____
ROOT
ATOM      1  S   UNL     1      -0.088  -1.016  -1.733  0.00  0.00    +0.064 S 
ATOM      2  O   UNL     1      -0.528  -2.309  -1.343  0.00  0.00    -0.153 OA
ATOM      3  O   UNL     1      -0.644  -0.324  -2.842  0.00  0.00    -0.153 OA
ENDROOT
BRANCH   1   4
ATOM      4  C   UNL     1       1.643  -1.144  -2.036  0.00  0.00    +0.144 A 
ATOM      5  C   UNL     1       2.296  -0.158  -2.765  0.00  0.00    +0.054 A 
ATOM      6  C   UNL     1       3.661  -0.262  -3.002  0.00  0.00    +0.044 A 
ATOM      7  C   UNL     1       4.366  -1.345  -2.510  0.00  0.00    +0.044 A 
ATOM      8  C   UNL     1       3.713  -2.325  -1.784  0.00  0.00    +0.042 A 
ATOM      9  C   UNL     1       2.354  -2.222  -1.542  0.00  0.00    +0.070 A 
ATOM     10 CL   UNL     1       1.540  -3.450  -0.624  0.00  0.00    -0.081 Cl
ATOM     11 CL   UNL     1       6.072  -1.476  -2.806  0.00  0.00    -0.083 Cl
BRANCH   5  12
ATOM     12  N   UNL     1       1.582   0.935  -3.261  0.00  0.00    -0.356 N 
ATOM     13  H   UNL     1       0.679   1.106  -2.949  0.00  0.00    +0.142 HD
ATOM     14  H   UNL     1       1.988   1.522  -3.917  0.00  0.00    +0.142 HD
ENDBRANCH   5  12
ENDBRANCH   1   4
BRANCH   1  16
ATOM     15  C   UNL     1      -0.428   1.415  -0.596  0.00  0.00    +0.132 C 
ATOM     16  N   UNL     1      -0.283  -0.032  -0.415  0.00  0.00    -0.176 NA
BRANCH  16  17
ATOM     17  C   UNL     1      -0.310  -0.608   0.931  0.00  0.00    +0.084 C 
ATOM     18  C   UNL     1      -1.646  -0.276   1.604  0.00  0.00    +0.049 C 
ATOM     19  C   UNL     1      -1.635  -0.814   3.037  0.00  0.00    +0.161 C 
ATOM     20  O   UNL     1      -0.532  -0.247   3.748  0.00  0.00    -0.380 OA
ATOM     21  C   UNL     1       0.745  -0.563   3.193  0.00  0.00    +0.161 C 
ATOM     22  C   UNL     1       0.830  -0.016   1.766  0.00  0.00    +0.049 C 
ENDBRANCH  16  17
ENDBRANCH   1  16
TORSDOF 4
