REMARK  Name = ZINC66650415
REMARK  8 active torsions:
REMARK  status: ('A' for Active; 'I' for Inactive)
REMARK    1  A    between atoms: C_1  and  C_2
REMARK    2  A    between atoms: C_3  and  C_7
REMARK    3  A    between atoms: C_7  and  N_8
REMARK    4  A    between atoms: N_8  and  C_9
REMARK    5  A    between atoms: C_10  and  C_12
REMARK    6  A    between atoms: C_17  and  O_18
REMARK    7  A    between atoms: C_20  and  C_22
REMARK    8  A    between atoms: C_20  and  C_23
REMARK                            x       y       z     vdW  Elec       q    Type
REMARK                         _______ _______ _______ _____ _____    ______ ____
ROOT
ATOM      1  C   UNL     1       3.303   1.190  -3.468  0.00  0.00    +0.082 A 
ATOM      2  C   UNL     1       3.808   0.130  -4.226  0.00  0.00    +0.017 A 
ATOM      3  C   UNL     1       5.076   0.215  -4.759  0.00  0.00    +0.008 A 
ATOM      4  C   UNL     1       5.847   1.343  -4.549  0.00  0.00    +0.002 A 
ATOM      5  C   UNL     1       5.366   2.410  -3.808  0.00  0.00    +0.167 A 
ATOM      6  C   UNL     1       4.081   2.333  -3.264  0.00  0.00    +0.171 A 
ATOM      7  O   UNL     1       6.278   3.421  -3.746  0.00  0.00    -0.482 OA
ATOM      8  C   UNL     1       7.580   2.902  -4.068  0.00  0.00    +0.109 C 
ATOM      9  C   UNL     1       7.252   1.706  -4.992  0.00  0.00    +0.086 C 
ATOM     10  C   UNL     1       8.413   3.949  -4.810  0.00  0.00    +0.056 C 
ATOM     11  C   UNL     1       8.302   2.429  -2.805  0.00  0.00    +0.056 C 
ENDROOT
BRANCH   1  14
ATOM     12  N   UNL     1       1.536  -0.035  -2.302  0.00  0.00    -0.296 N 
ATOM     13  C   UNL     1       2.471  -1.150  -2.132  0.00  0.00    +0.132 C 
ATOM     14  C   UNL     1       1.948   1.106  -2.890  0.00  0.00    +0.250 C 
ATOM     15  O   UNL     1       1.204   2.065  -2.943  0.00  0.00    -0.270 OA
BRANCH  12  16
ATOM     16  C   UNL     1       0.154  -0.160  -1.833  0.00  0.00    +0.152 C 
BRANCH  16  19
ATOM     17  C   UNL     1      -0.432   2.726  -0.830  0.00  0.00    +0.066 C 
ATOM     18  C   UNL     1      -0.188   1.553   0.085  0.00  0.00    +0.050 A 
ATOM     19  C   UNL     1       0.064   0.312  -0.405  0.00  0.00    +0.029 A 
ATOM     20  S   UNL     1       0.260  -0.607   1.114  0.00  0.00    -0.079 S 
ATOM     21  C   UNL     1       0.004   0.664   2.188  0.00  0.00    +0.156 A 
ATOM     22  N   UNL     1      -0.204   1.687   1.396  0.00  0.00    -0.252 NA
ENDBRANCH  16  19
ENDBRANCH  12  16
ENDBRANCH   1  14
BRANCH   6  23
ATOM     23  O   UNL     1       3.591   3.366  -2.532  0.00  0.00    -0.503 OA
ATOM     24  H   UNL     1       3.785   3.306  -1.587  0.00  0.00    +0.292 HD
ENDBRANCH   6  23
TORSDOF 4
