REMARK  Name = ZINC33997807
REMARK  8 active torsions:
REMARK  status: ('A' for Active; 'I' for Inactive)
REMARK    1  A    between atoms: C_1  and  C_2
REMARK    2  A    between atoms: C_2  and  C_3
REMARK    3  A    between atoms: C_2  and  C_4
REMARK    4  A    between atoms: C_8  and  O_11
REMARK    5  A    between atoms: C_9  and  O_10
REMARK    6  A    between atoms: C_16  and  C_27
REMARK    7  A    between atoms: C_16  and  C_28
REMARK    8  A    between atoms: C_21  and  O_23
REMARK                            x       y       z     vdW  Elec       q    Type
REMARK                         _______ _______ _______ _____ _____    ______ ____
ROOT
ATOM      1  C   UNL     1      -1.411  -0.525   0.013  0.00  0.00    +0.001 A 
ATOM      2  C   UNL     1      -2.259  -0.212   1.056  0.00  0.00    +0.014 A 
ATOM      3  C   UNL     1      -3.561  -0.685   1.068  0.00  0.00    -0.007 A 
ATOM      4  C   UNL     1      -4.033  -1.482   0.035  0.00  0.00    +0.021 A 
ATOM      5  C   UNL     1      -3.179  -1.803  -1.005  0.00  0.00    +0.163 A 
ATOM      6  C   UNL     1      -1.869  -1.321  -1.020  0.00  0.00    +0.162 A 
ATOM      7  C   UNL     1      -5.444  -1.994   0.101  0.00  0.00    +0.103 C 
ATOM      8  C   UNL     1      -6.038  -2.409  -1.217  0.00  0.00    +0.023 C 
ATOM      9  C   UNL     1      -6.095  -1.164  -2.117  0.00  0.00    +0.002 C 
ATOM     10  C   UNL     1      -7.013  -0.111  -1.508  0.00  0.00    +0.007 C 
ATOM     11  C   UNL     1      -6.563   0.293  -0.086  0.00  0.00    -0.027 C 
ATOM     12  C   UNL     1      -6.393  -0.944   0.731  0.00  0.00    +0.060 C 
ATOM     13  C   UNL     1      -5.813  -0.951   2.140  0.00  0.00    +0.214 C 
ATOM     14  C   UNL     1      -4.442  -0.301   2.228  0.00  0.00    +0.186 C 
ATOM     15  O   UNL     1      -5.656  -2.380   2.374  0.00  0.00    -0.457 OA
ATOM     16  C   UNL     1      -5.466  -3.038   1.202  0.00  0.00    +0.319 C 
ATOM     17  O   UNL     1      -5.337  -4.228   1.044  0.00  0.00    -0.250 OA
ATOM     18  C   UNL     1      -7.711   1.134   0.528  0.00  0.00    +0.011 C 
ATOM     19  C   UNL     1      -5.345   1.202  -0.202  0.00  0.00    +0.011 C 
ENDROOT
BRANCH   1  21
ATOM     20  C   UNL     1      -0.019   1.526   0.010  0.00  0.00    +0.012 C 
ATOM     21  C   UNL     1       0.002  -0.004   0.002  0.00  0.00    +0.017 C 
ATOM     22  C   UNL     1       0.742  -0.511   1.242  0.00  0.00    +0.012 C 
ENDBRANCH   1  21
BRANCH   6  23
ATOM     23  O   UNL     1      -1.047  -1.639  -2.057  0.00  0.00    -0.503 OA
ATOM     24  H   UNL     1      -0.540  -2.451  -1.922  0.00  0.00    +0.292 HD
ENDBRANCH   6  23
BRANCH   5  25
ATOM     25  O   UNL     1      -3.558  -2.604  -2.036  0.00  0.00    -0.503 OA
ATOM     26  H   UNL     1      -3.947  -2.127  -2.782  0.00  0.00    +0.292 HD
ENDBRANCH   5  25
BRANCH  14  27
ATOM     27  O   UNL     1      -3.805  -0.730   3.441  0.00  0.00    -0.383 OA
ATOM     28  H   UNL     1      -2.934  -0.336   3.589  0.00  0.00    +0.210 HD
ENDBRANCH  14  27
TORSDOF 4
