REMARK  Name = ZINC45925143
REMARK  10 active torsions:
REMARK  status: ('A' for Active; 'I' for Inactive)
REMARK    1  A    between atoms: C_1  and  C_2
REMARK    2  A    between atoms: C_2  and  C_3
REMARK    3  A    between atoms: C_3  and  C_5
REMARK    4  A    between atoms: C_3  and  N_6
REMARK    5  A    between atoms: C_7  and  C_9
REMARK    6  A    between atoms: C_9  and  S_10
REMARK    7  A    between atoms: S_10  and  C_11
REMARK    8  A    between atoms: C_14  and  S_18
REMARK    9  A    between atoms: C_15  and  N_17
REMARK   10  A    between atoms: S_18  and  C_21
REMARK                            x       y       z     vdW  Elec       q    Type
REMARK                         _______ _______ _______ _____ _____    ______ ____
ROOT
ATOM      1  C   UNL     1       6.605   1.065  -3.767  0.00  0.00    +0.190 A 
ATOM      2  N   UNL     1       7.064   1.254  -2.538  0.00  0.00    -0.228 NA
ATOM      3  C   UNL     1       8.319   1.624  -2.329  0.00  0.00    +0.144 A 
ATOM      4  C   UNL     1       9.156   1.815  -3.412  0.00  0.00    +0.152 A 
ATOM      5  C   UNL     1       8.644   1.609  -4.694  0.00  0.00    +0.146 A 
ATOM      6  N   UNL     1       7.377   1.233  -4.831  0.00  0.00    -0.205 NA
ENDROOT
BRANCH   5   7
ATOM      7  N   UNL     1       9.448   1.789  -5.809  0.00  0.00    -0.342 N 
ATOM      8  H   UNL     1      10.373   2.060  -5.701  0.00  0.00    +0.144 HD
ATOM      9  H   UNL     1       9.085   1.644  -6.697  0.00  0.00    +0.144 HD
ENDBRANCH   5   7
BRANCH   4  10
ATOM     10  S   UNL     1      10.831   2.308  -3.178  0.00  0.00    +0.036 S 
ATOM     11  O   UNL     1      11.059   3.401  -4.057  0.00  0.00    -0.164 OA
ATOM     12  O   UNL     1      11.035   2.404  -1.775  0.00  0.00    -0.164 OA
BRANCH  10  13
ATOM     13  C   UNL     1      11.848   0.985  -3.746  0.00  0.00    +0.132 A 
ATOM     14  C   UNL     1      12.354   0.769  -4.984  0.00  0.00    +0.036 A 
ATOM     15  C   UNL     1      13.136  -0.350  -5.203  0.00  0.00    +0.029 A 
ATOM     16  C   UNL     1      13.373  -1.198  -4.171  0.00  0.00    +0.080 A 
ATOM     17  S   UNL     1      12.483  -0.414  -2.837  0.00  0.00    -0.058 S 
ATOM     18 CL   UNL     1      14.304  -2.663  -4.151  0.00  0.00    -0.076 Cl
ENDBRANCH  10  13
ENDBRANCH   4  10
BRANCH   1  19
ATOM     19  S   UNL     1       4.928   0.572  -3.992  0.00  0.00    -0.077 S 
BRANCH  19  20
ATOM     20  C   UNL     1       4.271   0.470  -2.304  0.00  0.00    +0.173 C 
BRANCH  20  22
ATOM     21  N   UNL     1       2.125  -0.091  -1.209  0.00  0.00    -0.312 N 
ATOM     22  C   UNL     1       2.824   0.051  -2.353  0.00  0.00    +0.224 C 
ATOM     23  O   UNL     1       2.289  -0.157  -3.421  0.00  0.00    -0.275 OA
ATOM     24  H   UNL     1       2.553   0.075  -0.355  0.00  0.00    +0.149 HD
BRANCH  21  25
ATOM     25  C   UNL     1       0.718  -0.497  -1.257  0.00  0.00    +0.070 C 
ATOM     26  C   UNL     1       0.630  -2.023  -1.329  0.00  0.00    +0.028 C 
BRANCH  25  28
ATOM     27  C   UNL     1      -0.019   1.526   0.010  0.00  0.00    +0.005 C 
ATOM     28  C   UNL     1       0.002  -0.004   0.002  0.00  0.00    +0.018 C 
ENDBRANCH  25  28
ENDBRANCH  21  25
ENDBRANCH  20  22
ENDBRANCH  19  20
ENDBRANCH   1  19
TORSDOF 8
