REMARK  Name = ZINC43668788
REMARK  8 active torsions:
REMARK  status: ('A' for Active; 'I' for Inactive)
REMARK    1  A    between atoms: C_1  and  C_2
REMARK    2  A    between atoms: C_2  and  C_4
REMARK    3  A    between atoms: C_2  and  N_14
REMARK    4  A    between atoms: N_17  and  C_18
REMARK    5  A    between atoms: C_20  and  N_26
REMARK    6  A    between atoms: C_23  and  O_24
REMARK    7  A    between atoms: O_24  and  C_25
REMARK    8  A    between atoms: C_27  and  C_29
REMARK                            x       y       z     vdW  Elec       q    Type
REMARK                         _______ _______ _______ _____ _____    ______ ____
ROOT
ATOM      1  N   UNL     1      -1.392  -0.581   0.031  0.00  0.00    -0.293 N 
ATOM      2  C   UNL     1      -2.066  -0.688  -1.131  0.00  0.00    +0.304 C 
ATOM      3  O   UNL     1      -1.520  -0.397  -2.179  0.00  0.00    -0.252 OA
ATOM      4  N   UNL     1      -3.344  -1.116  -1.133  0.00  0.00    -0.266 N 
ATOM      5  H   UNL     1      -1.827  -0.813   0.867  0.00  0.00    +0.151 HD
ATOM      6  H   UNL     1      -3.757  -1.412  -0.307  0.00  0.00    +0.156 HD
ENDROOT
BRANCH   4   7
ATOM      7  C   UNL     1      -4.075  -1.135  -2.328  0.00  0.00    +0.079 A 
ATOM      8  C   UNL     1      -3.441  -1.428  -3.526  0.00  0.00    +0.050 A 
ATOM      9  C   UNL     1      -4.168  -1.446  -4.708  0.00  0.00    +0.035 A 
ATOM     10  C   UNL     1      -5.528  -1.170  -4.691  0.00  0.00    +0.027 A 
ATOM     11  C   UNL     1      -6.161  -0.877  -3.498  0.00  0.00    +0.049 A 
ATOM     12  C   UNL     1      -5.441  -0.864  -2.314  0.00  0.00    +0.141 A 
BRANCH   9  13
ATOM     13  N   UNL     1      -3.528  -1.742  -5.919  0.00  0.00    -0.286 N 
ATOM     14  C   UNL     1      -4.231  -2.270  -6.941  0.00  0.00    +0.214 C 
ATOM     15  O   UNL     1      -5.391  -2.587  -6.779  0.00  0.00    -0.276 OA
ATOM     16  C   UNL     1      -3.576  -2.466  -8.284  0.00  0.00    +0.109 C 
ATOM     17  H   UNL     1      -2.580  -1.568  -6.022  0.00  0.00    +0.155 HD
ENDBRANCH   9  13
BRANCH  12  18
ATOM     18  O   UNL     1      -6.067  -0.581  -1.140  0.00  0.00    -0.493 OA
ATOM     19  C   UNL     1      -7.469  -0.314  -1.200  0.00  0.00    +0.277 C 
ENDBRANCH  12  18
ENDBRANCH   4   7
BRANCH   1  21
ATOM     20  C   UNL     1       0.021   1.414   0.048  0.00  0.00    +0.033 C 
ATOM     21  C   UNL     1      -0.003  -0.115   0.033  0.00  0.00    +0.102 C 
BRANCH  21  22
ATOM     22  C   UNL     1       0.701  -0.641   1.257  0.00  0.00    -0.027 A 
ATOM     23  C   UNL     1       0.043  -0.683   2.472  0.00  0.00    +0.006 A 
ATOM     24  C   UNL     1       0.695  -1.163   3.589  0.00  0.00    +0.004 A 
ATOM     25  C   UNL     1       2.009  -1.606   3.502  0.00  0.00    -0.044 A 
ATOM     26  C   UNL     1       2.663  -1.569   2.292  0.00  0.00    -0.044 A 
ATOM     27  C   UNL     1       2.003  -1.087   1.168  0.00  0.00    +0.009 A 
ATOM     28  C   UNL     1       4.081  -2.048   2.121  0.00  0.00    +0.035 C 
ATOM     29  C   UNL     1       4.785  -2.136   3.474  0.00  0.00    +0.005 C 
ATOM     30  C   UNL     1       3.899  -2.944   4.429  0.00  0.00    +0.005 C 
ATOM     31  C   UNL     1       2.663  -2.110   4.762  0.00  0.00    +0.035 C 
ENDBRANCH  21  22
ENDBRANCH   1  21
TORSDOF 5
