REMARK  Name = ZINC39327207
REMARK  11 active torsions:
REMARK  status: ('A' for Active; 'I' for Inactive)
REMARK    1  A    between atoms: C_1  and  C_2
REMARK    2  A    between atoms: C_2  and  O_3
REMARK    3  A    between atoms: O_3  and  C_4
REMARK    4  A    between atoms: C_4  and  C_6
REMARK    5  A    between atoms: C_7  and  C_26
REMARK    6  A    between atoms: C_9  and  N_25
REMARK    7  A    between atoms: C_10  and  C_23
REMARK    8  A    between atoms: C_11  and  C_13
REMARK    9  A    between atoms: C_16  and  O_19
REMARK   10  A    between atoms: O_19  and  C_20
REMARK   11  A    between atoms: C_20  and  C_22
REMARK                            x       y       z     vdW  Elec       q    Type
REMARK                         _______ _______ _______ _____ _____    ______ ____
ROOT
ATOM      1  C   UNL     1      -2.820  -2.433  -0.068  0.00  0.00    +0.087 C 
ATOM      2  C   UNL     1      -3.036  -3.731  -0.315  0.00  0.00    +0.115 C 
ATOM      3  O   UNL     1      -4.273  -4.252  -0.343  0.00  0.00    -0.445 OA
ATOM      4  C   UNL     1      -5.338  -3.444  -0.494  0.00  0.00    +0.198 C 
ATOM      5  C   UNL     1      -5.256  -2.112  -0.255  0.00  0.00    +0.098 C 
ATOM      6  C   UNL     1      -3.961  -1.490   0.199  0.00  0.00    +0.105 C 
ATOM      7  C   UNL     1      -1.857  -4.633  -0.571  0.00  0.00    +0.087 C 
ENDROOT
BRANCH   6   8
ATOM      8  C   UNL     1      -4.032  -1.196   1.675  0.00  0.00    -0.034 A 
ATOM      9  C   UNL     1      -4.224  -2.227   2.576  0.00  0.00    +0.008 A 
ATOM     10  C   UNL     1      -4.290  -1.960   3.930  0.00  0.00    +0.046 A 
ATOM     11  C   UNL     1      -4.163  -0.656   4.386  0.00  0.00    +0.132 A 
ATOM     12  C   UNL     1      -3.970   0.377   3.480  0.00  0.00    +0.046 A 
ATOM     13  C   UNL     1      -3.900   0.104   2.127  0.00  0.00    +0.008 A 
BRANCH  11  14
ATOM     14  O   UNL     1      -4.228  -0.391   5.717  0.00  0.00    -0.426 OA
BRANCH  14  15
ATOM     15  C   UNL     1      -3.143  -0.650   6.465  0.00  0.00    +0.309 C 
ATOM     16  O   UNL     1      -2.182  -1.187   5.969  0.00  0.00    -0.251 OA
ATOM     17  C   UNL     1      -3.126  -0.271   7.924  0.00  0.00    +0.136 C 
ENDBRANCH  14  15
ENDBRANCH  11  14
ENDBRANCH   6   8
BRANCH   4  18
ATOM     18  N   UNL     1      -6.535  -3.979  -0.901  0.00  0.00    -0.328 N 
ATOM     19  H   UNL     1      -6.606  -4.931  -1.075  0.00  0.00    +0.145 HD
ATOM     20  H   UNL     1      -7.309  -3.406  -1.013  0.00  0.00    +0.145 HD
ENDBRANCH   4  18
BRANCH   1  21
ATOM     21  C   UNL     1      -1.492  -1.939  -0.052  0.00  0.00    +0.339 C 
ATOM     22  O   UNL     1      -1.059  -1.328  -1.010  0.00  0.00    -0.245 OA
BRANCH  21  23
ATOM     23  O   UNL     1      -0.708  -2.147   1.026  0.00  0.00    -0.462 OA
BRANCH  23  25
ATOM     24  C   UNL     1       1.351  -1.954   2.276  0.00  0.00    +0.048 C 
ATOM     25  C   UNL     1       0.620  -1.622   0.974  0.00  0.00    +0.229 C 
ENDBRANCH  23  25
ENDBRANCH  21  23
ENDBRANCH   1  21
BRANCH   5  26
ATOM     26  C   UNL     1      -6.414  -1.289  -0.430  0.00  0.00    +0.101 C 
ATOM     27  N   UNL     1      -7.333  -0.636  -0.569  0.00  0.00    -0.191 NA
ENDBRANCH   5  26
TORSDOF 8
