REMARK  Name = ZINC67337254
REMARK  5 active torsions:
REMARK  status: ('A' for Active; 'I' for Inactive)
REMARK    1  A    between atoms: C_3  and  C_11
REMARK    2  A    between atoms: C_5  and  C_7
REMARK    3  A    between atoms: C_11  and  N_12
REMARK    4  A    between atoms: N_15  and  N_16
REMARK    5  A    between atoms: C_17  and  C_19
REMARK                            x       y       z     vdW  Elec       q    Type
REMARK                         _______ _______ _______ _____ _____    ______ ____
ROOT
ATOM      1  N   UNL     1       4.105   2.425   1.356  0.00  0.00    -0.294 N 
ATOM      2  C   UNL     1       5.246   3.102   1.594  0.00  0.00    +0.316 C 
ATOM      3  O   UNL     1       5.916   3.511   0.665  0.00  0.00    -0.251 OA
ATOM      4  N   UNL     1       5.645   3.326   2.862  0.00  0.00    -0.218 N 
ATOM      5  H   UNL     1       3.571   2.099   2.097  0.00  0.00    +0.151 HD
ATOM      6  H   UNL     1       6.466   3.813   3.033  0.00  0.00    +0.174 HD
ENDROOT
BRANCH   4   7
ATOM      7  N   UNL     1       4.873   2.855   3.932  0.00  0.00    -0.229 N 
ATOM      8  C   UNL     1       5.271   3.079   5.200  0.00  0.00    +0.262 C 
ATOM      9  O   UNL     1       6.301   3.690   5.415  0.00  0.00    -0.269 OA
ATOM     10  H   UNL     1       4.052   2.368   3.761  0.00  0.00    +0.173 HD
BRANCH   8  11
ATOM     11  C   UNL     1       4.459   2.584   6.327  0.00  0.00    +0.056 A 
ATOM     12  C   UNL     1       3.263   1.867   6.082  0.00  0.00    +0.040 A 
ATOM     13  C   UNL     1       2.533   1.421   7.141  0.00  0.00    +0.106 A 
ATOM     14  C   UNL     1       2.981   1.681   8.450  0.00  0.00    +0.267 A 
ATOM     15  O   UNL     1       2.331   1.284   9.403  0.00  0.00    -0.266 OA
ATOM     16  N   UNL     1       4.122   2.365   8.659  0.00  0.00    -0.327 N 
ATOM     17  H   UNL     1       4.417   2.535   9.567  0.00  0.00    +0.168 HD
ATOM     18  C   UNL     1       4.862   2.810   7.627  0.00  0.00    +0.099 A 
ATOM     19 CL   UNL     1       1.061   0.540   6.879  0.00  0.00    -0.078 Cl
ENDBRANCH   8  11
ENDBRANCH   4   7
BRANCH   1  20
ATOM     20  C   UNL     1       3.672   2.182  -0.022  0.00  0.00    +0.141 C 
BRANCH  20  23
ATOM     21  C   UNL     1      -0.017   1.378   0.010  0.00  0.00    +0.001 A 
ATOM     22  C   UNL     1       1.171   2.085   0.002  0.00  0.00    +0.005 A 
ATOM     23  C   UNL     1       2.377   1.411  -0.013  0.00  0.00    -0.030 A 
ATOM     24  C   UNL     1       2.396   0.028  -0.020  0.00  0.00    +0.017 A 
ATOM     25  C   UNL     1       1.209  -0.679  -0.012  0.00  0.00    +0.055 A 
ATOM     26  C   UNL     1       0.002  -0.004   0.002  0.00  0.00    +0.012 A 
BRANCH  25  27
ATOM     27  C   UNL     1       1.229  -2.186  -0.020  0.00  0.00    +0.417 C 
ATOM     28  F   UNL     1       1.249  -2.660   1.296  0.00  0.00    -0.166 F 
ATOM     29  F   UNL     1       0.086  -2.664  -0.671  0.00  0.00    -0.166 F 
ATOM     30  F   UNL     1       2.371  -2.633  -0.694  0.00  0.00    -0.166 F 
ENDBRANCH  25  27
ENDBRANCH  20  23
ENDBRANCH   1  20
TORSDOF 5
