REMARK  Name = ZINC11859209
REMARK  8 active torsions:
REMARK  status: ('A' for Active; 'I' for Inactive)
REMARK    1  A    between atoms: C_1  and  C_2
REMARK    2  A    between atoms: C_2  and  O_3
REMARK    3  A    between atoms: O_3  and  C_4
REMARK    4  A    between atoms: C_4  and  C_6
REMARK    5  A    between atoms: C_8  and  C_21
REMARK    6  A    between atoms: N_13  and  C_20
REMARK    7  A    between atoms: C_14  and  C_15
REMARK    8  A    between atoms: C_14  and  O_19
REMARK                            x       y       z     vdW  Elec       q    Type
REMARK                         _______ _______ _______ _____ _____    ______ ____
ROOT
ATOM      1  C   UNL     1       1.045   2.924   0.191  0.00  0.00    +0.182 C 
ATOM      2  C   UNL     1       0.383   1.997  -0.835  0.00  0.00    +0.125 C 
ATOM      3  N   UNL     1       1.328   1.728  -1.919  0.00  0.00    -0.291 N 
ATOM      4  C   UNL     1       2.653   1.734  -1.708  0.00  0.00    +0.305 C 
ATOM      5  O   UNL     1       3.394   1.494  -2.641  0.00  0.00    -0.253 OA
ATOM      6  N   UNL     1       3.192   1.993  -0.507  0.00  0.00    -0.252 N 
ATOM      7  C   UNL     1       2.354   2.277   0.658  0.00  0.00    +0.248 C 
ATOM      8  C   UNL     1       4.650   1.992  -0.360  0.00  0.00    +0.137 C 
ATOM      9  H   UNL     1       0.990   1.542  -2.809  0.00  0.00    +0.151 HD
ENDROOT
BRANCH   2  10
ATOM     10  C   UNL     1      -0.848   2.663  -1.393  0.00  0.00    -0.008 A 
ATOM     11  C   UNL     1      -2.106   2.324  -0.918  0.00  0.00    +0.008 A 
ATOM     12  C   UNL     1      -3.211   2.962  -1.461  0.00  0.00    +0.020 A 
ATOM     13  C   UNL     1      -3.023   3.908  -2.451  0.00  0.00    +0.111 A 
ATOM     14  N   UNL     1      -1.811   4.205  -2.879  0.00  0.00    -0.263 NA
ATOM     15  C   UNL     1      -0.738   3.623  -2.381  0.00  0.00    +0.116 A 
ENDBRANCH   2  10
BRANCH   7  16
ATOM     16  C   UNL     1       3.090   3.235   1.598  0.00  0.00    +0.437 C 
ATOM     17  F   UNL     1       4.215   2.595   2.128  0.00  0.00    -0.166 F 
ATOM     18  F   UNL     1       3.491   4.370   0.886  0.00  0.00    -0.166 F 
ATOM     19  F   UNL     1       2.236   3.615   2.639  0.00  0.00    -0.166 F 
ENDBRANCH   7  16
BRANCH   1  20
ATOM     20  C   UNL     1       0.127   3.117   1.371  0.00  0.00    +0.317 C 
ATOM     21  O   UNL     1      -0.264   2.160   1.995  0.00  0.00    -0.250 OA
BRANCH  20  22
ATOM     22  O   UNL     1      -0.256   4.353   1.727  0.00  0.00    -0.465 OA
BRANCH  22  24
ATOM     23  C   UNL     1      -1.466   5.938   3.124  0.00  0.00    +0.048 C 
ATOM     24  C   UNL     1      -1.141   4.465   2.873  0.00  0.00    +0.229 C 
ENDBRANCH  22  24
ENDBRANCH  20  22
ENDBRANCH   1  20
BRANCH   7  25
ATOM     25  O   UNL     1       2.066   1.060   1.348  0.00  0.00    -0.364 OA
ATOM     26  H   UNL     1       2.850   0.596   1.672  0.00  0.00    +0.212 HD
ENDBRANCH   7  25
TORSDOF 6
