REMARK  Name = ZINC37104022
REMARK  6 active torsions:
REMARK  status: ('A' for Active; 'I' for Inactive)
REMARK    1  A    between atoms: C_1  and  C_2
REMARK    2  A    between atoms: C_5  and  C_7
REMARK    3  A    between atoms: C_7  and  N_8
REMARK    4  A    between atoms: N_8  and  C_9
REMARK    5  A    between atoms: C_12  and  N_16
REMARK    6  A    between atoms: C_13  and  C_15
REMARK                            x       y       z     vdW  Elec       q    Type
REMARK                         _______ _______ _______ _____ _____    ______ ____
ROOT
ATOM      1  C   UNL     1       3.017  -4.562  -1.716  0.00  0.00    +0.028 A 
ATOM      2  C   UNL     1       3.428  -5.335  -0.637  0.00  0.00    +0.025 A 
ATOM      3  C   UNL     1       4.097  -6.522  -0.854  0.00  0.00    +0.030 A 
ATOM      4  C   UNL     1       4.361  -6.944  -2.150  0.00  0.00    +0.072 A 
ATOM      5  C   UNL     1       3.951  -6.172  -3.229  0.00  0.00    -0.023 A 
ATOM      6  C   UNL     1       3.276  -4.987  -3.013  0.00  0.00    +0.028 A 
ATOM      7  C   UNL     1       4.239  -6.630  -4.635  0.00  0.00    +0.046 C 
ENDROOT
BRANCH   4   8
ATOM      8  N   UNL     1       5.042  -8.151  -2.370  0.00  0.00    -0.200 N 
ATOM      9  C   UNL     1       6.167  -8.581  -1.759  0.00  0.00    +0.250 A 
ATOM     10  N   UNL     1       6.459  -9.753  -2.261  0.00  0.00    -0.116 NA
ATOM     11  N   UNL     1       5.595 -10.093  -3.148  0.00  0.00    -0.023 NA
ATOM     12  N   UNL     1       4.697  -9.175  -3.270  0.00  0.00    -0.039 NA
ENDBRANCH   4   8
BRANCH   1  13
ATOM     13  N   UNL     1       2.339  -3.360  -1.498  0.00  0.00    -0.337 N 
ATOM     14  H   UNL     1       2.049  -2.823  -2.251  0.00  0.00    +0.147 HD
BRANCH  13  15
ATOM     15  C   UNL     1       2.066  -2.912  -0.130  0.00  0.00    +0.176 C 
BRANCH  15  20
ATOM     16  C   UNL     1       1.160   2.049  -0.232  0.00  0.00    +0.086 C 
ATOM     17  C   UNL     1       0.935   0.559  -0.214  0.00  0.00    +0.102 A 
ATOM     18  C   UNL     1      -0.261  -0.056  -0.234  0.00  0.00    +0.045 A 
ATOM     19  C   UNL     1      -0.008  -1.446  -0.205  0.00  0.00    +0.046 A 
ATOM     20  C   UNL     1       1.329  -1.598  -0.170  0.00  0.00    +0.122 A 
ATOM     21  O   UNL     1       1.894  -0.380  -0.181  0.00  0.00    -0.463 OA
ENDBRANCH  15  20
ENDBRANCH  13  15
ENDBRANCH   1  13
TORSDOF 4
