REMARK  Name = ZINC65246362
REMARK  5 active torsions:
REMARK  status: ('A' for Active; 'I' for Inactive)
REMARK    1  A    between atoms: C_3  and  N_8
REMARK    2  A    between atoms: N_8  and  S_9
REMARK    3  A    between atoms: S_9  and  C_12
REMARK    4  A    between atoms: C_15  and  C_17
REMARK    5  A    between atoms: C_20  and  C_22
REMARK                            x       y       z     vdW  Elec       q    Type
REMARK                         _______ _______ _______ _____ _____    ______ ____
ROOT
ATOM      1  C   UNL     1       5.354   0.074   0.457  0.00  0.00    +0.262 A 
ATOM      2  C   UNL     1       6.316  -0.174  -0.455  0.00  0.00    +0.072 A 
ATOM      3  C   UNL     1       6.424  -1.573  -0.572  0.00  0.00    +0.057 A 
ATOM      4  C   UNL     1       5.510  -2.109   0.286  0.00  0.00    +0.193 A 
ATOM      5  O   UNL     1       4.874  -1.096   0.906  0.00  0.00    -0.432 OA
ENDROOT
BRANCH   4   6
ATOM      6  C   UNL     1       5.266  -3.543   0.500  0.00  0.00    +0.284 A 
ATOM      7  N   UNL     1       5.888  -4.539  -0.092  0.00  0.00    -0.104 NA
ATOM      8  N   UNL     1       5.414  -5.653   0.341  0.00  0.00    -0.112 NA
ATOM      9  C   UNL     1       4.479  -5.418   1.219  0.00  0.00    +0.221 A 
ATOM     10  O   UNL     1       4.364  -4.084   1.346  0.00  0.00    -0.418 OA
BRANCH   9  11
ATOM     11  C   UNL     1       3.675  -6.455   1.961  0.00  0.00    +0.077 C 
ATOM     12  C   UNL     1       4.107  -7.916   1.822  0.00  0.00    +0.013 C 
ATOM     13  C   UNL     1       2.834  -7.425   1.130  0.00  0.00    +0.013 C 
ENDBRANCH   9  11
ENDBRANCH   4   6
BRANCH   1  14
ATOM     14  S   UNL     1       4.822   1.671   0.979  0.00  0.00    +0.106 S 
ATOM     15  O   UNL     1       5.898   2.562   0.721  0.00  0.00    -0.147 OA
ATOM     16  O   UNL     1       4.260   1.508   2.274  0.00  0.00    -0.147 OA
BRANCH  14  17
ATOM     17  N   UNL     1       3.582   2.124  -0.021  0.00  0.00    -0.213 N 
ATOM     18  H   UNL     1       3.689   2.885  -0.612  0.00  0.00    +0.174 HD
BRANCH  17  21
ATOM     19  C   UNL     1      -0.017   1.378   0.010  0.00  0.00    +0.003 A 
ATOM     20  C   UNL     1       1.169   2.087   0.002  0.00  0.00    +0.024 A 
ATOM     21  C   UNL     1       2.382   1.410  -0.013  0.00  0.00    +0.050 A 
ATOM     22  C   UNL     1       2.398   0.021  -0.021  0.00  0.00    +0.044 A 
ATOM     23  C   UNL     1       1.208  -0.683  -0.013  0.00  0.00    +0.043 A 
ATOM     24  C   UNL     1       0.002  -0.004   0.002  0.00  0.00    +0.020 A 
ATOM     25 CL   UNL     1       1.227  -2.419  -0.023  0.00  0.00    -0.083 Cl
ENDBRANCH  17  21
ENDBRANCH  14  17
ENDBRANCH   1  14
TORSDOF 5
