REMARK  Name = ZINC32925219
REMARK  4 active torsions:
REMARK  status: ('A' for Active; 'I' for Inactive)
REMARK    1  A    between atoms: C_5  and  C_6
REMARK    2  A    between atoms: C_6  and  C_7
REMARK    3  A    between atoms: C_7  and  N_8
REMARK    4  A    between atoms: C_9  and  C_11
REMARK                            x       y       z     vdW  Elec       q    Type
REMARK                         _______ _______ _______ _____ _____    ______ ____
ROOT
ATOM      1  N   UNL     1      -2.693  -2.212  -1.423  0.00  0.00    -0.315 N 
ATOM      2  C   UNL     1      -3.220  -2.641  -2.587  0.00  0.00    +0.218 C 
ATOM      3  O   UNL     1      -2.764  -2.248  -3.640  0.00  0.00    -0.275 OA
ATOM      4  H   UNL     1      -3.058  -2.526  -0.581  0.00  0.00    +0.149 HD
ENDROOT
BRANCH   2   5
ATOM      5  C   UNL     1      -4.375  -3.610  -2.580  0.00  0.00    +0.092 C 
ATOM      6  C   UNL     1      -4.779  -3.932  -4.020  0.00  0.00    +0.016 C 
ATOM      7  C   UNL     1      -5.931  -4.941  -4.014  0.00  0.00    +0.020 C 
ATOM      8  C   UNL     1      -7.138  -4.327  -3.298  0.00  0.00    +0.109 C 
ATOM      9  N   UNL     1      -6.720  -3.882  -1.962  0.00  0.00    -0.285 N 
ATOM     10  C   UNL     1      -5.564  -2.981  -1.847  0.00  0.00    +0.122 C 
ATOM     11  C   UNL     1      -7.383  -4.291  -0.863  0.00  0.00    +0.300 C 
ATOM     12  O   UNL     1      -6.971  -3.993   0.242  0.00  0.00    -0.253 OA
ATOM     13  N   UNL     1      -8.503  -5.030  -0.988  0.00  0.00    -0.313 N 
ATOM     14  H   UNL     1      -8.792  -5.329  -1.864  0.00  0.00    +0.146 HD
ATOM     15  H   UNL     1      -9.020  -5.264  -0.201  0.00  0.00    +0.146 HD
ENDBRANCH   2   5
BRANCH   1  16
ATOM     16  C   UNL     1      -1.571  -1.270  -1.430  0.00  0.00    +0.109 C 
BRANCH  16  17
ATOM     17  C   UNL     1      -1.168  -0.947   0.010  0.00  0.00    +0.061 C 
BRANCH  17  22
ATOM     18  C   UNL     1      -0.036   1.377   0.007  0.00  0.00    +0.012 A 
ATOM     19  C   UNL     1       1.162   2.068  -0.001  0.00  0.00    +0.023 A 
ATOM     20  C   UNL     1       2.324   1.368  -0.012  0.00  0.00    +0.055 A 
ATOM     21  S   UNL     1       1.739  -0.319  -0.012  0.00  0.00    -0.086 S 
ATOM     22  C   UNL     1      -0.013   0.022   0.003  0.00  0.00    -0.008 A 
ATOM     23 BR   UNL     1       4.101   2.013  -0.025  0.00  0.00    -0.043 Br
ENDBRANCH  17  22
ENDBRANCH  16  17
ENDBRANCH   1  16
TORSDOF 4
