REMARK  Name = ZINC19732749
REMARK  9 active torsions:
REMARK  status: ('A' for Active; 'I' for Inactive)
REMARK    1  A    between atoms: C_1  and  C_2
REMARK    2  A    between atoms: C_4  and  S_8
REMARK    3  A    between atoms: S_8  and  C_9
REMARK    4  A    between atoms: C_9  and  C_10
REMARK    5  A    between atoms: C_10  and  N_11
REMARK    6  A    between atoms: C_12  and  C_14
REMARK    7  A    between atoms: C_14  and  C_15
REMARK    8  A    between atoms: N_22  and  C_23
REMARK    9  A    between atoms: C_23  and  C_24
REMARK                            x       y       z     vdW  Elec       q    Type
REMARK                         _______ _______ _______ _____ _____    ______ ____
ROOT
ATOM      1  C   UNL     1      -0.432   1.424   1.223  0.00  0.00    +0.028 C 
ATOM      2  C   UNL     1       0.629   1.158   2.254  0.00  0.00    +0.200 C 
ATOM      3  O   UNL     1       1.791   1.174   1.909  0.00  0.00    -0.278 OA
ATOM      4  N   UNL     1       0.344   0.903   3.535  0.00  0.00    -0.318 N 
ATOM      5  C   UNL     1      -1.022   0.825   4.045  0.00  0.00    +0.085 C 
ATOM      6  C   UNL     1      -1.986   1.498   3.066  0.00  0.00    -0.059 C 
ATOM      7  N   UNL     1      -1.736   0.964   1.717  0.00  0.00    +0.389 N 
ATOM      8  H   UNL     1       1.194   0.750   4.216  0.00  0.00    +0.149 HD
ATOM      9  H   UNL     1      -1.718  -0.134   1.772  0.00  0.00    -0.081 HD
ENDROOT
BRANCH   1  10
ATOM     10  C   UNL     1      -0.085   0.678  -0.067  0.00  0.00    +0.089 C 
BRANCH  10  12
ATOM     11  N   UNL     1       0.321  -1.660  -0.766  0.00  0.00    -0.315 N 
ATOM     12  C   UNL     1      -0.065  -0.805   0.201  0.00  0.00    +0.212 C 
ATOM     13  O   UNL     1      -0.398  -1.230   1.288  0.00  0.00    -0.276 OA
ATOM     14  H   UNL     1       0.623  -1.275  -1.752  0.00  0.00    +0.149 HD
BRANCH  11  15
ATOM     15  C   UNL     1       0.341  -3.101  -0.506  0.00  0.00    +0.115 C 
BRANCH  15  16
ATOM     16  C   UNL     1       0.814  -3.840  -1.760  0.00  0.00    +0.096 C 
BRANCH  16  17
ATOM     17  S   UNL     1       0.838  -5.621  -1.438  0.00  0.00    -0.085 S 
BRANCH  17  21
ATOM     18  C   UNL     1       2.514  -5.761  -6.418  0.00  0.00    +0.090 C 
ATOM     19  C   UNL     1       2.094  -6.243  -5.054  0.00  0.00    +0.149 A 
ATOM     20  N   UNL     1       1.694  -5.464  -4.048  0.00  0.00    -0.206 NA
ATOM     21  C   UNL     1       1.404  -6.207  -3.000  0.00  0.00    +0.184 A 
ATOM     22  N   UNL     1       1.612  -7.498  -3.338  0.00  0.00    -0.254 N 
ATOM     23  H   UNL     1       1.425  -8.295  -2.604  0.00  0.00    +0.191 HD
ATOM     24  N   UNL     1       2.057  -7.491  -4.670  0.00  0.00    -0.157 NA
ENDBRANCH  17  21
ENDBRANCH  16  17
ENDBRANCH  15  16
ENDBRANCH  11  15
ENDBRANCH  10  12
ENDBRANCH   1  10
BRANCH   7  25
ATOM     25  C   UNL     1      -2.813   1.346   0.794  0.00  0.00    -0.074 C 
BRANCH  25  26
ATOM     26  C   UNL     1      -4.078   0.553   1.131  0.00  0.00    -0.028 C 
ATOM     27  C   UNL     1      -3.831  -0.935   0.872  0.00  0.00    +0.002 C 
ATOM     28  C   UNL     1      -5.096  -1.727   1.208  0.00  0.00    +0.000 C 
ATOM     29  C   UNL     1      -6.251  -1.242   0.330  0.00  0.00    +0.000 C 
ATOM     30  C   UNL     1      -6.498   0.246   0.589  0.00  0.00    +0.000 C 
ATOM     31  C   UNL     1      -5.233   1.039   0.253  0.00  0.00    +0.002 C 
ENDBRANCH  25  26
ENDBRANCH   7  25
TORSDOF 8
