REMARK  Name = ZINC40989394
REMARK  8 active torsions:
REMARK  status: ('A' for Active; 'I' for Inactive)
REMARK    1  A    between atoms: C_1  and  C_2
REMARK    2  A    between atoms: C_4  and  C_27
REMARK    3  A    between atoms: C_6  and  O_8
REMARK    4  A    between atoms: O_8  and  C_9
REMARK    5  A    between atoms: C_9  and  C_10
REMARK    6  A    between atoms: N_12  and  C_13
REMARK    7  A    between atoms: C_16  and  O_23
REMARK    8  A    between atoms: O_23  and  C_24
REMARK                            x       y       z     vdW  Elec       q    Type
REMARK                         _______ _______ _______ _____ _____    ______ ____
ROOT
ATOM      1  C   UNL     1       0.069  -2.932   4.751  0.00  0.00    +0.255 C 
ATOM      2  O   UNL     1       0.080  -4.133   4.584  0.00  0.00    -0.272 OA
ATOM      3  N   UNL     1       0.063  -2.425   6.000  0.00  0.00    -0.282 N 
ATOM      4  H   UNL     1       0.121  -1.466   6.135  0.00  0.00    +0.155 HD
ENDROOT
BRANCH   3   5
ATOM      5  C   UNL     1      -0.025  -3.281   7.102  0.00  0.00    +0.043 A 
ATOM      6  C   UNL     1       0.577  -4.520   7.067  0.00  0.00    +0.027 A 
ATOM      7  C   UNL     1       0.495  -5.381   8.156  0.00  0.00    +0.050 A 
ATOM      8  C   UNL     1      -0.188  -5.019   9.294  0.00  0.00    +0.153 A 
ATOM      9  C   UNL     1      -0.815  -3.759   9.364  0.00  0.00    +0.114 A 
ATOM     10  C   UNL     1      -0.727  -2.880   8.257  0.00  0.00    +0.025 A 
ATOM     11  C   UNL     1      -1.350  -1.622   8.332  0.00  0.00    +0.013 A 
ATOM     12  C   UNL     1      -2.013  -1.298   9.482  0.00  0.00    +0.020 A 
ATOM     13  C   UNL     1      -2.057  -2.206  10.538  0.00  0.00    +0.111 A 
ATOM     14  N   UNL     1      -1.485  -3.384  10.459  0.00  0.00    -0.251 NA
BRANCH   8  15
ATOM     15  O   UNL     1      -0.257  -5.874  10.349  0.00  0.00    -0.432 OA
BRANCH  15  16
ATOM     16  C   UNL     1       0.402  -7.134  10.207  0.00  0.00    +0.541 C 
ATOM     17  F   UNL     1      -0.146  -7.828   9.123  0.00  0.00    -0.166 F 
ATOM     18  F   UNL     1       1.767  -6.923   9.983  0.00  0.00    -0.166 F 
ENDBRANCH  15  16
ENDBRANCH   8  15
ENDBRANCH   3   5
BRANCH   1  19
ATOM     19  C   UNL     1       0.061  -2.006   3.562  0.00  0.00    +0.324 C 
BRANCH  19  20
ATOM     20  O   UNL     1       0.069  -2.776   2.359  0.00  0.00    -0.483 OA
BRANCH  20  26
ATOM     21  C   UNL     1       0.032   1.502   0.009  0.00  0.00    +0.044 C 
ATOM     22  C   UNL     1       0.046  -0.005   0.001  0.00  0.00    -0.047 A 
ATOM     23  C   UNL     1       0.053  -0.690  -1.200  0.00  0.00    +0.007 A 
ATOM     24  C   UNL     1       0.066  -2.072  -1.211  0.00  0.00    -0.047 A 
ATOM     25  C   UNL     1       0.071  -2.773  -0.020  0.00  0.00    +0.049 A 
ATOM     26  C   UNL     1       0.064  -2.089   1.186  0.00  0.00    +0.122 A 
ATOM     27  C   UNL     1       0.057  -0.702   1.194  0.00  0.00    +0.049 A 
ATOM     28  C   UNL     1       0.073  -2.815  -2.522  0.00  0.00    +0.044 C 
ENDBRANCH  20  26
ENDBRANCH  19  20
ENDBRANCH   1  19
TORSDOF 6
