REMARK  Name = ZINC02794135
REMARK  5 active torsions:
REMARK  status: ('A' for Active; 'I' for Inactive)
REMARK    1  A    between atoms: C_1  and  C_2
REMARK    2  A    between atoms: C_8  and  C_10
REMARK    3  A    between atoms: N_13  and  C_15
REMARK    4  A    between atoms: C_15  and  O_16
REMARK    5  A    between atoms: O_16  and  C_17
REMARK                            x       y       z     vdW  Elec       q    Type
REMARK                         _______ _______ _______ _____ _____    ______ ____
ROOT
ATOM      1  C   UNL     1       1.614   5.433   0.015  0.00  0.00    +0.147 A 
ATOM      2  C   UNL     1       0.878   6.642   0.022  0.00  0.00    +0.054 A 
ATOM      3  C   UNL     1       1.804   7.629   0.024  0.00  0.00    +0.113 A 
ATOM      4  N   UNL     1       3.018   7.038   0.009  0.00  0.00    -0.235 N 
ATOM      5  N   UNL     1       2.891   5.760   0.004  0.00  0.00    -0.164 NA
ENDROOT
BRANCH   1  13
ATOM      6  C   UNL     1      -1.194  -0.921   0.008  0.00  0.00    +0.089 C 
ATOM      7  C   UNL     1       0.002  -0.004   0.002  0.00  0.00    +0.136 A 
ATOM      8  C   UNL     1      -0.016   1.348   0.009  0.00  0.00    +0.091 A 
ATOM      9  C   UNL     1       1.357   1.710  -0.002  0.00  0.00    +0.168 A 
ATOM     10  N   UNL     1       2.030   0.588  -0.014  0.00  0.00    -0.063 NA
ATOM     11  O   UNL     1       1.292  -0.370  -0.012  0.00  0.00    -0.358 OA
ATOM     12  N   UNL     1       1.883   3.001  -0.000  0.00  0.00    -0.262 N 
ATOM     13  C   UNL     1       1.057   4.065   0.013  0.00  0.00    +0.269 C 
ATOM     14  O   UNL     1      -0.148   3.899   0.024  0.00  0.00    -0.268 OA
ATOM     15  H   UNL     1       2.844   3.133  -0.009  0.00  0.00    +0.157 HD
ENDBRANCH   1  13
BRANCH   4  16
ATOM     16  C   UNL     1       4.298   7.752  -0.000  0.00  0.00    +0.374 C 
BRANCH  16  17
ATOM     17  O   UNL     1       4.057   9.161   0.009  0.00  0.00    -0.468 OA
BRANCH  17  18
ATOM     18  C   UNL     1       5.147   9.973   0.002  0.00  0.00    +0.141 A 
ATOM     19  C   UNL     1       6.421   9.425  -0.013  0.00  0.00    +0.048 A 
ATOM     20  C   UNL     1       7.528  10.253  -0.021  0.00  0.00    +0.023 A 
ATOM     21  C   UNL     1       7.366  11.627  -0.012  0.00  0.00    +0.043 A 
ATOM     22  C   UNL     1       6.096  12.176   0.004  0.00  0.00    +0.043 A 
ATOM     23  C   UNL     1       4.986  11.352   0.004  0.00  0.00    +0.084 A 
ATOM     24 CL   UNL     1       3.393  12.040   0.016  0.00  0.00    -0.080 Cl
ATOM     25 CL   UNL     1       8.758  12.664  -0.021  0.00  0.00    -0.083 Cl
ENDBRANCH  17  18
ENDBRANCH  16  17
ENDBRANCH   4  16
TORSDOF 4
