REMARK  Name = ZINC54432258
REMARK  2 active torsions:
REMARK  status: ('A' for Active; 'I' for Inactive)
REMARK    1  A    between atoms: C_9  and  C_12
REMARK    2  A    between atoms: C_15  and  C_17
REMARK                            x       y       z     vdW  Elec       q    Type
REMARK                         _______ _______ _______ _____ _____    ______ ____
ROOT
ATOM      1  C   UNL     1       0.098   1.374  -0.079  0.00  0.00    +0.002 A 
ATOM      2  C   UNL     1       1.272   2.071   0.147  0.00  0.00    +0.004 A 
ATOM      3  C   UNL     1       2.450   1.391   0.389  0.00  0.00    +0.047 A 
ATOM      4  C   UNL     1       2.461   0.004   0.407  0.00  0.00    +0.143 A 
ATOM      5  C   UNL     1       1.278  -0.695   0.182  0.00  0.00    +0.079 A 
ATOM      6  C   UNL     1       0.099  -0.008  -0.062  0.00  0.00    +0.027 A 
ATOM      7  N   UNL     1       1.282  -2.099   0.208  0.00  0.00    -0.259 N 
ATOM      8  C   UNL     1       2.588  -2.780   0.161  0.00  0.00    +0.168 C 
ATOM      9  C   UNL     1       3.544  -2.013   1.085  0.00  0.00    +0.276 C 
ATOM     10  O   UNL     1       3.626  -0.656   0.641  0.00  0.00    -0.476 OA
ATOM     11  C   UNL     1       0.133  -2.799   0.271  0.00  0.00    +0.276 C 
ATOM     12  O   UNL     1      -0.924  -2.219   0.424  0.00  0.00    -0.268 OA
ENDROOT
BRANCH  11  13
ATOM     13  C   UNL     1       0.157  -4.275   0.155  0.00  0.00    +0.210 A 
ATOM     14  C   UNL     1      -0.993  -5.170   0.327  0.00  0.00    +0.192 A 
ATOM     15  N   UNL     1      -0.587  -6.398   0.150  0.00  0.00    -0.033 NA
ATOM     16  O   UNL     1       0.800  -6.362  -0.136  0.00  0.00    -0.240 OA
ATOM     17  N   UNL     1       1.206  -5.005  -0.124  0.00  0.00    -0.042 NA
ATOM     18  N   UNL     1      -2.290  -4.779   0.627  0.00  0.00    -0.339 N 
ATOM     19  H   UNL     1      -2.499  -3.838   0.741  0.00  0.00    +0.144 HD
ATOM     20  H   UNL     1      -2.989  -5.445   0.722  0.00  0.00    +0.144 HD
ENDBRANCH  11  13
BRANCH   9  21
ATOM     21  C   UNL     1       4.911  -2.646   1.036  0.00  0.00    +0.253 C 
ATOM     22  O   UNL     1       5.850  -2.027   0.583  0.00  0.00    -0.272 OA
ATOM     23  N   UNL     1       5.089  -3.900   1.496  0.00  0.00    -0.326 N 
ATOM     24  H   UNL     1       4.338  -4.395   1.859  0.00  0.00    +0.145 HD
ATOM     25  H   UNL     1       5.969  -4.308   1.464  0.00  0.00    +0.145 HD
ENDBRANCH   9  21
TORSDOF 2
