REMARK  Name = ZINC31302219
REMARK  5 active torsions:
REMARK  status: ('A' for Active; 'I' for Inactive)
REMARK    1  A    between atoms: C_4  and  C_7
REMARK    2  A    between atoms: C_11  and  S_13
REMARK    3  A    between atoms: S_13  and  C_14
REMARK    4  A    between atoms: C_14  and  C_15
REMARK    5  A    between atoms: C_17  and  C_20
REMARK                            x       y       z     vdW  Elec       q    Type
REMARK                         _______ _______ _______ _____ _____    ______ ____
ROOT
ATOM      1  C   UNL     1       3.698  -0.688  -0.037  0.00  0.00    +0.090 A 
ATOM      2  C   UNL     1       3.862  -2.034  -0.052  0.00  0.00    +0.113 A 
ATOM      3  N   UNL     1       5.215  -2.272  -0.065  0.00  0.00    -0.339 N 
ATOM      4  H   UNL     1       5.646  -3.141  -0.077  0.00  0.00    +0.167 HD
ATOM      5  C   UNL     1       5.840  -1.062  -0.058  0.00  0.00    +0.167 A 
ATOM      6  N   UNL     1       4.929  -0.118  -0.047  0.00  0.00    -0.222 NA
ENDROOT
BRANCH   1  10
ATOM      7  C   UNL     1      -0.017   1.379   0.010  0.00  0.00    +0.000 A 
ATOM      8  C   UNL     1       1.169   2.092   0.002  0.00  0.00    +0.001 A 
ATOM      9  C   UNL     1       2.377   1.426  -0.013  0.00  0.00    +0.010 A 
ATOM     10  C   UNL     1       2.402   0.033  -0.021  0.00  0.00    +0.002 A 
ATOM     11  C   UNL     1       1.205  -0.680  -0.013  0.00  0.00    +0.010 A 
ATOM     12  C   UNL     1       0.002  -0.004   0.002  0.00  0.00    +0.001 A 
ENDBRANCH   1  10
BRANCH   5  13
ATOM     13  S   UNL     1       7.583  -0.806  -0.069  0.00  0.00    -0.080 S 
BRANCH  13  14
ATOM     14  C   UNL     1       7.762   0.999  -0.053  0.00  0.00    +0.157 C 
BRANCH  14  15
ATOM     15  C   UNL     1       9.225   1.359  -0.061  0.00  0.00    +0.182 A 
ATOM     16  N   UNL     1       9.985   1.528   1.022  0.00  0.00    -0.188 NA
ATOM     17  C   UNL     1      11.216   1.837   0.665  0.00  0.00    +0.294 A 
ATOM     18  O   UNL     1      11.260   1.870  -0.680  0.00  0.00    -0.330 OA
ATOM     19  N   UNL     1       9.951   1.549  -1.127  0.00  0.00    -0.060 NA
BRANCH  17  20
ATOM     20  C   UNL     1      12.339   2.099   1.573  0.00  0.00    +0.192 A 
ATOM     21  C   UNL     1      13.611   2.423   1.201  0.00  0.00    +0.055 A 
ATOM     22  C   UNL     1      14.350   2.585   2.385  0.00  0.00    +0.042 A 
ATOM     23  C   UNL     1      13.506   2.355   3.414  0.00  0.00    +0.196 A 
ATOM     24  O   UNL     1      12.293   2.067   2.920  0.00  0.00    -0.458 OA
ENDBRANCH  17  20
ENDBRANCH  14  15
ENDBRANCH  13  14
ENDBRANCH   5  13
TORSDOF 5
