REMARK  Name = ZINC16012950
REMARK  5 active torsions:
REMARK  status: ('A' for Active; 'I' for Inactive)
REMARK    1  A    between atoms: C_5  and  C_7
REMARK    2  A    between atoms: C_7  and  N_8
REMARK    3  A    between atoms: C_13  and  C_31
REMARK    4  A    between atoms: C_31  and  C_32
REMARK    5  A    between atoms: C_32  and  C_33
REMARK                            x       y       z     vdW  Elec       q    Type
REMARK                         _______ _______ _______ _____ _____    ______ ____
ROOT
ATOM      1  N   UNL     1       1.606  -2.677   1.306  0.00  0.00    -0.237 N 
ATOM      2  C   UNL     1       2.880  -2.805   1.694  0.00  0.00    +0.227 C 
ATOM      3  O   UNL     1       3.849  -2.542   1.016  0.00  0.00    -0.275 OA
ATOM      4  C   UNL     1       2.922  -3.330   3.111  0.00  0.00    +0.107 C 
ATOM      5  C   UNL     1       3.505  -4.759   3.110  0.00  0.00    +0.068 C 
ATOM      6  N   UNL     1       2.337  -5.648   2.870  0.00  0.00    -0.295 NA
ATOM      7  C   UNL     1       1.247  -5.025   3.644  0.00  0.00    +0.136 C 
ATOM      8  C   UNL     1       1.421  -3.495   3.478  0.00  0.00    +0.122 C 
ATOM      9  C   UNL     1       0.705  -3.028   2.230  0.00  0.00    +0.229 C 
ATOM     10  O   UNL     1      -0.498  -2.982   2.089  0.00  0.00    -0.275 OA
ATOM     11  C   UNL     1      -0.102  -5.484   3.167  0.00  0.00    +0.005 A 
ATOM     12  C   UNL     1      -0.753  -5.416   1.956  0.00  0.00    +0.008 A 
ATOM     13  C   UNL     1      -2.025  -5.945   1.823  0.00  0.00    +0.002 A 
ATOM     14  C   UNL     1      -2.641  -6.541   2.908  0.00  0.00    +0.022 A 
ATOM     15  C   UNL     1      -1.992  -6.611   4.125  0.00  0.00    +0.062 A 
ATOM     16  C   UNL     1      -0.711  -6.081   4.267  0.00  0.00    +0.057 A 
ATOM     17  N   UNL     1       0.138  -6.030   5.376  0.00  0.00    -0.282 N 
ATOM     18  C   UNL     1       1.307  -5.424   5.093  0.00  0.00    +0.243 C 
ATOM     19  O   UNL     1       2.229  -5.237   5.858  0.00  0.00    -0.273 OA
ATOM     20 CL   UNL     1      -2.774  -7.361   5.481  0.00  0.00    -0.082 Cl
ATOM     21  H   UNL     1       2.108  -5.686   1.888  0.00  0.00    +0.123 HD
ATOM     22  H   UNL     1      -0.089  -6.388   6.248  0.00  0.00    +0.155 HD
ENDROOT
BRANCH   1  23
ATOM     23  C   UNL     1       1.229  -2.186  -0.022  0.00  0.00    +0.153 C 
BRANCH  23  28
ATOM     24  C   UNL     1      -0.656   1.071   0.285  0.00  0.00    +0.000 A 
ATOM     25  C   UNL     1       0.370   1.994   0.196  0.00  0.00    +0.001 A 
ATOM     26  C   UNL     1       1.674   1.565   0.035  0.00  0.00    +0.020 A 
ATOM     27  C   UNL     1       1.953   0.211  -0.035  0.00  0.00    +0.046 A 
ATOM     28  C   UNL     1       0.926  -0.712   0.055  0.00  0.00    -0.011 A 
ATOM     29  C   UNL     1      -0.378  -0.281   0.215  0.00  0.00    +0.006 A 
ATOM     30 CL   UNL     1       3.590  -0.329  -0.237  0.00  0.00    -0.083 Cl
ENDBRANCH  23  28
ENDBRANCH   1  23
BRANCH   5  31
ATOM     31  C   UNL     1       4.534  -4.913   1.988  0.00  0.00    +0.028 C 
BRANCH  31  32
ATOM     32  C   UNL     1       5.188  -6.293   2.082  0.00  0.00    +0.097 C 
BRANCH  32  33
ATOM     33  C   UNL     1       6.201  -6.444   0.976  0.00  0.00    +0.211 C 
ATOM     34  O   UNL     1       6.382  -5.538   0.191  0.00  0.00    -0.276 OA
ATOM     35  N   UNL     1       6.906  -7.587   0.861  0.00  0.00    -0.329 N 
ATOM     36  H   UNL     1       6.762  -8.312   1.489  0.00  0.00    +0.145 HD
ATOM     37  H   UNL     1       7.558  -7.685   0.149  0.00  0.00    +0.145 HD
ENDBRANCH  32  33
ENDBRANCH  31  32
ENDBRANCH   5  31
TORSDOF 5
