REMARK  Name = ZINC34831162
REMARK  10 active torsions:
REMARK  status: ('A' for Active; 'I' for Inactive)
REMARK    1  A    between atoms: C_1  and  C_2
REMARK    2  A    between atoms: C_4  and  C_11
REMARK    3  A    between atoms: C_6  and  C_10
REMARK    4  A    between atoms: C_7  and  O_8
REMARK    5  A    between atoms: O_8  and  C_9
REMARK    6  A    between atoms: C_16  and  C_20
REMARK    7  A    between atoms: N_22  and  C_23
REMARK    8  A    between atoms: C_23  and  C_24
REMARK    9  A    between atoms: C_24  and  C_25
REMARK   10  A    between atoms: C_24  and  C_26
REMARK                            x       y       z     vdW  Elec       q    Type
REMARK                         _______ _______ _______ _____ _____    ______ ____
ROOT
ATOM      1  C   UNL     1       0.029  -2.817  -2.491  0.00  0.00    -0.001 A 
ATOM      2  C   UNL     1      -1.086  -2.729  -3.359  0.00  0.00    +0.013 A 
ATOM      3  C   UNL     1      -1.075  -3.405  -4.535  0.00  0.00    +0.047 A 
ATOM      4  C   UNL     1       0.049  -4.189  -4.877  0.00  0.00    +0.138 A 
ATOM      5  N   UNL     1       0.317  -4.934  -5.937  0.00  0.00    -0.223 NA
ATOM      6  C   UNL     1       1.535  -5.487  -5.789  0.00  0.00    +0.144 A 
ATOM      7  C   UNL     1       2.048  -5.072  -4.593  0.00  0.00    +0.125 A 
ATOM      8  N   UNL     1       1.118  -4.258  -4.019  0.00  0.00    -0.305 N 
ATOM      9  C   UNL     1       1.105  -3.572  -2.839  0.00  0.00    +0.101 A 
ENDROOT
BRANCH   1  13
ATOM     10  C   UNL     1      -0.018   1.503   0.010  0.00  0.00    +0.047 C 
ATOM     11  C   UNL     1       0.002  -0.004   0.002  0.00  0.00    -0.008 A 
ATOM     12  C   UNL     1       0.006  -0.686  -1.197  0.00  0.00    +0.015 A 
ATOM     13  C   UNL     1       0.025  -2.080  -1.203  0.00  0.00    -0.016 A 
ATOM     14  C   UNL     1       0.041  -2.780   0.002  0.00  0.00    +0.015 A 
ATOM     15  C   UNL     1       0.037  -2.092   1.197  0.00  0.00    -0.008 A 
ATOM     16  C   UNL     1       0.023  -0.704   1.201  0.00  0.00    +0.126 A 
ATOM     17  C   UNL     1       0.053  -2.848   2.501  0.00  0.00    +0.047 C 
BRANCH  16  18
ATOM     18  O   UNL     1       0.025  -0.029   2.380  0.00  0.00    -0.495 OA
ATOM     19  C   UNL     1      -1.247   0.276   2.955  0.00  0.00    +0.277 C 
ENDBRANCH  16  18
ENDBRANCH   1  13
BRANCH   6  20
ATOM     20  C   UNL     1       2.200  -6.385  -6.753  0.00  0.00    +0.264 C 
ATOM     21  O   UNL     1       3.307  -6.825  -6.508  0.00  0.00    -0.268 OA
ATOM     22  N   UNL     1       1.581  -6.718  -7.903  0.00  0.00    -0.310 N 
ATOM     23  H   UNL     1       0.698  -6.366  -8.097  0.00  0.00    +0.149 HD
BRANCH  22  24
ATOM     24  C   UNL     1       2.242  -7.610  -8.859  0.00  0.00    +0.107 C 
BRANCH  24  25
ATOM     25  C   UNL     1       1.331  -7.824 -10.069  0.00  0.00    -0.000 C 
ATOM     26  C   UNL     1       2.069  -8.653 -11.122  0.00  0.00    +0.009 C 
ATOM     27  C   UNL     1       0.067  -8.566  -9.631  0.00  0.00    +0.009 C 
ENDBRANCH  24  25
ENDBRANCH  22  24
ENDBRANCH   6  20
TORSDOF 5
