REMARK  Name = ZINC39953899
REMARK  8 active torsions:
REMARK  status: ('A' for Active; 'I' for Inactive)
REMARK    1  A    between atoms: C_1  and  C_2
REMARK    2  A    between atoms: C_17  and  C_32
REMARK    3  A    between atoms: C_19  and  O_30
REMARK    4  A    between atoms: C_22  and  C_29
REMARK    5  A    between atoms: C_23  and  C_24
REMARK    6  A    between atoms: C_23  and  O_28
REMARK    7  A    between atoms: C_24  and  C_26
REMARK    8  A    between atoms: C_26  and  N_27
REMARK                            x       y       z     vdW  Elec       q    Type
REMARK                         _______ _______ _______ _____ _____    ______ ____
ROOT
ATOM      1  C   UNL     1       0.107   1.291  -0.735  0.00  0.00    +0.011 C 
ATOM      2  C   UNL     1       0.142  -0.221  -0.493  0.00  0.00    +0.026 C 
ATOM      3  C   UNL     1       1.095  -0.913  -1.508  0.00  0.00    +0.011 C 
ATOM      4  C   UNL     1       1.786  -1.975  -0.634  0.00  0.00    +0.005 C 
ATOM      5  C   UNL     1       3.010  -2.642  -1.241  0.00  0.00    +0.034 C 
ATOM      6  C   UNL     1       2.456  -3.812  -2.058  0.00  0.00    +0.011 C 
ATOM      7  C   UNL     1       3.521  -4.804  -2.519  0.00  0.00    +0.032 C 
ATOM      8  C   UNL     1       4.256  -5.253  -1.270  0.00  0.00    -0.053 C 
ATOM      9  C   UNL     1       4.294  -6.529  -0.920  0.00  0.00    +0.051 C 
ATOM     10  C   UNL     1       5.024  -6.942   0.291  0.00  0.00    +0.179 C 
ATOM     11  O   UNL     1       4.979  -8.095   0.676  0.00  0.00    -0.288 OA
ATOM     12  C   UNL     1       5.810  -5.932   1.021  0.00  0.00    +0.047 C 
ATOM     13  C   UNL     1       5.744  -4.658   0.654  0.00  0.00    -0.009 C 
ATOM     14  C   UNL     1       4.917  -4.168  -0.481  0.00  0.00    +0.044 C 
ATOM     15  C   UNL     1       3.951  -3.062  -0.118  0.00  0.00    +0.153 C 
ATOM     16  C   UNL     1       3.166  -3.369   1.155  0.00  0.00    +0.154 C 
ATOM     17  C   UNL     1       2.598  -2.070   1.745  0.00  0.00    +0.044 C 
ATOM     18  C   UNL     1       2.087  -1.177   0.642  0.00  0.00    +0.009 C 
ATOM     19  C   UNL     1       0.712  -0.530   0.916  0.00  0.00    +0.130 C 
ATOM     20  C   UNL     1       3.063  -0.021   0.390  0.00  0.00    +0.015 C 
ATOM     21  F   UNL     1       4.798  -1.965   0.180  0.00  0.00    -0.238 F 
ATOM     22  C   UNL     1       5.936  -3.519  -1.434  0.00  0.00    +0.023 C 
ENDROOT
BRANCH  19  23
ATOM     23  C   UNL     1       0.888   0.735   1.705  0.00  0.00    +0.148 C 
ATOM     24  O   UNL     1       1.545   1.642   1.253  0.00  0.00    -0.296 OA
BRANCH  23  25
ATOM     25  C   UNL     1       0.245   0.873   3.061  0.00  0.00    -0.008 C 
BRANCH  25  26
ATOM     26  N   UNL     1       0.565   2.192   3.622  0.00  0.00    +0.383 N 
ATOM     27  H   UNL     1       0.135   2.284   4.530  0.00  0.00    -0.089 HD
ATOM     28  H   UNL     1       1.566   2.285   3.713  0.00  0.00    -0.089 HD
ATOM     29  H   UNL     1       0.215   2.913   3.009  0.00  0.00    -0.089 HD
ENDBRANCH  25  26
ENDBRANCH  23  25
ENDBRANCH  19  23
BRANCH  19  30
ATOM     30  O   UNL     1      -0.129  -1.456   1.599  0.00  0.00    -0.380 OA
ATOM     31  H   UNL     1      -1.029  -1.135   1.749  0.00  0.00    +0.211 HD
ENDBRANCH  19  30
BRANCH  16  32
ATOM     32  O   UNL     1       2.122  -4.302   0.890  0.00  0.00    -0.389 OA
ATOM     33  H   UNL     1       1.593  -4.531   1.666  0.00  0.00    +0.210 HD
ENDBRANCH  16  32
TORSDOF 5
