REMARK  Name = ZINC36742936
REMARK  5 active torsions:
REMARK  status: ('A' for Active; 'I' for Inactive)
REMARK    1  A    between atoms: C_1  and  C_2
REMARK    2  A    between atoms: C_2  and  S_3
REMARK    3  A    between atoms: S_3  and  N_6
REMARK    4  A    between atoms: N_6  and  C_7
REMARK    5  A    between atoms: C_12  and  N_13
REMARK                            x       y       z     vdW  Elec       q    Type
REMARK                         _______ _______ _______ _____ _____    ______ ____
ROOT
ATOM      1  C   UNL     1      -0.865  -2.927   1.047  0.00  0.00    +0.072 A 
ATOM      2  C   UNL     1      -1.036  -2.503   2.356  0.00  0.00    +0.076 A 
ATOM      3  C   UNL     1      -0.364  -3.141   3.386  0.00  0.00    +0.168 A 
ATOM      4  C   UNL     1       0.484  -4.210   3.107  0.00  0.00    +0.168 A 
ATOM      5  C   UNL     1       0.656  -4.635   1.800  0.00  0.00    +0.074 A 
ATOM      6  C   UNL     1      -0.021  -4.001   0.768  0.00  0.00    +0.051 A 
ATOM      7  O   UNL     1       1.020  -4.659   4.281  0.00  0.00    -0.453 OA
ATOM      8  C   UNL     1       0.810  -3.598   5.231  0.00  0.00    +0.466 C 
ATOM      9  O   UNL     1      -0.360  -2.921   4.735  0.00  0.00    -0.453 OA
ENDROOT
BRANCH   6  10
ATOM     10  N   UNL     1       0.149  -4.435  -0.554  0.00  0.00    -0.356 N 
ATOM     11  H   UNL     1      -0.321  -3.989  -1.276  0.00  0.00    +0.142 HD
ATOM     12  H   UNL     1       0.737  -5.183  -0.748  0.00  0.00    +0.142 HD
ENDBRANCH   6  10
BRANCH   1  13
ATOM     13  N   UNL     1      -1.545  -2.281   0.005  0.00  0.00    -0.219 N 
ATOM     14  H   UNL     1      -1.864  -2.791  -0.756  0.00  0.00    +0.173 HD
BRANCH  13  15
ATOM     15  S   UNL     1      -1.804  -0.646   0.073  0.00  0.00    +0.043 S 
ATOM     16  O   UNL     1      -2.486  -0.438   1.302  0.00  0.00    -0.155 OA
ATOM     17  O   UNL     1      -2.425  -0.325  -1.164  0.00  0.00    -0.155 OA
BRANCH  15  19
ATOM     18  C   UNL     1      -0.262   1.609   0.215  0.00  0.00    +0.030 C 
ATOM     19  C   UNL     1      -0.145   0.085   0.148  0.00  0.00    +0.185 C 
ENDBRANCH  15  19
ENDBRANCH  13  15
ENDBRANCH   1  13
TORSDOF 4
