REMARK  Name = ZINC20757172
REMARK  6 active torsions:
REMARK  status: ('A' for Active; 'I' for Inactive)
REMARK    1  A    between atoms: C_1  and  C_2
REMARK    2  A    between atoms: C_2  and  C_3
REMARK    3  A    between atoms: C_3  and  C_4
REMARK    4  A    between atoms: C_4  and  N_5
REMARK    5  A    between atoms: C_10  and  C_28
REMARK    6  A    between atoms: C_28  and  C_29
REMARK                            x       y       z     vdW  Elec       q    Type
REMARK                         _______ _______ _______ _____ _____    ______ ____
ROOT
ATOM      1  N   UNL     1       1.471  -2.526   2.420  0.00  0.00    -0.242 N 
ATOM      2  C   UNL     1       2.791  -2.744   2.436  0.00  0.00    +0.227 C 
ATOM      3  O   UNL     1       3.541  -2.574   1.498  0.00  0.00    -0.275 OA
ATOM      4  C   UNL     1       3.203  -3.235   3.805  0.00  0.00    +0.107 C 
ATOM      5  C   UNL     1       4.057  -2.150   4.496  0.00  0.00    +0.072 C 
ATOM      6  N   UNL     1       3.508  -2.054   5.875  0.00  0.00    -0.295 NA
ATOM      7  C   UNL     1       2.052  -2.199   5.695  0.00  0.00    +0.136 C 
ATOM      8  C   UNL     1       1.863  -3.270   4.591  0.00  0.00    +0.122 C 
ATOM      9  C   UNL     1       0.852  -2.782   3.578  0.00  0.00    +0.228 C 
ATOM     10  O   UNL     1      -0.335  -2.647   3.782  0.00  0.00    -0.275 OA
ATOM     11  C   UNL     1       1.378  -2.609   6.974  0.00  0.00    +0.005 A 
ATOM     12  C   UNL     1       1.514  -3.694   7.811  0.00  0.00    +0.008 A 
ATOM     13  C   UNL     1       0.731  -3.795   8.947  0.00  0.00    +0.002 A 
ATOM     14  C   UNL     1      -0.189  -2.804   9.240  0.00  0.00    +0.022 A 
ATOM     15  C   UNL     1      -0.329  -1.715   8.403  0.00  0.00    +0.062 A 
ATOM     16  C   UNL     1       0.457  -1.606   7.257  0.00  0.00    +0.057 A 
ATOM     17  N   UNL     1       0.500  -0.618   6.270  0.00  0.00    -0.282 N 
ATOM     18  C   UNL     1       1.412  -0.891   5.317  0.00  0.00    +0.243 C 
ATOM     19  O   UNL     1       1.667  -0.214   4.344  0.00  0.00    -0.273 OA
ATOM     20 CL   UNL     1      -1.487  -0.478   8.780  0.00  0.00    -0.082 Cl
ATOM     21  H   UNL     1       3.875  -2.787   6.462  0.00  0.00    +0.124 HD
ATOM     22  H   UNL     1      -0.061   0.173   6.271  0.00  0.00    +0.155 HD
ENDROOT
BRANCH   1  23
ATOM     23  C   UNL     1       0.763  -2.041   1.233  0.00  0.00    +0.116 C 
BRANCH  23  24
ATOM     24  C   UNL     1       0.742  -0.511   1.242  0.00  0.00    +0.019 C 
BRANCH  24  26
ATOM     25  C   UNL     1      -0.019   1.526   0.010  0.00  0.00    +0.004 C 
ATOM     26  C   UNL     1       0.002  -0.004   0.002  0.00  0.00    -0.002 C 
ENDBRANCH  24  26
ENDBRANCH  23  24
ENDBRANCH   1  23
BRANCH   5  27
ATOM     27  C   UNL     1       5.527  -2.574   4.534  0.00  0.00    +0.056 C 
BRANCH  27  28
ATOM     28  C   UNL     1       6.358  -1.451   5.099  0.00  0.00    -0.021 A 
ATOM     29  C   UNL     1       7.011  -0.510   4.399  0.00  0.00    +0.087 A 
ATOM     30  N   UNL     1       7.658   0.342   5.253  0.00  0.00    -0.360 N 
ATOM     31  H   UNL     1       8.196   1.101   4.980  0.00  0.00    +0.165 HD
ATOM     32  C   UNL     1       7.432  -0.040   6.556  0.00  0.00    +0.047 A 
ATOM     33  C   UNL     1       6.603  -1.176   6.517  0.00  0.00    +0.003 A 
ATOM     34  C   UNL     1       6.199  -1.785   7.707  0.00  0.00    +0.010 A 
ATOM     35  C   UNL     1       6.610  -1.272   8.905  0.00  0.00    +0.001 A 
ATOM     36  C   UNL     1       7.425  -0.149   8.949  0.00  0.00    +0.002 A 
ATOM     37  C   UNL     1       7.842   0.462   7.786  0.00  0.00    +0.026 A 
ENDBRANCH  27  28
ENDBRANCH   5  27
TORSDOF 5
