REMARK  Name = ZINC67194087
REMARK  4 active torsions:
REMARK  status: ('A' for Active; 'I' for Inactive)
REMARK    1  A    between atoms: C_3  and  C_9
REMARK    2  A    between atoms: C_12  and  C_14
REMARK    3  A    between atoms: N_15  and  N_16
REMARK    4  A    between atoms: C_17  and  C_19
REMARK                            x       y       z     vdW  Elec       q    Type
REMARK                         _______ _______ _______ _____ _____    ______ ____
ROOT
ATOM      1  C   UNL     1       3.197   3.164   0.647  0.00  0.00    +0.137 A 
ATOM      2  C   UNL     1       4.246   2.879   1.471  0.00  0.00    +0.050 A 
ATOM      3  C   UNL     1       5.385   3.467   0.905  0.00  0.00    +0.051 A 
ATOM      4  C   UNL     1       4.976   4.093  -0.252  0.00  0.00    +0.148 A 
ATOM      5  O   UNL     1       3.650   3.892  -0.391  0.00  0.00    -0.454 OA
ENDROOT
BRANCH   1   8
ATOM      6  C   UNL     1      -0.542   3.271   0.968  0.00  0.00    +0.002 A 
ATOM      7  C   UNL     1       0.762   3.673   0.771  0.00  0.00    +0.013 A 
ATOM      8  C   UNL     1       1.798   2.740   0.857  0.00  0.00    +0.037 A 
ATOM      9  C   UNL     1       1.505   1.403   1.141  0.00  0.00    +0.070 A 
ATOM     10  C   UNL     1       0.194   1.014   1.335  0.00  0.00    +0.060 A 
ATOM     11  C   UNL     1      -0.827   1.946   1.248  0.00  0.00    +0.021 A 
ATOM     12 CL   UNL     1      -0.175  -0.645   1.687  0.00  0.00    -0.082 Cl
ATOM     13 CL   UNL     1       2.785   0.235   1.248  0.00  0.00    -0.081 Cl
ENDBRANCH   1   8
BRANCH   4  14
ATOM     14  C   UNL     1       5.833   4.841  -1.173  0.00  0.00    +0.176 C 
ATOM     15  N   UNL     1       5.349   5.285  -2.298  0.00  0.00    -0.184 NA
BRANCH  15  16
ATOM     16  N   UNL     1       4.055   4.923  -2.695  0.00  0.00    -0.202 N 
ATOM     17  C   UNL     1       3.529   5.436  -3.825  0.00  0.00    +0.283 C 
ATOM     18  O   UNL     1       4.177   6.212  -4.500  0.00  0.00    -0.267 OA
ATOM     19  H   UNL     1       3.538   4.304  -2.156  0.00  0.00    +0.178 HD
BRANCH  17  20
ATOM     20  C   UNL     1       2.162   5.053  -4.245  0.00  0.00    +0.145 A 
ATOM     21  C   UNL     1       1.617   5.577  -5.417  0.00  0.00    +0.143 A 
ATOM     22  N   UNL     1       0.397   5.233  -5.787  0.00  0.00    -0.259 NA
ATOM     23  C   UNL     1      -0.307   4.393  -5.048  0.00  0.00    +0.130 A 
ATOM     24  C   UNL     1       0.231   3.870  -3.882  0.00  0.00    +0.131 A 
ATOM     25  N   UNL     1       1.450   4.204  -3.508  0.00  0.00    -0.247 NA
ENDBRANCH  17  20
ENDBRANCH  15  16
ENDBRANCH   4  14
TORSDOF 4
