REMARK  Name = ZINC28286071
REMARK  8 active torsions:
REMARK  status: ('A' for Active; 'I' for Inactive)
REMARK    1  A    between atoms: C_1  and  C_2
REMARK    2  A    between atoms: C_2  and  C_3
REMARK    3  A    between atoms: C_3  and  C_5
REMARK    4  A    between atoms: C_3  and  C_32
REMARK    5  A    between atoms: C_5  and  N_6
REMARK    6  A    between atoms: C_25  and  C_27
REMARK    7  A    between atoms: C_25  and  C_28
REMARK    8  A    between atoms: C_32  and  O_33
REMARK                            x       y       z     vdW  Elec       q    Type
REMARK                         _______ _______ _______ _____ _____    ______ ____
ROOT
ATOM      1  N   UNL     1      -0.922   3.148   1.330  0.00  0.00    -0.328 N 
ATOM      2  C   UNL     1      -1.683   3.367   2.467  0.00  0.00    +0.136 A 
ATOM      3  C   UNL     1      -2.979   2.878   2.561  0.00  0.00    +0.080 A 
ATOM      4  C   UNL     1      -3.748   3.095   3.711  0.00  0.00    +0.093 A 
ATOM      5  C   UNL     1      -5.107   2.522   3.695  0.00  0.00    +0.037 A 
ATOM      6  C   UNL     1      -6.086   2.598   4.715  0.00  0.00    -0.024 A 
ATOM      7  C   UNL     1      -7.296   2.008   4.528  0.00  0.00    +0.022 A 
ATOM      8  C   UNL     1      -7.563   1.329   3.334  0.00  0.00    +0.128 A 
ATOM      9  N   UNL     1      -6.646   1.259   2.382  0.00  0.00    -0.224 NA
ATOM     10  C   UNL     1      -5.465   1.822   2.530  0.00  0.00    +0.113 A 
ATOM     11  S   UNL     1      -4.028   1.931   1.493  0.00  0.00    -0.064 S 
ATOM     12  N   UNL     1      -8.799   0.724   3.146  0.00  0.00    -0.310 N 
ATOM     13  C   UNL     1      -8.652  -0.728   2.968  0.00  0.00    +0.134 C 
ATOM     14  C   UNL     1     -10.039  -1.361   2.824  0.00  0.00    +0.178 C 
ATOM     15  O   UNL     1     -10.727  -0.748   1.730  0.00  0.00    -0.377 OA
ATOM     16  C   UNL     1     -10.887   0.666   1.872  0.00  0.00    +0.178 C 
ATOM     17  C   UNL     1      -9.509   1.320   2.006  0.00  0.00    +0.134 C 
ATOM     18  C   UNL     1      -8.373   2.068   5.582  0.00  0.00    +0.199 C 
ATOM     19  O   UNL     1      -7.814   2.458   6.836  0.00  0.00    -0.369 OA
ATOM     20  C   UNL     1      -7.026   3.651   6.757  0.00  0.00    +0.068 C 
ATOM     21  C   UNL     1      -5.744   3.332   5.984  0.00  0.00    +0.070 C 
ATOM     22  C   UNL     1      -6.672   4.130   8.166  0.00  0.00    +0.041 C 
ATOM     23  C   UNL     1      -7.812   4.740   6.024  0.00  0.00    +0.041 C 
ATOM     24  N   UNL     1      -3.155   3.806   4.697  0.00  0.00    -0.234 NA
ATOM     25  C   UNL     1      -1.932   4.256   4.572  0.00  0.00    +0.224 A 
ATOM     26  N   UNL     1      -1.192   4.057   3.496  0.00  0.00    -0.220 NA
ATOM     27  H   UNL     1      -1.341   2.577   0.488  0.00  0.00    +0.147 HD
ENDROOT
BRANCH   1  28
ATOM     28  C   UNL     1       0.442   3.678   1.248  0.00  0.00    +0.108 C 
BRANCH  28  29
ATOM     29  C   UNL     1       1.057   3.299  -0.101  0.00  0.00    +0.031 C 
BRANCH  29  31
ATOM     30  C   UNL     1       2.992   3.680  -1.634  0.00  0.00    +0.004 C 
ATOM     31  C   UNL     1       2.432   3.956  -0.237  0.00  0.00    +0.004 C 
ENDBRANCH  29  31
BRANCH  29  32
ATOM     32  C   UNL     1       1.208   1.779  -0.183  0.00  0.00    +0.160 C 
BRANCH  32  33
ATOM     33  O   UNL     1      -0.085   1.170  -0.172  0.00  0.00    -0.395 OA
ATOM     34  H   UNL     1      -0.179   0.075  -0.225  0.00  0.00    +0.209 HD
ENDBRANCH  32  33
ENDBRANCH  29  32
ENDBRANCH  28  29
ENDBRANCH   1  28
TORSDOF 5
