REMARK  Name = ZINC64439111
REMARK  9 active torsions:
REMARK  status: ('A' for Active; 'I' for Inactive)
REMARK    1  A    between atoms: C_1  and  C_2
REMARK    2  A    between atoms: C_4  and  C_35
REMARK    3  A    between atoms: C_5  and  N_9
REMARK    4  A    between atoms: C_6  and  C_8
REMARK    5  A    between atoms: C_10  and  C_12
REMARK    6  A    between atoms: C_12  and  N_13
REMARK    7  A    between atoms: C_20  and  C_34
REMARK    8  A    between atoms: C_21  and  C_23
REMARK    9  A    between atoms: C_25  and  C_28
REMARK                            x       y       z     vdW  Elec       q    Type
REMARK                         _______ _______ _______ _____ _____    ______ ____
ROOT
ATOM      1  N   UNL     1      -0.439  -6.994   2.064  0.00  0.00    -0.290 N 
ATOM      2  C   UNL     1       0.758  -7.452   2.509  0.00  0.00    +0.203 A 
ATOM      3  N   UNL     1       0.893  -7.999   3.686  0.00  0.00    -0.230 NA
ATOM      4  C   UNL     1      -0.137  -8.136   4.512  0.00  0.00    +0.116 A 
ATOM      5  C   UNL     1      -1.434  -7.698   4.165  0.00  0.00    +0.076 A 
ATOM      6  C   UNL     1      -1.548  -7.078   2.825  0.00  0.00    +0.263 A 
ATOM      7  O   UNL     1      -2.617  -6.659   2.419  0.00  0.00    -0.267 OA
ATOM      8  C   UNL     1      -2.425  -7.905   5.130  0.00  0.00    -0.017 A 
ATOM      9  C   UNL     1      -2.104  -8.497   6.315  0.00  0.00    +0.082 A 
ATOM     10  S   UNL     1      -0.355  -8.805   6.141  0.00  0.00    -0.063 S 
ATOM     11  C   UNL     1      -3.844  -7.473   4.861  0.00  0.00    +0.046 C 
ENDROOT
BRANCH   9  12
ATOM     12  C   UNL     1      -2.980  -8.804   7.452  0.00  0.00    +0.266 A 
ATOM     13  N   UNL     1      -2.611  -9.375   8.580  0.00  0.00    -0.187 NA
ATOM     14  C   UNL     1      -3.669  -9.502   9.395  0.00  0.00    +0.202 A 
ATOM     15  N   UNL     1      -4.728  -9.012   8.796  0.00  0.00    -0.056 NA
ATOM     16  O   UNL     1      -4.300  -8.545   7.526  0.00  0.00    -0.332 OA
BRANCH  14  17
ATOM     17  C   UNL     1      -3.644 -10.101  10.753  0.00  0.00    +0.022 A 
ATOM     18  C   UNL     1      -2.450 -10.584  11.283  0.00  0.00    +0.012 A 
ATOM     19  C   UNL     1      -2.433 -11.139  12.546  0.00  0.00    +0.001 A 
ATOM     20  C   UNL     1      -3.599 -11.216  13.287  0.00  0.00    +0.000 A 
ATOM     21  C   UNL     1      -4.787 -10.738  12.765  0.00  0.00    +0.001 A 
ATOM     22  C   UNL     1      -4.815 -10.175  11.505  0.00  0.00    +0.012 A 
ENDBRANCH  14  17
ENDBRANCH   9  12
BRANCH   1  23
ATOM     23  C   UNL     1      -0.526  -6.390   0.733  0.00  0.00    +0.222 C 
BRANCH  23  25
ATOM     24  N   UNL     1      -0.299  -4.141  -0.272  0.00  0.00    -0.284 N 
ATOM     25  C   UNL     1      -0.270  -4.908   0.836  0.00  0.00    +0.237 C 
ATOM     26  O   UNL     1      -0.036  -4.407   1.915  0.00  0.00    -0.274 OA
ATOM     27  H   UNL     1      -0.420  -4.551  -1.143  0.00  0.00    +0.155 HD
BRANCH  24  32
ATOM     28  C   UNL     1       0.286   1.486   0.158  0.00  0.00    +0.044 C 
ATOM     29  C   UNL     1       0.130  -0.009   0.043  0.00  0.00    -0.050 A 
ATOM     30  C   UNL     1       1.121  -0.844   0.526  0.00  0.00    +0.008 A 
ATOM     31  C   UNL     1       0.981  -2.215   0.423  0.00  0.00    -0.029 A 
ATOM     32  C   UNL     1      -0.155  -2.753  -0.166  0.00  0.00    +0.039 A 
ATOM     33  C   UNL     1      -1.148  -1.911  -0.649  0.00  0.00    -0.029 A 
ATOM     34  C   UNL     1      -1.005  -0.542  -0.539  0.00  0.00    +0.008 A 
ATOM     35  C   UNL     1      -2.383  -2.491  -1.289  0.00  0.00    +0.045 C 
ATOM     36  C   UNL     1       2.062  -3.124   0.949  0.00  0.00    +0.045 C 
ENDBRANCH  24  32
ENDBRANCH  23  25
ENDBRANCH   1  23
TORSDOF 5
