REMARK  Name = ZINC39467733
REMARK  7 active torsions:
REMARK  status: ('A' for Active; 'I' for Inactive)
REMARK    1  A    between atoms: C_1  and  O_2
REMARK    2  A    between atoms: O_2  and  P_3
REMARK    3  A    between atoms: C_11  and  S_28
REMARK    4  A    between atoms: C_12  and  C_21
REMARK    5  A    between atoms: C_26  and  O_27
REMARK    6  A    between atoms: S_28  and  O_31
REMARK    7  A    between atoms: O_31  and  C_32
REMARK                            x       y       z     vdW  Elec       q    Type
REMARK                         _______ _______ _______ _____ _____    ______ ____
ROOT
ATOM      1  P   UNL     1       1.058  -1.253   1.421  0.00  0.00    +0.421 P 
ATOM      2  O   UNL     1       0.715  -0.844   2.801  0.00  0.00    -0.239 OA
ATOM      3  N   UNL     1       2.688  -1.163   1.181  0.00  0.00    -0.156 NA
ATOM      4  N   UNL     1       3.227  -1.900   0.146  0.00  0.00    -0.228 NA
ATOM      5  C   UNL     1       4.687  -1.710   0.188  0.00  0.00    +0.111 C 
ATOM      6  C   UNL     1       5.369  -2.455  -0.951  0.00  0.00    +0.036 C 
ATOM      7  C   UNL     1       4.903  -1.933  -2.283  0.00  0.00    +0.009 C 
ATOM      8  C   UNL     1       5.023  -2.695  -3.365  0.00  0.00    +0.132 C 
ATOM      9  C   UNL     1       5.624  -4.041  -3.243  0.00  0.00    +0.010 C 
ATOM     10  C   UNL     1       5.641  -4.654  -2.048  0.00  0.00    -0.012 C 
ATOM     11  C   UNL     1       5.036  -3.947  -0.860  0.00  0.00    +0.022 C 
ATOM     12  C   UNL     1       3.516  -4.111  -0.893  0.00  0.00    +0.031 C 
ATOM     13  C   UNL     1       2.863  -3.316   0.244  0.00  0.00    +0.100 C 
ATOM     14  C   UNL     1       1.347  -3.517   0.122  0.00  0.00    +0.191 C 
ATOM     15  O   UNL     1       0.678  -2.818   1.186  0.00  0.00    -0.294 OA
ATOM     16  H   UNL     1       3.249  -0.611   1.749  0.00  0.00    +0.153 HD
ENDROOT
BRANCH   9  17
ATOM     17  C   UNL     1       6.204  -4.710  -4.433  0.00  0.00    +0.025 A 
ATOM     18  C   UNL     1       5.369  -5.257  -5.405  0.00  0.00    +0.012 A 
ATOM     19  C   UNL     1       5.913  -5.878  -6.510  0.00  0.00    +0.001 A 
ATOM     20  C   UNL     1       7.286  -5.960  -6.657  0.00  0.00    +0.004 A 
ATOM     21  C   UNL     1       8.124  -5.422  -5.699  0.00  0.00    +0.046 A 
ATOM     22  C   UNL     1       7.591  -4.790  -4.587  0.00  0.00    +0.125 A 
BRANCH  22  23
ATOM     23  O   UNL     1       8.414  -4.255  -3.648  0.00  0.00    -0.506 OA
ATOM     24  H   UNL     1       8.656  -4.870  -2.941  0.00  0.00    +0.292 HD
ENDBRANCH  22  23
ENDBRANCH   9  17
BRANCH   8  25
ATOM     25  S   UNL     1       4.471  -2.107  -4.931  0.00  0.00    +0.151 S 
ATOM     26  O   UNL     1       4.933  -3.038  -5.901  0.00  0.00    -0.131 OA
ATOM     27  O   UNL     1       3.096  -1.782  -4.782  0.00  0.00    -0.131 OA
BRANCH  25  28
ATOM     28  O   UNL     1       5.200  -0.799  -5.203  0.00  0.00    -0.342 OA
BRANCH  28  29
ATOM     29  C   UNL     1       6.500  -0.956  -5.566  0.00  0.00    +0.157 A 
ATOM     30  C   UNL     1       7.483  -1.080  -4.595  0.00  0.00    +0.048 A 
ATOM     31  C   UNL     1       8.804  -1.240  -4.967  0.00  0.00    +0.004 A 
ATOM     32  C   UNL     1       9.147  -1.275  -6.306  0.00  0.00    +0.000 A 
ATOM     33  C   UNL     1       8.169  -1.151  -7.276  0.00  0.00    +0.004 A 
ATOM     34  C   UNL     1       6.846  -0.997  -6.909  0.00  0.00    +0.048 A 
ENDBRANCH  28  29
ENDBRANCH  25  28
ENDBRANCH   8  25
BRANCH   1  36
ATOM     35  C   UNL     1       0.255   1.100   0.444  0.00  0.00    +0.206 C 
ATOM     36  O   UNL     1       0.285  -0.326   0.356  0.00  0.00    -0.299 OA
ENDBRANCH   1  36
TORSDOF 6
