REMARK  Name = ZINC35932688
REMARK  7 active torsions:
REMARK  status: ('A' for Active; 'I' for Inactive)
REMARK    1  A    between atoms: C_4  and  C_7
REMARK    2  A    between atoms: C_8  and  N_21
REMARK    3  A    between atoms: C_9  and  N_20
REMARK    4  A    between atoms: N_10  and  C_12
REMARK    5  A    between atoms: N_24  and  C_25
REMARK    6  A    between atoms: C_25  and  C_26
REMARK    7  A    between atoms: C_26  and  C_27
REMARK                            x       y       z     vdW  Elec       q    Type
REMARK                         _______ _______ _______ _____ _____    ______ ____
ROOT
ATOM      1  C   UNL     1       3.681  -1.257  -0.528  0.00  0.00    +0.116 A 
ATOM      2  C   UNL     1       4.011  -1.739   0.756  0.00  0.00    +0.103 A 
ATOM      3  C   UNL     1       5.340  -1.511   0.956  0.00  0.00    +0.142 A 
ATOM      4  N   UNL     1       5.828  -0.907  -0.164  0.00  0.00    -0.214 N 
ATOM      5  N   UNL     1       4.774  -0.765  -1.076  0.00  0.00    -0.163 NA
ENDROOT
BRANCH   4   6
ATOM      6  C   UNL     1       7.154  -0.503  -0.370  0.00  0.00    +0.105 A 
ATOM      7  C   UNL     1       8.198  -1.376  -0.093  0.00  0.00    +0.069 A 
ATOM      8  C   UNL     1       9.506  -0.975  -0.297  0.00  0.00    +0.126 A 
ATOM      9  C   UNL     1       9.775   0.296  -0.777  0.00  0.00    +0.041 A 
ATOM     10  C   UNL     1       8.738   1.167  -1.054  0.00  0.00    +0.043 A 
ATOM     11  C   UNL     1       7.427   0.770  -0.857  0.00  0.00    +0.149 A 
ATOM     12  F   UNL     1       6.414   1.620  -1.133  0.00  0.00    -0.203 F 
ATOM     13  F   UNL     1      10.522  -1.823  -0.027  0.00  0.00    -0.205 F 
ENDBRANCH   4   6
BRANCH   1  17
ATOM     14  C   UNL     1      -0.168  -1.387  -2.329  0.00  0.00    +0.000 A 
ATOM     15  C   UNL     1       0.687  -0.336  -2.607  0.00  0.00    +0.001 A 
ATOM     16  C   UNL     1       1.938  -0.289  -2.025  0.00  0.00    +0.010 A 
ATOM     17  C   UNL     1       2.338  -1.302  -1.156  0.00  0.00    +0.004 A 
ATOM     18  C   UNL     1       1.472  -2.358  -0.879  0.00  0.00    +0.010 A 
ATOM     19  C   UNL     1       0.224  -2.396  -1.467  0.00  0.00    +0.001 A 
ENDBRANCH   1  17
BRANCH   2  20
ATOM     20  N   UNL     1       3.124  -2.346   1.669  0.00  0.00    -0.265 N 
ATOM     21  C   UNL     1       1.926  -1.783   1.922  0.00  0.00    +0.304 C 
ATOM     22  O   UNL     1       1.560  -0.818   1.279  0.00  0.00    -0.253 OA
ATOM     23  N   UNL     1       1.133  -2.289   2.888  0.00  0.00    -0.299 N 
ATOM     24  H   UNL     1       3.376  -3.170   2.116  0.00  0.00    +0.157 HD
ATOM     25  H   UNL     1       1.425  -3.059   3.401  0.00  0.00    +0.150 HD
BRANCH  23  26
ATOM     26  C   UNL     1      -0.169  -1.676   3.163  0.00  0.00    +0.112 C 
BRANCH  26  27
ATOM     27  C   UNL     1      -0.861  -2.437   4.295  0.00  0.00    +0.074 C 
BRANCH  27  28
ATOM     28  C   UNL     1      -2.201  -1.806   4.578  0.00  0.00    +0.043 A 
ATOM     29  C   UNL     1      -3.342  -2.586   4.548  0.00  0.00    +0.023 A 
ATOM     30  C   UNL     1      -4.569  -1.996   4.809  0.00  0.00    +0.003 A 
ATOM     31  C   UNL     1      -4.603  -0.639   5.092  0.00  0.00    +0.020 A 
ATOM     32  C   UNL     1      -3.420   0.076   5.104  0.00  0.00    +0.111 A 
ATOM     33  N   UNL     1      -2.270  -0.519   4.856  0.00  0.00    -0.260 NA
ENDBRANCH  27  28
ENDBRANCH  26  27
ENDBRANCH  23  26
ENDBRANCH   2  20
BRANCH   3  34
ATOM     34  N   UNL     1       6.068  -1.837   2.101  0.00  0.00    -0.342 N 
ATOM     35  H   UNL     1       5.649  -2.341   2.816  0.00  0.00    +0.144 HD
ATOM     36  H   UNL     1       6.994  -1.561   2.181  0.00  0.00    +0.144 HD
ENDBRANCH   3  34
TORSDOF 7
