REMARK  Name = ZINC66135684
REMARK  5 active torsions:
REMARK  status: ('A' for Active; 'I' for Inactive)
REMARK    1  A    between atoms: C_1  and  C_2
REMARK    2  A    between atoms: C_3  and  C_22
REMARK    3  A    between atoms: C_4  and  C_9
REMARK    4  A    between atoms: C_9  and  O_10
REMARK    5  A    between atoms: O_10  and  C_11
REMARK                            x       y       z     vdW  Elec       q    Type
REMARK                         _______ _______ _______ _____ _____    ______ ____
ROOT
ATOM      1  C   UNL     1      -0.018   1.503   0.010  0.00  0.00    +0.066 C 
ATOM      2  C   UNL     1       0.002  -0.004   0.002  0.00  0.00    +0.056 A 
ATOM      3  C   UNL     1       0.006  -0.709  -1.209  0.00  0.00    +0.082 A 
ATOM      4  C   UNL     1       0.026  -2.108  -1.163  0.00  0.00    +0.096 A 
ATOM      5  N   UNL     1       0.040  -2.709   0.012  0.00  0.00    -0.215 NA
ATOM      6  C   UNL     1       0.035  -2.006   1.137  0.00  0.00    +0.213 A 
ATOM      7  N   UNL     1       0.022  -0.680   1.135  0.00  0.00    -0.219 NA
ATOM      8  N   UNL     1       0.051  -2.674   2.344  0.00  0.00    -0.327 N 
ATOM      9  H   UNL     1       0.064  -3.644   2.362  0.00  0.00    +0.145 HD
ATOM     10  H   UNL     1       0.048  -2.174   3.175  0.00  0.00    +0.145 HD
ENDROOT
BRANCH   3  11
ATOM     11  C   UNL     1      -0.011   0.006  -2.500  0.00  0.00    +0.245 C 
ATOM     12  O   UNL     1       1.036   0.315  -3.038  0.00  0.00    -0.270 OA
ATOM     13  N   UNL     1      -1.185   0.315  -3.084  0.00  0.00    -0.325 N 
ATOM     14  H   UNL     1      -2.020   0.068  -2.656  0.00  0.00    +0.145 HD
ATOM     15  H   UNL     1      -1.196   0.785  -3.933  0.00  0.00    +0.145 HD
ENDBRANCH   3  11
BRANCH   4  16
ATOM     16  C   UNL     1       0.030  -2.916  -2.435  0.00  0.00    +0.285 C 
BRANCH  16  17
ATOM     17  O   UNL     1       1.379  -3.153  -2.844  0.00  0.00    -0.485 OA
BRANCH  17  18
ATOM     18  C   UNL     1       1.561  -3.872  -3.982  0.00  0.00    +0.136 A 
ATOM     19  C   UNL     1       0.449  -4.335  -4.692  0.00  0.00    +0.047 A 
ATOM     20  C   UNL     1       0.599  -5.058  -5.834  0.00  0.00    +0.012 A 
ATOM     21  C   UNL     1       1.889  -5.346  -6.313  0.00  0.00    -0.017 A 
ATOM     22  C   UNL     1       2.080  -6.089  -7.490  0.00  0.00    +0.008 A 
ATOM     23  C   UNL     1       3.343  -6.350  -7.925  0.00  0.00    +0.001 A 
ATOM     24  C   UNL     1       4.454  -5.890  -7.220  0.00  0.00    +0.001 A 
ATOM     25  C   UNL     1       4.308  -5.167  -6.076  0.00  0.00    +0.010 A 
ATOM     26  C   UNL     1       3.019  -4.878  -5.596  0.00  0.00    -0.000 A 
ATOM     27  C   UNL     1       2.829  -4.130  -4.422  0.00  0.00    +0.067 A 
ATOM     28 BR   UNL     1       4.321  -3.488  -3.452  0.00  0.00    -0.046 Br
ENDBRANCH  17  18
ENDBRANCH  16  17
ENDBRANCH   4  16
TORSDOF 4
