REMARK  Name = ZINC16843941
REMARK  8 active torsions:
REMARK  status: ('A' for Active; 'I' for Inactive)
REMARK    1  A    between atoms: C_1  and  C_2
REMARK    2  A    between atoms: C_2  and  C_3
REMARK    3  A    between atoms: C_3  and  C_4
REMARK    4  A    between atoms: C_5  and  C_12
REMARK    5  A    between atoms: C_7  and  C_11
REMARK    6  A    between atoms: C_9  and  O_10
REMARK    7  A    between atoms: C_13  and  C_14
REMARK    8  A    between atoms: C_19  and  O_20
REMARK                            x       y       z     vdW  Elec       q    Type
REMARK                         _______ _______ _______ _____ _____    ______ ____
ROOT
ATOM      1  C   UNL     1      -0.755   3.526   1.278  0.00  0.00    +0.039 A 
ATOM      2  C   UNL     1      -1.810   4.233   0.691  0.00  0.00    +0.074 A 
ATOM      3  N   UNL     1      -1.787   5.569   0.722  0.00  0.00    -0.232 NA
ATOM      4  C   UNL     1      -0.791   6.213   1.293  0.00  0.00    +0.130 A 
ATOM      5  N   UNL     1       0.218   5.579   1.856  0.00  0.00    -0.198 NA
ATOM      6  C   UNL     1       0.271   4.250   1.873  0.00  0.00    +0.219 A 
ATOM      7  C   UNL     1      -0.806   7.720   1.305  0.00  0.00    +0.088 C 
ENDROOT
BRANCH   6   8
ATOM      8  O   UNL     1       1.312   3.611   2.459  0.00  0.00    -0.492 OA
ATOM      9  H   UNL     1       2.053   3.436   1.862  0.00  0.00    +0.294 HD
ENDBRANCH   6   8
BRANCH   2  10
ATOM     10  C   UNL     1      -2.926   3.518   0.051  0.00  0.00    +0.029 C 
ATOM     11  C   UNL     1      -3.934   4.210  -0.509  0.00  0.00    +0.013 C 
BRANCH  11  12
ATOM     12  C   UNL     1      -5.050   3.494  -1.150  0.00  0.00    +0.016 A 
ATOM     13  C   UNL     1      -5.066   2.097  -1.179  0.00  0.00    +0.011 A 
ATOM     14  C   UNL     1      -6.114   1.434  -1.780  0.00  0.00    +0.001 A 
ATOM     15  C   UNL     1      -7.152   2.146  -2.357  0.00  0.00    +0.004 A 
ATOM     16  C   UNL     1      -7.149   3.528  -2.336  0.00  0.00    +0.046 A 
ATOM     17  C   UNL     1      -6.106   4.211  -1.730  0.00  0.00    +0.124 A 
BRANCH  17  18
ATOM     18  O   UNL     1      -6.105   5.569  -1.704  0.00  0.00    -0.506 OA
ATOM     19  H   UNL     1      -5.672   5.977  -2.466  0.00  0.00    +0.292 HD
ENDBRANCH  17  18
ENDBRANCH  11  12
ENDBRANCH   2  10
BRANCH   1  20
ATOM     20  C   UNL     1      -0.735   2.019   1.269  0.00  0.00    +0.042 C 
BRANCH  20  22
ATOM     21  C   UNL     1       0.002  -0.004   0.002  0.00  0.00    +0.004 C 
ATOM     22  C   UNL     1      -0.019   1.526   0.010  0.00  0.00    +0.001 C 
ENDBRANCH  20  22
ENDBRANCH   1  20
TORSDOF 6
