REMARK  Name = ZINC38976512
REMARK  5 active torsions:
REMARK  status: ('A' for Active; 'I' for Inactive)
REMARK    1  A    between atoms: C_1  and  C_2
REMARK    2  A    between atoms: C_4  and  C_8
REMARK    3  A    between atoms: C_12  and  S_22
REMARK    4  A    between atoms: N_14  and  N_15
REMARK    5  A    between atoms: C_16  and  C_17
REMARK                            x       y       z     vdW  Elec       q    Type
REMARK                         _______ _______ _______ _____ _____    ______ ____
ROOT
ATOM      1  C   UNL     1      -0.964  -2.951   1.248  0.00  0.00    +0.206 C 
ATOM      2  N   UNL     1      -0.424  -2.286   2.455  0.00  0.00    -0.231 NA
ATOM      3  N   UNL     1      -0.073  -3.394   3.357  0.00  0.00    -0.225 NA
ATOM      4  C   UNL     1       0.456  -4.426   2.427  0.00  0.00    +0.231 C 
ATOM      5  N   UNL     1      -0.404  -4.313   1.230  0.00  0.00    -0.207 N 
ATOM      6  H   UNL     1       0.389  -1.732   2.230  0.00  0.00    +0.143 HD
ATOM      7  H   UNL     1      -0.887  -3.733   3.848  0.00  0.00    +0.143 HD
ENDROOT
BRANCH   1  11
ATOM      8  C   UNL     1      -0.018   1.503   0.010  0.00  0.00    +0.067 C 
ATOM      9  C   UNL     1       0.002  -0.004   0.002  0.00  0.00    +0.058 C 
ATOM     10  C   UNL     1      -1.086  -0.777   0.003  0.00  0.00    +0.029 C 
ATOM     11  C   UNL     1      -0.531  -2.190  -0.007  0.00  0.00    +0.190 C 
ATOM     12  N   UNL     1       0.926  -1.973  -0.013  0.00  0.00    -0.177 NA
ATOM     13  N   UNL     1       1.125  -0.756  -0.013  0.00  0.00    -0.159 NA
ENDBRANCH   1  11
BRANCH   5  14
ATOM     14  N   UNL     1      -0.640  -5.305   0.269  0.00  0.00    -0.185 NA
ATOM     15  C   UNL     1      -0.073  -6.470   0.384  0.00  0.00    +0.176 C 
BRANCH  15  16
ATOM     16  C   UNL     1      -0.321  -7.508  -0.622  0.00  0.00    +0.147 A 
ATOM     17  C   UNL     1       0.203  -8.768  -0.619  0.00  0.00    +0.051 A 
ATOM     18  C   UNL     1      -0.299  -9.417  -1.763  0.00  0.00    +0.042 A 
ATOM     19  C   UNL     1      -1.094  -8.537  -2.402  0.00  0.00    +0.196 A 
ATOM     20  O   UNL     1      -1.109  -7.386  -1.708  0.00  0.00    -0.462 OA
ENDBRANCH  15  16
ENDBRANCH   5  14
BRANCH   4  21
ATOM     21  S   UNL     1       2.185  -4.075   2.006  0.00  0.00    -0.138 S 
ATOM     22  H   UNL     1       2.826  -4.133   3.188  0.00  0.00    +0.105 HD
ENDBRANCH   4  21
TORSDOF 4
