REMARK  Name = ZINC05716048
REMARK  8 active torsions:
REMARK  status: ('A' for Active; 'I' for Inactive)
REMARK    1  A    between atoms: C_1  and  C_2
REMARK    2  A    between atoms: C_2  and  C_3
REMARK    3  A    between atoms: C_2  and  C_4
REMARK    4  A    between atoms: C_4  and  C_5
REMARK    5  A    between atoms: C_5  and  C_7
REMARK    6  A    between atoms: C_5  and  N_49
REMARK    7  A    between atoms: N_9  and  C_10
REMARK    8  A    between atoms: C_10  and  C_20
REMARK                            x       y       z     vdW  Elec       q    Type
REMARK                         _______ _______ _______ _____ _____    ______ ____
ROOT
ATOM      1  C   UNL     1       0.227   0.544   0.398  0.00  0.00    +0.199 C 
ATOM      2  O   UNL     1       0.406  -0.648   0.536  0.00  0.00    -0.278 OA
ATOM      3  N   UNL     1       1.267   1.352   0.108  0.00  0.00    -0.301 N 
ATOM      4  H   UNL     1       1.124   2.305  -0.002  0.00  0.00    +0.150 HD
ENDROOT
BRANCH   3   5
ATOM      5  C   UNL     1       2.612   0.790  -0.039  0.00  0.00    +0.141 C 
ATOM      6  C   UNL     1       3.026   0.108   1.266  0.00  0.00    +0.024 C 
ATOM      7  C   UNL     1       4.431  -0.478   1.112  0.00  0.00    +0.009 C 
ATOM      8  C   UNL     1       5.419   0.644   0.786  0.00  0.00    -0.010 C 
ATOM      9  C   UNL     1       5.417   1.671   1.921  0.00  0.00    +0.007 C 
ATOM     10  C   UNL     1       4.012   2.257   2.075  0.00  0.00    -0.010 C 
ATOM     11  C   UNL     1       3.024   1.135   2.401  0.00  0.00    +0.009 C 
ATOM     12  C   UNL     1       3.598   2.939   0.770  0.00  0.00    +0.009 C 
ATOM     13  C   UNL     1       3.600   1.912  -0.365  0.00  0.00    +0.024 C 
ATOM     14  C   UNL     1       5.004   1.326  -0.519  0.00  0.00    +0.009 C 
BRANCH   5  15
ATOM     15  C   UNL     1       2.614  -0.221  -1.157  0.00  0.00    +0.379 C 
ATOM     16  O   UNL     1       3.243  -1.246  -1.043  0.00  0.00    -0.244 OA
ATOM     17  O   UNL     1       1.917   0.017  -2.279  0.00  0.00    -0.244 OA
ENDBRANCH   5  15
ENDBRANCH   3   5
BRANCH   1  18
ATOM     18  C   UNL     1      -1.157   1.121   0.544  0.00  0.00    +0.013 C 
BRANCH  18  21
ATOM     19  H   UNL     1      -2.104  -0.611   1.130  0.00  0.00    -0.089 HD
ATOM     20  H   UNL     1      -3.082   0.437   0.287  0.00  0.00    -0.089 HD
ATOM     21  N   UNL     1      -2.144   0.044   0.351  0.00  0.00    +0.386 N 
ATOM     22  H   UNL     1      -1.931  -0.457  -0.519  0.00  0.00    -0.089 HD
ENDBRANCH  18  21
BRANCH  18  23
ATOM     23  C   UNL     1      -1.308   1.740   1.935  0.00  0.00    -0.004 C 
BRANCH  23  25
ATOM     24  C   UNL     1      -0.834   4.044   1.092  0.00  0.00    +0.007 C 
ATOM     25  C   UNL     1      -0.378   2.949   2.059  0.00  0.00    -0.018 C 
ATOM     26  C   UNL     1      -0.423   3.482   3.492  0.00  0.00    +0.007 C 
ENDBRANCH  23  25
ENDBRANCH  18  23
ENDBRANCH   1  18
TORSDOF 6
