REMARK  Name = ZINC00289867
REMARK  3 active torsions:
REMARK  status: ('A' for Active; 'I' for Inactive)
REMARK    1  A    between atoms: C_12  and  N_24
REMARK    2  A    between atoms: C_13  and  C_22
REMARK    3  A    between atoms: C_14  and  C_16
REMARK                            x       y       z     vdW  Elec       q    Type
REMARK                         _______ _______ _______ _____ _____    ______ ____
ROOT
ATOM      1  C   UNL     1      -1.198   1.744   0.017  0.00  0.00    +0.001 A 
ATOM      2  C   UNL     1      -1.236   3.137   0.030  0.00  0.00    +0.001 A 
ATOM      3  C   UNL     1      -0.089   3.870   0.023  0.00  0.00    +0.012 A 
ATOM      4  C   UNL     1       1.153   3.215   0.009  0.00  0.00    +0.025 A 
ATOM      5  C   UNL     1       1.193   1.799   0.000  0.00  0.00    -0.014 A 
ATOM      6  C   UNL     1      -0.013   1.076   0.008  0.00  0.00    +0.008 A 
ATOM      7  C   UNL     1       2.436   1.145  -0.017  0.00  0.00    +0.009 A 
ATOM      8  C   UNL     1       3.585   1.873  -0.022  0.00  0.00    +0.009 A 
ATOM      9  C   UNL     1       3.559   3.268  -0.010  0.00  0.00    +0.008 A 
ATOM     10  C   UNL     1       2.362   3.944   0.006  0.00  0.00    +0.142 A 
ATOM     11  O   UNL     1       2.322   5.298   0.017  0.00  0.00    -0.440 OA
ATOM     12  C   UNL     1       3.396   6.004  -0.375  0.00  0.00    +0.199 C 
ATOM     13  C   UNL     1       4.634   5.455  -0.413  0.00  0.00    +0.098 C 
ATOM     14  C   UNL     1       4.863   4.024  -0.015  0.00  0.00    +0.099 C 
ENDROOT
BRANCH  14  15
ATOM     15  C   UNL     1       5.470   3.981   1.364  0.00  0.00    -0.017 A 
ATOM     16  C   UNL     1       6.712   3.399   1.566  0.00  0.00    +0.007 A 
ATOM     17  C   UNL     1       7.231   3.382   2.851  0.00  0.00    +0.020 A 
ATOM     18  C   UNL     1       6.499   3.941   3.881  0.00  0.00    +0.111 A 
ATOM     19  N   UNL     1       5.320   4.486   3.652  0.00  0.00    -0.263 NA
ATOM     20  C   UNL     1       4.798   4.525   2.442  0.00  0.00    +0.115 A 
ENDBRANCH  14  15
BRANCH  12  21
ATOM     21  N   UNL     1       3.234   7.315  -0.747  0.00  0.00    -0.328 N 
ATOM     22  H   UNL     1       2.353   7.721  -0.725  0.00  0.00    +0.145 HD
ATOM     23  H   UNL     1       4.001   7.837  -1.032  0.00  0.00    +0.145 HD
ENDBRANCH  12  21
BRANCH  13  24
ATOM     24  C   UNL     1       5.744   6.252  -0.840  0.00  0.00    +0.101 C 
ATOM     25  N   UNL     1       6.625   6.884  -1.179  0.00  0.00    -0.191 NA
ENDBRANCH  13  24
TORSDOF 3
