REMARK  Name = ZINC33503263
REMARK  11 active torsions:
REMARK  status: ('A' for Active; 'I' for Inactive)
REMARK    1  A    between atoms: C_1  and  C_2
REMARK    2  A    between atoms: C_2  and  C_3
REMARK    3  A    between atoms: C_3  and  C_4
REMARK    4  A    between atoms: C_4  and  C_5
REMARK    5  A    between atoms: C_5  and  C_7
REMARK    6  A    between atoms: C_5  and  N_23
REMARK    7  A    between atoms: N_13  and  C_20
REMARK    8  A    between atoms: C_16  and  C_18
REMARK    9  A    between atoms: C_16  and  C_19
REMARK   10  A    between atoms: C_20  and  C_21
REMARK   11  A    between atoms: C_21  and  O_22
REMARK                            x       y       z     vdW  Elec       q    Type
REMARK                         _______ _______ _______ _____ _____    ______ ____
ROOT
ATOM      1  C   UNL     1       2.459   4.057   0.310  0.00  0.00    -0.060 A 
ATOM      2  C   UNL     1       3.621   3.385  -0.025  0.00  0.00    +0.005 A 
ATOM      3  C   UNL     1       3.579   2.041  -0.348  0.00  0.00    +0.048 A 
ATOM      4  C   UNL     1       2.371   1.365  -0.336  0.00  0.00    +0.143 A 
ATOM      5  C   UNL     1       1.201   2.043   0.002  0.00  0.00    +0.079 A 
ATOM      6  C   UNL     1       1.249   3.389   0.324  0.00  0.00    +0.029 A 
ATOM      7  N   UNL     1      -0.016   1.347   0.009  0.00  0.00    -0.263 N 
ATOM      8  C   UNL     1       0.002  -0.004   0.002  0.00  0.00    +0.263 C 
ATOM      9  O   UNL     1      -1.038  -0.627  -0.023  0.00  0.00    -0.271 OA
ATOM     10  C   UNL     1       1.321  -0.734   0.024  0.00  0.00    +0.181 C 
ATOM     11  O   UNL     1       2.312   0.044  -0.651  0.00  0.00    -0.475 OA
ATOM     12  C   UNL     1       1.752  -0.962   1.474  0.00  0.00    +0.065 C 
ATOM     13  C   UNL     1       1.167  -2.084  -0.678  0.00  0.00    +0.065 C 
ENDROOT
BRANCH   1  14
ATOM     14  C   UNL     1       2.514   5.521   0.660  0.00  0.00    -0.044 C 
BRANCH  14  15
ATOM     15  N   UNL     1       3.455   6.205  -0.236  0.00  0.00    +0.383 N 
ATOM     16  H   UNL     1       3.120   6.090  -1.277  0.00  0.00    -0.089 HD
ATOM     17  H   UNL     1       4.456   5.764  -0.122  0.00  0.00    -0.089 HD
ATOM     18  H   UNL     1       3.495   7.274   0.020  0.00  0.00    -0.089 HD
ENDBRANCH  14  15
BRANCH  14  19
ATOM     19  C   UNL     1       2.980   5.682   2.109  0.00  0.00    -0.012 C 
BRANCH  19  20
ATOM     20  C   UNL     1       2.916   7.159   2.504  0.00  0.00    -0.002 C 
BRANCH  20  22
ATOM     21  C   UNL     1       3.318   8.796   4.348  0.00  0.00    +0.004 C 
ATOM     22  C   UNL     1       3.382   7.319   3.953  0.00  0.00    -0.003 C 
ENDBRANCH  20  22
ENDBRANCH  19  20
ENDBRANCH  14  19
ENDBRANCH   1  14
BRANCH   7  23
ATOM     23  C   UNL     1      -1.288   2.073   0.019  0.00  0.00    +0.141 C 
BRANCH  23  24
ATOM     24  C   UNL     1      -1.724   2.318   1.465  0.00  0.00    +0.175 C 
BRANCH  24  25
ATOM     25  O   UNL     1      -0.788   3.188   2.105  0.00  0.00    -0.393 OA
ATOM     26  H   UNL     1      -0.936   3.479   3.155  0.00  0.00    +0.209 HD
ENDBRANCH  24  25
ENDBRANCH  23  24
ENDBRANCH   7  23
TORSDOF 8
