REMARK  Name = ZINC65244115
REMARK  11 active torsions:
REMARK  status: ('A' for Active; 'I' for Inactive)
REMARK    1  A    between atoms: C_1  and  C_2
REMARK    2  A    between atoms: C_2  and  C_3
REMARK    3  A    between atoms: C_3  and  N_4
REMARK    4  A    between atoms: C_5  and  C_7
REMARK    5  A    between atoms: N_11  and  C_13
REMARK    6  A    between atoms: C_13  and  C_14
REMARK    7  A    between atoms: C_13  and  C_15
REMARK    8  A    between atoms: N_20  and  C_21
REMARK    9  A    between atoms: C_21  and  C_22
REMARK   10  A    between atoms: C_21  and  C_23
REMARK   11  A    between atoms: C_21  and  C_24
REMARK                            x       y       z     vdW  Elec       q    Type
REMARK                         _______ _______ _______ _____ _____    ______ ____
ROOT
ATOM      1  C   UNL     1      -2.849  -4.115  -0.992  0.00  0.00    +0.058 C 
ATOM      2  C   UNL     1      -2.741  -4.506  -2.469  0.00  0.00    +0.009 C 
ATOM      3  C   UNL     1      -2.809  -6.031  -2.590  0.00  0.00    -0.018 C 
ATOM      4  C   UNL     1      -4.106  -6.531  -1.951  0.00  0.00    -0.078 C 
ATOM      5  N   UNL     1      -4.136  -6.149  -0.534  0.00  0.00    +0.388 N 
ATOM      6  C   UNL     1      -4.144  -4.686  -0.412  0.00  0.00    -0.065 C 
ATOM      7  H   UNL     1      -3.321  -6.520  -0.070  0.00  0.00    -0.081 HD
ENDROOT
BRANCH   1   9
ATOM      8  N   UNL     1      -1.814  -1.892  -1.316  0.00  0.00    -0.315 N 
ATOM      9  C   UNL     1      -2.861  -2.614  -0.868  0.00  0.00    +0.214 C 
ATOM     10  O   UNL     1      -3.812  -2.054  -0.365  0.00  0.00    -0.276 OA
ATOM     11  H   UNL     1      -1.053  -2.339  -1.718  0.00  0.00    +0.149 HD
BRANCH   8  12
ATOM     12  C   UNL     1      -1.826  -0.432  -1.196  0.00  0.00    +0.104 C 
BRANCH  12  14
ATOM     13  C   UNL     1      -0.542   1.663  -1.650  0.00  0.00    +0.005 C 
ATOM     14  C   UNL     1      -0.530   0.138  -1.776  0.00  0.00    +0.015 C 
ENDBRANCH  12  14
ENDBRANCH   8  12
ENDBRANCH   1   9
BRANCH   5  15
ATOM     15  C   UNL     1      -5.346  -6.698   0.093  0.00  0.00    +0.017 C 
ATOM     16  C   UNL     1      -5.374  -6.309   1.573  0.00  0.00    -0.004 C 
BRANCH  15  17
ATOM     17  C   UNL     1      -5.339  -8.200  -0.032  0.00  0.00    +0.207 C 
ATOM     18  O   UNL     1      -4.287  -8.799  -0.089  0.00  0.00    -0.277 OA
ATOM     19  N   UNL     1      -6.503  -8.877  -0.080  0.00  0.00    -0.242 N 
ATOM     20  C   UNL     1      -6.498 -10.220  -0.191  0.00  0.00    +0.306 C 
ATOM     21  O   UNL     1      -5.442 -10.821  -0.249  0.00  0.00    -0.252 OA
ATOM     22  N   UNL     1      -7.662 -10.898  -0.239  0.00  0.00    -0.294 N 
ATOM     23  H   UNL     1      -7.346  -8.398  -0.034  0.00  0.00    +0.159 HD
ATOM     24  H   UNL     1      -8.504 -10.418  -0.193  0.00  0.00    +0.151 HD
BRANCH  22  25
ATOM     25  C   UNL     1      -7.655 -12.357  -0.360  0.00  0.00    +0.028 C 
ATOM     26  C   UNL     1      -6.923 -12.966   0.837  0.00  0.00    +0.031 C 
ATOM     27  C   UNL     1      -9.096 -12.873  -0.393  0.00  0.00    +0.031 C 
ATOM     28  C   UNL     1      -6.941 -12.759  -1.653  0.00  0.00    +0.031 C 
ENDBRANCH  22  25
ENDBRANCH  15  17
ENDBRANCH   5  15
TORSDOF 6
