REMARK  Name = ZINC32952400
REMARK  10 active torsions:
REMARK  status: ('A' for Active; 'I' for Inactive)
REMARK    1  A    between atoms: C_1  and  C_2
REMARK    2  A    between atoms: C_2  and  N_3
REMARK    3  A    between atoms: N_3  and  C_4
REMARK    4  A    between atoms: N_3  and  C_6
REMARK    5  A    between atoms: C_4  and  C_5
REMARK    6  A    between atoms: C_6  and  C_7
REMARK    7  A    between atoms: C_7  and  N_8
REMARK    8  A    between atoms: C_9  and  N_24
REMARK    9  A    between atoms: C_10  and  C_14
REMARK   10  A    between atoms: N_16  and  C_17
REMARK                            x       y       z     vdW  Elec       q    Type
REMARK                         _______ _______ _______ _____ _____    ______ ____
ROOT
ATOM      1  N   UNL     1      -1.070   2.513   0.078  0.00  0.00    -0.319 N 
ATOM      2  C   UNL     1      -0.885   3.848   0.069  0.00  0.00    +0.117 A 
ATOM      3  C   UNL     1       0.406   4.316   0.080  0.00  0.00    +0.114 A 
ATOM      4  S   UNL     1       1.336   2.792   0.111  0.00  0.00    -0.055 S 
ATOM      5  C   UNL     1      -0.002   1.687   0.108  0.00  0.00    +0.128 A 
ATOM      6  S   UNL     1       0.026  -0.025   0.130  0.00  0.00    -0.025 S 
ENDROOT
BRANCH   3   7
ATOM      7  C   UNL     1       0.874   5.647   0.068  0.00  0.00    +0.258 C 
ATOM      8  O   UNL     1       0.081   6.572   0.045  0.00  0.00    -0.269 OA
ATOM      9  N   UNL     1       2.199   5.896   0.081  0.00  0.00    -0.280 N 
ATOM     10  H   UNL     1       2.913   5.065   0.176  0.00  0.00    +0.155 HD
BRANCH   9  11
ATOM     11  C   UNL     1       2.664   7.211  -0.025  0.00  0.00    +0.052 A 
ATOM     12  C   UNL     1       1.946   8.252   0.549  0.00  0.00    +0.025 A 
ATOM     13  C   UNL     1       2.412   9.548   0.447  0.00  0.00    +0.002 A 
ATOM     14  C   UNL     1       3.586   9.812  -0.234  0.00  0.00    +0.002 A 
ATOM     15  C   UNL     1       4.301   8.779  -0.812  0.00  0.00    +0.022 A 
ATOM     16  C   UNL     1       3.844   7.479  -0.709  0.00  0.00    +0.062 A 
ATOM     17 CL   UNL     1       4.742   6.182  -1.435  0.00  0.00    -0.082 Cl
ENDBRANCH   9  11
ENDBRANCH   3   7
BRANCH   2  18
ATOM     18  N   UNL     1      -1.956   4.715   0.043  0.00  0.00    -0.343 N 
ATOM     19  H   UNL     1      -1.784   5.801   0.036  0.00  0.00    +0.144 HD
ATOM     20  H   UNL     1      -2.982   4.320   0.030  0.00  0.00    +0.144 HD
ENDBRANCH   2  18
BRANCH   1  21
ATOM     21  C   UNL     1      -2.426   1.958   0.060  0.00  0.00    +0.106 C 
BRANCH  21  22
ATOM     22  C   UNL     1      -2.925   1.784   1.496  0.00  0.00    -0.057 C 
BRANCH  22  23
ATOM     23  N   UNL     1      -4.285   1.229   1.478  0.00  0.00    +0.380 N 
ATOM     24  H   UNL     1      -4.897   1.856   0.814  0.00  0.00    -0.082 HD
BRANCH  23  26
ATOM     25  C   UNL     1      -3.505  -1.058   1.877  0.00  0.00    -0.017 C 
ATOM     26  C   UNL     1      -4.288  -0.138   0.939  0.00  0.00    -0.082 C 
ENDBRANCH  23  26
BRANCH  23  27
ATOM     27  C   UNL     1      -4.887   1.267   2.818  0.00  0.00    -0.082 C 
ATOM     28  C   UNL     1      -6.396   1.042   2.705  0.00  0.00    -0.017 C 
ENDBRANCH  23  27
ENDBRANCH  22  23
ENDBRANCH  21  22
ENDBRANCH   1  21
TORSDOF 8
