REMARK  Name = ZINC02793791
REMARK  15 active torsions:
REMARK  status: ('A' for Active; 'I' for Inactive)
REMARK    1  A    between atoms: C_1  and  C_2
REMARK    2  A    between atoms: C_2  and  C_3
REMARK    3  A    between atoms: C_2  and  C_4
REMARK    4  A    between atoms: C_7  and  C_10
REMARK    5  A    between atoms: C_13  and  C_34
REMARK    6  A    between atoms: C_18  and  C_20
REMARK    7  A    between atoms: N_22  and  N_23
REMARK    8  A    between atoms: N_23  and  C_24
REMARK    9  A    between atoms: C_24  and  N_26
REMARK   10  A    between atoms: N_26  and  C_27
REMARK   11  A    between atoms: C_27  and  C_28
REMARK   12  A    between atoms: C_28  and  C_29
REMARK   13  A    between atoms: C_29  and  N_30
REMARK   14  A    between atoms: N_30  and  C_31
REMARK   15  A    between atoms: N_30  and  C_32
REMARK                            x       y       z     vdW  Elec       q    Type
REMARK                         _______ _______ _______ _____ _____    ______ ____
ROOT
ATOM      1  C   UNL     1      -2.514   0.980   0.019  0.00  0.00    +0.104 C 
ATOM      2  C   UNL     1      -3.091   0.939  -1.400  0.00  0.00    +0.063 C 
ATOM      3  C   UNL     1      -3.278   2.366  -1.928  0.00  0.00    +0.215 C 
ATOM      4  N   UNL     1      -4.000   3.153  -0.925  0.00  0.00    -0.238 N 
ATOM      5  C   UNL     1      -4.091   2.802   0.392  0.00  0.00    +0.119 A 
ATOM      6  C   UNL     1      -4.824   3.737   1.027  0.00  0.00    +0.078 A 
ATOM      7  C   UNL     1      -5.202   4.706   0.069  0.00  0.00    +0.150 A 
ATOM      8  N   UNL     1      -4.701   4.345  -1.100  0.00  0.00    -0.164 NA
ATOM      9  N   UNL     1      -3.488   1.649   0.904  0.00  0.00    -0.322 N 
ATOM     10  H   UNL     1      -3.701   1.235   1.900  0.00  0.00    +0.148 HD
ENDROOT
BRANCH   1  14
ATOM     11  C   UNL     1       1.156   3.165   0.008  0.00  0.00    -0.045 A 
ATOM     12  C   UNL     1       1.175   1.783   0.000  0.00  0.00    +0.004 A 
ATOM     13  C   UNL     1      -0.013   1.076   0.008  0.00  0.00    +0.006 A 
ATOM     14  C   UNL     1      -1.219   1.751   0.017  0.00  0.00    -0.027 A 
ATOM     15  C   UNL     1      -1.238   3.133   0.030  0.00  0.00    +0.006 A 
ATOM     16  C   UNL     1      -0.050   3.840   0.023  0.00  0.00    +0.004 A 
BRANCH  11  18
ATOM     17  C   UNL     1       2.508   4.824  -1.246  0.00  0.00    +0.012 C 
ATOM     18  C   UNL     1       2.451   3.937  -0.001  0.00  0.00    +0.013 C 
ATOM     19  C   UNL     1       2.532   4.811   1.252  0.00  0.00    +0.012 C 
ENDBRANCH  11  18
ENDBRANCH   1  14
BRANCH   7  20
ATOM     20  C   UNL     1      -6.014   5.911   0.329  0.00  0.00    +0.280 C 
ATOM     21  O   UNL     1      -6.421   6.139   1.452  0.00  0.00    -0.267 OA
ATOM     22  N   UNL     1      -6.304   6.759  -0.678  0.00  0.00    -0.230 N 
ATOM     23  H   UNL     1      -5.936   6.552  -1.694  0.00  0.00    +0.173 HD
BRANCH  22  24
ATOM     24  N   UNL     1      -7.075   7.902  -0.431  0.00  0.00    -0.246 N 
ATOM     25  H   UNL     1      -7.444   8.109   0.585  0.00  0.00    +0.172 HD
BRANCH  24  26
ATOM     26  C   UNL     1      -7.366   8.750  -1.438  0.00  0.00    +0.147 C 
ATOM     27  S   UNL     1      -8.307  10.147  -1.137  0.00  0.00    -0.017 S 
BRANCH  26  28
ATOM     28  N   UNL     1      -6.914   8.497  -2.683  0.00  0.00    -0.326 N 
ATOM     29  H   UNL     1      -6.309   7.599  -2.877  0.00  0.00    +0.148 HD
BRANCH  28  30
ATOM     30  C   UNL     1      -7.230   9.418  -3.777  0.00  0.00    +0.101 C 
BRANCH  30  31
ATOM     31  C   UNL     1      -6.603   8.902  -5.074  0.00  0.00    +0.000 C 
BRANCH  31  32
ATOM     32  C   UNL     1      -6.932   9.864  -6.218  0.00  0.00    -0.078 C 
BRANCH  32  33
ATOM     33  N   UNL     1      -6.330   9.370  -7.463  0.00  0.00    +0.376 N 
ATOM     34  C   UNL     1      -6.949   8.105  -7.881  0.00  0.00    -0.097 C 
ATOM     35  C   UNL     1      -6.420  10.377  -8.528  0.00  0.00    -0.097 C 
ATOM     36  H   UNL     1      -5.264   9.177  -7.270  0.00  0.00    -0.083 HD
ENDBRANCH  32  33
ENDBRANCH  31  32
ENDBRANCH  30  31
ENDBRANCH  28  30
ENDBRANCH  26  28
ENDBRANCH  24  26
ENDBRANCH  22  24
ENDBRANCH   7  20
BRANCH   3  37
ATOM     37  C   UNL     1      -4.083   2.330  -3.229  0.00  0.00    +0.412 C 
ATOM     38  F   UNL     1      -5.336   1.756  -2.985  0.00  0.00    -0.168 F 
ATOM     39  F   UNL     1      -4.252   3.633  -3.709  0.00  0.00    -0.168 F 
ATOM     40  F   UNL     1      -3.398   1.567  -4.180  0.00  0.00    -0.168 F 
ENDBRANCH   3  37
TORSDOF 11
