REMARK  Name = ZINC20694585
REMARK  10 active torsions:
REMARK  status: ('A' for Active; 'I' for Inactive)
REMARK    1  A    between atoms: C_1  and  C_2
REMARK    2  A    between atoms: C_2  and  C_3
REMARK    3  A    between atoms: C_3  and  C_5
REMARK    4  A    between atoms: C_3  and  N_6
REMARK    5  A    between atoms: N_6  and  S_7
REMARK    6  A    between atoms: S_7  and  C_10
REMARK    7  A    between atoms: C_23  and  C_26
REMARK    8  A    between atoms: C_30  and  O_33
REMARK    9  A    between atoms: C_31  and  O_32
REMARK   10  A    between atoms: O_33  and  C_34
REMARK                            x       y       z     vdW  Elec       q    Type
REMARK                         _______ _______ _______ _____ _____    ______ ____
ROOT
ATOM      1  C   UNL     1      -1.900  -0.344  -1.641  0.00  0.00    +0.106 A 
ATOM      2  C   UNL     1      -1.241   0.872  -1.684  0.00  0.00    +0.030 A 
ATOM      3  C   UNL     1      -1.627   1.827  -2.603  0.00  0.00    +0.025 A 
ATOM      4  C   UNL     1      -2.672   1.566  -3.480  0.00  0.00    +0.031 A 
ATOM      5  C   UNL     1      -3.334   0.348  -3.442  0.00  0.00    -0.018 A 
ATOM      6  C   UNL     1      -2.934  -0.606  -2.517  0.00  0.00    +0.034 A 
ATOM      7  C   UNL     1      -4.461   0.021  -4.369  0.00  0.00    +0.049 C 
ATOM      8  C   UNL     1      -5.794   0.079  -3.661  0.00  0.00    -0.023 C 
ATOM      9  C   UNL     1      -6.715   0.551  -4.465  0.00  0.00    -0.030 C 
ATOM     10  C   UNL     1      -6.121   0.869  -5.824  0.00  0.00    +0.033 C 
ATOM     11  C   UNL     1      -4.615   1.042  -5.513  0.00  0.00    +0.029 C 
ATOM     12  C   UNL     1      -4.413   2.462  -4.976  0.00  0.00    +0.109 C 
ATOM     13  N   UNL     1      -3.055   2.546  -4.402  0.00  0.00    -0.336 N 
ATOM     14  H   UNL     1      -2.380   3.361  -4.702  0.00  0.00    +0.147 HD
ENDROOT
BRANCH  12  15
ATOM     15  C   UNL     1      -5.457   2.759  -3.930  0.00  0.00    +0.018 A 
ATOM     16  C   UNL     1      -5.249   2.374  -2.618  0.00  0.00    +0.009 A 
ATOM     17  C   UNL     1      -6.202   2.650  -1.655  0.00  0.00    +0.004 A 
ATOM     18  C   UNL     1      -7.371   3.302  -2.001  0.00  0.00    +0.049 A 
ATOM     19  C   UNL     1      -7.587   3.685  -3.315  0.00  0.00    +0.162 A 
ATOM     20  C   UNL     1      -6.626   3.412  -4.284  0.00  0.00    +0.163 A 
BRANCH  20  21
ATOM     21  O   UNL     1      -6.833   3.787  -5.574  0.00  0.00    -0.503 OA
ATOM     22  H   UNL     1      -7.762   4.306  -5.854  0.00  0.00    +0.292 HD
ENDBRANCH  20  21
BRANCH  19  23
ATOM     23  O   UNL     1      -8.737   4.326  -3.657  0.00  0.00    -0.491 OA
ATOM     24  C   UNL     1      -9.678   4.572  -2.611  0.00  0.00    +0.277 C 
ENDBRANCH  19  23
ENDBRANCH  12  15
BRANCH   1  25
ATOM     25  S   UNL     1      -1.412  -1.565  -0.469  0.00  0.00    +0.059 S 
ATOM     26  O   UNL     1      -1.823  -2.820  -0.994  0.00  0.00    -0.153 OA
ATOM     27  O   UNL     1      -0.060  -1.287  -0.132  0.00  0.00    -0.153 OA
BRANCH  25  28
ATOM     28  N   UNL     1      -2.304  -1.311   0.903  0.00  0.00    -0.187 NA
ATOM     29  H   UNL     1      -1.823  -0.851   1.779  0.00  0.00    +0.148 HD
BRANCH  28  30
ATOM     30  C   UNL     1      -3.757  -1.492   0.876  0.00  0.00    +0.073 C 
ATOM     31  C   UNL     1      -4.434  -0.143   0.625  0.00  0.00    +0.025 C 
BRANCH  30  33
ATOM     32  C   UNL     1      -3.648  -3.459   2.412  0.00  0.00    +0.005 C 
ATOM     33  C   UNL     1      -4.226  -2.056   2.218  0.00  0.00    +0.017 C 
ENDBRANCH  30  33
ENDBRANCH  28  30
ENDBRANCH  25  28
ENDBRANCH   1  25
TORSDOF 7
