REMARK  Name = ZINC38899220
REMARK  8 active torsions:
REMARK  status: ('A' for Active; 'I' for Inactive)
REMARK    1  A    between atoms: C_1  and  C_2
REMARK    2  A    between atoms: C_5  and  C_8
REMARK    3  A    between atoms: N_9  and  N_10
REMARK    4  A    between atoms: C_11  and  C_13
REMARK    5  A    between atoms: C_16  and  C_19
REMARK    6  A    between atoms: C_19  and  C_20
REMARK    7  A    between atoms: C_19  and  C_21
REMARK    8  A    between atoms: C_19  and  C_22
REMARK                            x       y       z     vdW  Elec       q    Type
REMARK                         _______ _______ _______ _____ _____    ______ ____
ROOT
ATOM      1  N   UNL     1       0.090  -6.304   1.091  0.00  0.00    -0.205 N 
ATOM      2  C   UNL     1       0.105  -6.984   2.255  0.00  0.00    +0.262 C 
ATOM      3  O   UNL     1       0.103  -6.383   3.308  0.00  0.00    -0.271 OA
ATOM      4  H   UNL     1       0.092  -6.784   0.248  0.00  0.00    +0.177 HD
ENDROOT
BRANCH   2   5
ATOM      5  C   UNL     1       0.125  -8.491   2.246  0.00  0.00    +0.240 C 
ATOM      6  C   UNL     1      -1.277  -9.045   2.063  0.00  0.00    +0.036 C 
ATOM      7  C   UNL     1      -1.495  -9.743   3.179  0.00  0.00    +0.067 C 
ATOM      8  N   UNL     1      -0.423  -9.684   4.000  0.00  0.00    -0.158 NA
ATOM      9  N   UNL     1       0.522  -9.014   3.564  0.00  0.00    -0.170 NA
BRANCH   7  10
ATOM     10  C   UNL     1      -2.764 -10.497   3.484  0.00  0.00    +0.006 C 
ATOM     11  C   UNL     1      -3.746 -10.332   2.322  0.00  0.00    +0.017 C 
ATOM     12  C   UNL     1      -2.444 -11.981   3.674  0.00  0.00    +0.017 C 
ATOM     13  C   UNL     1      -3.392  -9.942   4.764  0.00  0.00    +0.017 C 
ENDBRANCH   7  10
ENDBRANCH   2   5
BRANCH   1  15
ATOM     14  C   UNL     1       0.058  -4.248  -0.021  0.00  0.00    +0.138 C 
ATOM     15  N   UNL     1       0.072  -4.903   1.099  0.00  0.00    -0.188 NA
BRANCH  14  20
ATOM     16  C   UNL     1      -0.018   1.503   0.010  0.00  0.00    +0.044 C 
ATOM     17  C   UNL     1       0.002  -0.004   0.002  0.00  0.00    -0.050 A 
ATOM     18  C   UNL     1       0.006  -0.686  -1.202  0.00  0.00    +0.004 A 
ATOM     19  C   UNL     1       0.024  -2.065  -1.217  0.00  0.00    +0.010 A 
ATOM     20  C   UNL     1       0.039  -2.773  -0.013  0.00  0.00    -0.005 A 
ATOM     21  C   UNL     1       0.036  -2.078   1.198  0.00  0.00    +0.010 A 
ATOM     22  C   UNL     1       0.023  -0.699   1.198  0.00  0.00    +0.004 A 
ENDBRANCH  14  20
ENDBRANCH   1  15
TORSDOF 4
