REMARK  Name = ZINC39451520
REMARK  2 active torsions:
REMARK  status: ('A' for Active; 'I' for Inactive)
REMARK    1  A    between atoms: C_1  and  O_2
REMARK    2  A    between atoms: O_2  and  N_3
REMARK                            x       y       z     vdW  Elec       q    Type
REMARK                         _______ _______ _______ _____ _____    ______ ____
ROOT
ATOM      1  N   UNL     1      -1.284  -0.598   0.011  0.00  0.00    -0.139 N 
ATOM      2  C   UNL     1      -1.884  -0.880   1.231  0.00  0.00    +0.149 A 
ATOM      3  C   UNL     1      -3.140  -1.454   1.289  0.00  0.00    +0.085 A 
ATOM      4  C   UNL     1      -3.850  -1.780   0.045  0.00  0.00    +0.099 A 
ATOM      5  C   UNL     1      -3.217  -1.485  -1.182  0.00  0.00    +0.071 A 
ATOM      6  C   UNL     1      -1.885  -0.864  -1.163  0.00  0.00    +0.293 A 
ATOM      7  O   UNL     1      -1.324  -0.594  -2.209  0.00  0.00    -0.264 OA
ATOM      8  C   UNL     1      -3.872  -1.784  -2.377  0.00  0.00    +0.032 A 
ATOM      9  C   UNL     1      -5.127  -2.365  -2.302  0.00  0.00    +0.037 A 
ATOM     10  C   UNL     1      -5.688  -2.628  -1.059  0.00  0.00    +0.126 A 
ATOM     11  N   UNL     1      -5.055  -2.337   0.057  0.00  0.00    -0.252 NA
ATOM     12 BR   UNL     1      -6.072  -2.797  -3.882  0.00  0.00    -0.049 Br
ATOM     13  N   UNL     1      -3.724  -1.713   2.514  0.00  0.00    -0.328 N 
ATOM     14  C   UNL     1      -3.323  -0.889   3.665  0.00  0.00    +0.141 C 
ATOM     15  C   UNL     1      -1.794  -0.919   3.767  0.00  0.00    +0.114 C 
ATOM     16  C   UNL     1      -1.198  -0.571   2.429  0.00  0.00    +0.187 C 
ATOM     17  O   UNL     1      -0.116  -0.021   2.377  0.00  0.00    -0.290 OA
ATOM     18  I   UNL     1      -3.997   1.145   3.376  0.00  0.00    -0.061 I 
ATOM     19  H   UNL     1      -4.381  -2.420   2.613  0.00  0.00    +0.147 HD
ENDROOT
BRANCH   1  21
ATOM     20  C   UNL     1      -0.017   1.425   0.010  0.00  0.00    +0.311 C 
ATOM     21  O   UNL     1       0.002  -0.004   0.002  0.00  0.00    -0.411 OA
ENDBRANCH   1  21
TORSDOF 1
