REMARK  Name = ZINC66978165
REMARK  7 active torsions:
REMARK  status: ('A' for Active; 'I' for Inactive)
REMARK    1  A    between atoms: C_1  and  C_2
REMARK    2  A    between atoms: C_4  and  C_7
REMARK    3  A    between atoms: C_7  and  C_9
REMARK    4  A    between atoms: C_7  and  N_10
REMARK    5  A    between atoms: N_13  and  C_14
REMARK    6  A    between atoms: C_14  and  C_15
REMARK    7  A    between atoms: C_15  and  O_25
REMARK                            x       y       z     vdW  Elec       q    Type
REMARK                         _______ _______ _______ _____ _____    ______ ____
ROOT
ATOM      1  N   UNL     1      -1.359  -3.903  -1.322  0.00  0.00    -0.288 N 
ATOM      2  C   UNL     1      -1.784  -4.850  -2.182  0.00  0.00    +0.300 C 
ATOM      3  O   UNL     1      -1.544  -4.744  -3.369  0.00  0.00    -0.253 OA
ATOM      4  N   UNL     1      -2.475  -5.913  -1.726  0.00  0.00    -0.296 N 
ATOM      5  H   UNL     1      -1.551  -3.987  -0.375  0.00  0.00    +0.151 HD
ATOM      6  H   UNL     1      -2.666  -5.997  -0.778  0.00  0.00    +0.150 HD
ENDROOT
BRANCH   1   7
ATOM      7  C   UNL     1      -0.609  -2.747  -1.818  0.00  0.00    +0.160 C 
ATOM      8  C   UNL     1       0.874  -3.108  -1.923  0.00  0.00    +0.038 C 
BRANCH   7  12
ATOM      9  C   UNL     1      -1.396   1.887  -0.086  0.00  0.00    +0.091 C 
ATOM     10  C   UNL     1      -1.116   0.407  -0.103  0.00  0.00    +0.169 A 
ATOM     11  N   UNL     1      -1.029  -0.356  -1.198  0.00  0.00    -0.195 NA
ATOM     12  C   UNL     1      -0.778  -1.591  -0.865  0.00  0.00    +0.247 A 
ATOM     13  O   UNL     1      -0.696  -1.657   0.470  0.00  0.00    -0.336 OA
ATOM     14  N   UNL     1      -0.915  -0.338   0.946  0.00  0.00    -0.062 NA
ENDBRANCH   7  12
ENDBRANCH   1   7
BRANCH   4  15
ATOM     15  C   UNL     1      -2.937  -6.943  -2.660  0.00  0.00    +0.145 C 
BRANCH  15  16
ATOM     16  C   UNL     1      -3.802  -7.959  -1.913  0.00  0.00    +0.107 C 
ATOM     17  C   UNL     1      -4.971  -7.233  -1.249  0.00  0.00    +0.041 C 
ATOM     18  C   UNL     1      -5.940  -8.284  -0.694  0.00  0.00    +0.008 C 
ATOM     19  C   UNL     1      -6.622  -8.979  -1.870  0.00  0.00    +0.035 C 
ATOM     20  C   UNL     1      -5.599  -9.465  -2.863  0.00  0.00    -0.041 A 
ATOM     21  C   UNL     1      -4.305  -8.993  -2.885  0.00  0.00    -0.011 A 
ATOM     22  C   UNL     1      -3.412  -9.479  -3.832  0.00  0.00    +0.007 A 
ATOM     23  C   UNL     1      -3.810 -10.431  -4.748  0.00  0.00    +0.000 A 
ATOM     24  C   UNL     1      -5.107 -10.907  -4.723  0.00  0.00    +0.000 A 
ATOM     25  C   UNL     1      -5.997 -10.425  -3.784  0.00  0.00    +0.004 A 
BRANCH  16  26
ATOM     26  O   UNL     1      -3.015  -8.600  -0.908  0.00  0.00    -0.382 OA
ATOM     27  H   UNL     1      -2.247  -9.076  -1.254  0.00  0.00    +0.211 HD
ENDBRANCH  16  26
ENDBRANCH  15  16
ENDBRANCH   4  15
TORSDOF 5
