REMARK  Name = ZINC19497989
REMARK  8 active torsions:
REMARK  status: ('A' for Active; 'I' for Inactive)
REMARK    1  A    between atoms: C_1  and  C_2
REMARK    2  A    between atoms: C_7  and  C_12
REMARK    3  A    between atoms: N_14  and  C_15
REMARK    4  A    between atoms: C_15  and  C_17
REMARK    5  A    between atoms: C_15  and  C_30
REMARK    6  A    between atoms: C_21  and  C_23
REMARK    7  A    between atoms: C_30  and  C_31
REMARK    8  A    between atoms: C_30  and  C_32
REMARK                            x       y       z     vdW  Elec       q    Type
REMARK                         _______ _______ _______ _____ _____    ______ ____
ROOT
ATOM      1  C   UNL     1       1.248   1.716  -0.001  0.00  0.00    +0.125 C 
ENDROOT
BRANCH   1   2
ATOM      2  C   UNL     1       2.344   0.863   0.585  0.00  0.00    +0.069 A 
ATOM      3  C   UNL     1       2.965   1.236   1.763  0.00  0.00    +0.095 A 
ATOM      4  C   UNL     1       3.975   0.417   2.271  0.00  0.00    +0.252 A 
ATOM      5  N   UNL     1       4.315  -0.676   1.601  0.00  0.00    -0.306 N 
ATOM      6  C   UNL     1       3.699  -0.997   0.472  0.00  0.00    +0.159 A 
ATOM      7  N   UNL     1       2.730  -0.244  -0.028  0.00  0.00    -0.230 NA
ATOM      8  O   UNL     1       4.607   0.742   3.425  0.00  0.00    -0.268 OA
ATOM      9  H   UNL     1       5.117  -1.320   1.992  0.00  0.00    +0.170 HD
BRANCH   6  10
ATOM     10  C   UNL     1       4.106  -2.228  -0.249  0.00  0.00    +0.106 A 
ATOM     11  C   UNL     1       5.124  -3.027   0.266  0.00  0.00    +0.031 A 
ATOM     12  C   UNL     1       5.488  -4.176  -0.415  0.00  0.00    +0.004 A 
ATOM     13  C   UNL     1       4.829  -4.481  -1.597  0.00  0.00    +0.020 A 
ATOM     14  C   UNL     1       3.831  -3.640  -2.054  0.00  0.00    +0.111 A 
ATOM     15  N   UNL     1       3.500  -2.556  -1.383  0.00  0.00    -0.252 NA
ENDBRANCH   6  10
ENDBRANCH   1   2
BRANCH   1  18
ATOM     16  C   UNL     1      -1.187   1.624   0.017  0.00  0.00    +0.245 C 
ATOM     17  O   UNL     1      -1.204   2.840   0.023  0.00  0.00    -0.270 OA
ATOM     18  N   UNL     1      -0.011   0.966   0.007  0.00  0.00    -0.303 N 
ATOM     19  H   UNL     1       0.004  -0.134   0.006  0.00  0.00    +0.150 HD
BRANCH  16  25
ATOM     20  C   UNL     1      -7.235  -0.100  -1.894  0.00  0.00    +0.052 C 
ATOM     21  C   UNL     1      -7.030  -0.036  -0.379  0.00  0.00    +0.175 C 
ATOM     22  C   UNL     1      -6.306   1.272   0.021  0.00  0.00    +0.083 C 
ATOM     23  C   UNL     1      -4.853   0.834   0.030  0.00  0.00    -0.002 A 
ATOM     24  C   UNL     1      -3.679   1.545   0.028  0.00  0.00    +0.020 A 
ATOM     25  C   UNL     1      -2.455   0.869   0.018  0.00  0.00    +0.037 A 
ATOM     26  C   UNL     1      -2.443  -0.529   0.005  0.00  0.00    +0.016 A 
ATOM     27  C   UNL     1      -3.625  -1.231   0.017  0.00  0.00    +0.046 A 
ATOM     28  C   UNL     1      -4.847  -0.557   0.030  0.00  0.00    +0.124 A 
ATOM     29  O   UNL     1      -6.113  -1.054   0.055  0.00  0.00    -0.488 OA
ENDBRANCH  16  25
ENDBRANCH   1  18
BRANCH   1  30
ATOM     30  C   UNL     1       1.608   2.092  -1.439  0.00  0.00    +0.009 C 
ATOM     31  C   UNL     1       0.495   2.958  -2.034  0.00  0.00    +0.009 C 
ATOM     32  C   UNL     1       2.922   2.875  -1.448  0.00  0.00    +0.009 C 
ENDBRANCH   1  30
TORSDOF 5
