REMARK  Name = ZINC66241462
REMARK  5 active torsions:
REMARK  status: ('A' for Active; 'I' for Inactive)
REMARK    1  A    between atoms: C_7  and  N_13
REMARK    2  A    between atoms: C_14  and  C_16
REMARK    3  A    between atoms: C_19  and  N_22
REMARK    4  A    between atoms: C_23  and  N_29
REMARK    5  A    between atoms: C_24  and  C_27
REMARK                            x       y       z     vdW  Elec       q    Type
REMARK                         _______ _______ _______ _____ _____    ______ ____
ROOT
ATOM      1  C   UNL     1       2.563  -3.096   3.471  0.00  0.00    +0.037 A 
ATOM      2  C   UNL     1       3.869  -3.504   3.188  0.00  0.00    +0.015 A 
ATOM      3  C   UNL     1       4.694  -3.923   4.207  0.00  0.00    +0.028 A 
ATOM      4  C   UNL     1       4.230  -3.940   5.518  0.00  0.00    +0.067 A 
ATOM      5  C   UNL     1       2.930  -3.534   5.804  0.00  0.00    +0.028 A 
ATOM      6  C   UNL     1       2.101  -3.109   4.790  0.00  0.00    +0.015 A 
ENDROOT
BRANCH   4   7
ATOM      7  N   UNL     1       5.070  -4.367   6.550  0.00  0.00    -0.218 N 
ATOM      8  C   UNL     1       5.088  -3.874   7.816  0.00  0.00    +0.137 A 
ATOM      9  C   UNL     1       6.068  -4.577   8.512  0.00  0.00    +0.111 A 
ATOM     10  C   UNL     1       6.632  -5.507   7.608  0.00  0.00    +0.155 A 
ATOM     11  N   UNL     1       6.033  -5.377   6.457  0.00  0.00    -0.172 NA
BRANCH   8  12
ATOM     12  N   UNL     1       4.286  -2.868   8.317  0.00  0.00    -0.342 N 
ATOM     13  H   UNL     1       3.630  -2.440   7.745  0.00  0.00    +0.144 HD
ATOM     14  H   UNL     1       4.379  -2.589   9.242  0.00  0.00    +0.144 HD
ENDBRANCH   8  12
BRANCH   9  15
ATOM     15  C   UNL     1       6.435  -4.393   9.883  0.00  0.00    +0.104 C 
ATOM     16  N   UNL     1       6.726  -4.247  10.972  0.00  0.00    -0.191 NA
ENDBRANCH   9  15
ENDBRANCH   4   7
BRANCH   1  18
ATOM     17  N   UNL     1       2.122  -2.633   1.110  0.00  0.00    -0.304 N 
ATOM     18  C   UNL     1       1.675  -2.645   2.381  0.00  0.00    +0.245 C 
ATOM     19  O   UNL     1       0.541  -2.285   2.630  0.00  0.00    -0.270 OA
ATOM     20  H   UNL     1       3.027  -2.920   0.911  0.00  0.00    +0.150 HD
BRANCH  17  27
ATOM     21  C   UNL     1       2.624   0.050  -2.690  0.00  0.00    +0.001 A 
ATOM     22  C   UNL     1       3.656  -0.726  -3.185  0.00  0.00    +0.004 A 
ATOM     23  C   UNL     1       3.895  -1.982  -2.661  0.00  0.00    +0.046 A 
ATOM     24  C   UNL     1       3.095  -2.460  -1.630  0.00  0.00    +0.125 A 
ATOM     25  C   UNL     1       2.077  -1.676  -1.131  0.00  0.00    +0.014 A 
ATOM     26  C   UNL     1       1.830  -0.425  -1.661  0.00  0.00    +0.009 A 
ATOM     27  C   UNL     1       1.241  -2.186   0.028  0.00  0.00    +0.107 C 
ATOM     28  C   UNL     1       0.389  -3.357  -0.461  0.00  0.00    +0.030 C 
ATOM     29  C   UNL     1       1.187  -4.653  -0.437  0.00  0.00    +0.043 C 
ATOM     30  C   UNL     1       2.316  -4.684  -1.445  0.00  0.00    +0.229 C 
ATOM     31  O   UNL     1       3.313  -3.707  -1.128  0.00  0.00    -0.492 OA
ENDBRANCH  17  27
ENDBRANCH   1  18
TORSDOF 5
