REMARK  Name = ZINC12726680
REMARK  9 active torsions:
REMARK  status: ('A' for Active; 'I' for Inactive)
REMARK    1  A    between atoms: C_1  and  C_2
REMARK    2  A    between atoms: C_9  and  C_21
REMARK    3  A    between atoms: C_10  and  O_12
REMARK    4  A    between atoms: O_12  and  C_13
REMARK    5  A    between atoms: C_13  and  C_14
REMARK    6  A    between atoms: C_21  and  N_51
REMARK    7  A    between atoms: C_22  and  C_24
REMARK    8  A    between atoms: C_22  and  C_25
REMARK    9  A    between atoms: C_22  and  N_51
REMARK                            x       y       z     vdW  Elec       q    Type
REMARK                         _______ _______ _______ _____ _____    ______ ____
ROOT
ATOM      1  C   UNL     1      -3.579   6.493   0.070  0.00  0.00    +0.044 C 
ATOM      2  C   UNL     1      -2.305   5.689   0.053  0.00  0.00    -0.050 A 
ATOM      3  C   UNL     1      -1.077   6.347   0.046  0.00  0.00    +0.005 A 
ATOM      4  C   UNL     1       0.092   5.650   0.032  0.00  0.00    +0.029 A 
ATOM      5  C   UNL     1       0.067   4.245   0.025  0.00  0.00    +0.075 A 
ATOM      6  C   UNL     1      -1.182   3.578   0.033  0.00  0.00    +0.001 A 
ATOM      7  C   UNL     1      -2.369   4.329   0.047  0.00  0.00    +0.013 A 
ATOM      8  C   UNL     1      -1.208   2.169   0.020  0.00  0.00    +0.017 A 
ATOM      9  C   UNL     1      -0.018   1.503   0.010  0.00  0.00    -0.002 A 
ATOM     10  C   UNL     1       1.184   2.220   0.003  0.00  0.00    +0.217 A 
ATOM     11  N   UNL     1       1.201   3.536   0.010  0.00  0.00    -0.213 NA
ENDROOT
BRANCH  10  12
ATOM     12  O   UNL     1       2.358   1.543  -0.012  0.00  0.00    -0.471 OA
BRANCH  12  13
ATOM     13  C   UNL     1       3.556   2.322  -0.019  0.00  0.00    +0.266 C 
BRANCH  13  14
ATOM     14  C   UNL     1       4.752   1.405  -0.036  0.00  0.00    -0.008 A 
ATOM     15  C   UNL     1       5.289   0.991  -1.241  0.00  0.00    +0.007 A 
ATOM     16  C   UNL     1       6.385   0.150  -1.258  0.00  0.00    +0.003 A 
ATOM     17  C   UNL     1       6.946  -0.279  -0.069  0.00  0.00    +0.038 A 
ATOM     18  C   UNL     1       6.410   0.136   1.138  0.00  0.00    +0.124 A 
ATOM     19  C   UNL     1       5.315   0.983   1.153  0.00  0.00    +0.045 A 
ATOM     20  F   UNL     1       6.958  -0.282   2.300  0.00  0.00    -0.205 F 
ENDBRANCH  13  14
ENDBRANCH  12  13
ENDBRANCH  10  12
BRANCH   9  21
ATOM     21  C   UNL     1       0.002  -0.004   0.002  0.00  0.00    -0.040 C 
BRANCH  21  22
ATOM     22  N   UNL     1       0.264  -0.491   1.369  0.00  0.00    +0.388 N 
ATOM     23  H   UNL     1      -0.477  -0.156   1.996  0.00  0.00    -0.084 HD
ATOM     24  H   UNL     1       1.171  -0.132   1.689  0.00  0.00    -0.084 HD
BRANCH  22  25
ATOM     25  C   UNL     1       0.289  -1.966   1.391  0.00  0.00    -0.007 C 
ATOM     26  C   UNL     1      -1.137  -2.500   1.541  0.00  0.00    -0.006 C 
BRANCH  25  27
ATOM     27  C   UNL     1       1.124  -2.429   2.558  0.00  0.00    +0.091 A 
ATOM     28  C   UNL     1       1.983  -3.464   2.548  0.00  0.00    +0.043 A 
ATOM     29  C   UNL     1       2.546  -3.541   3.843  0.00  0.00    +0.041 A 
ATOM     30  C   UNL     1       1.996  -2.549   4.566  0.00  0.00    +0.195 A 
ATOM     31  O   UNL     1       1.141  -1.875   3.781  0.00  0.00    -0.469 OA
ENDBRANCH  25  27
ENDBRANCH  22  25
ENDBRANCH  21  22
ENDBRANCH   9  21
TORSDOF 7
