REMARK  Name = ZINC36742908
REMARK  4 active torsions:
REMARK  status: ('A' for Active; 'I' for Inactive)
REMARK    1  A    between atoms: C_5  and  S_6
REMARK    2  A    between atoms: S_6  and  N_9
REMARK    3  A    between atoms: N_9  and  C_10
REMARK    4  A    between atoms: C_15  and  N_16
REMARK                            x       y       z     vdW  Elec       q    Type
REMARK                         _______ _______ _______ _____ _____    ______ ____
ROOT
ATOM      1  C   UNL     1      -0.791  -2.002  -2.432  0.00  0.00    +0.072 A 
ATOM      2  C   UNL     1       0.045  -3.010  -1.977  0.00  0.00    +0.076 A 
ATOM      3  C   UNL     1       0.987  -3.568  -2.827  0.00  0.00    +0.168 A 
ATOM      4  C   UNL     1       1.093  -3.118  -4.140  0.00  0.00    +0.168 A 
ATOM      5  C   UNL     1       0.257  -2.110  -4.596  0.00  0.00    +0.074 A 
ATOM      6  C   UNL     1      -0.689  -1.555  -3.748  0.00  0.00    +0.051 A 
ATOM      7  O   UNL     1       2.084  -3.820  -4.764  0.00  0.00    -0.453 OA
ATOM      8  C   UNL     1       2.857  -4.417  -3.706  0.00  0.00    +0.466 C 
ATOM      9  O   UNL     1       1.912  -4.554  -2.628  0.00  0.00    -0.453 OA
ENDROOT
BRANCH   6  10
ATOM     10  N   UNL     1      -1.538  -0.540  -4.213  0.00  0.00    -0.356 N 
ATOM     11  H   UNL     1      -2.197  -0.149  -3.618  0.00  0.00    +0.142 HD
ATOM     12  H   UNL     1      -1.467  -0.229  -5.129  0.00  0.00    +0.142 HD
ENDBRANCH   6  10
BRANCH   1  13
ATOM     13  N   UNL     1      -1.743  -1.437  -1.571  0.00  0.00    -0.214 N 
ATOM     14  H   UNL     1      -2.607  -1.161  -1.916  0.00  0.00    +0.174 HD
BRANCH  13  15
ATOM     15  S   UNL     1      -1.393  -1.240   0.035  0.00  0.00    +0.079 S 
ATOM     16  O   UNL     1      -0.974  -2.510   0.518  0.00  0.00    -0.149 OA
ATOM     17  O   UNL     1      -2.484  -0.530   0.605  0.00  0.00    -0.149 OA
BRANCH  15  22
ATOM     18  C   UNL     1       0.048   1.176   0.223  0.00  0.00    +0.038 A 
ATOM     19  C   UNL     1       1.276   1.808   0.293  0.00  0.00    +0.030 A 
ATOM     20  C   UNL     1       2.404   1.055   0.273  0.00  0.00    +0.080 A 
ATOM     21  S   UNL     1       1.742  -0.599   0.153  0.00  0.00    -0.057 S 
ATOM     22  C   UNL     1       0.008  -0.176   0.137  0.00  0.00    +0.147 A 
ATOM     23 CL   UNL     1       4.061   1.566   0.346  0.00  0.00    -0.076 Cl
ENDBRANCH  15  22
ENDBRANCH  13  15
ENDBRANCH   1  13
TORSDOF 4
