REMARK  Name = ZINC38277885
REMARK  14 active torsions:
REMARK  status: ('A' for Active; 'I' for Inactive)
REMARK    1  A    between atoms: C_1  and  C_2
REMARK    2  A    between atoms: C_2  and  C_3
REMARK    3  A    between atoms: C_2  and  C_4
REMARK    4  A    between atoms: C_2  and  C_5
REMARK    5  A    between atoms: C_7  and  C_16
REMARK    6  A    between atoms: C_9  and  C_12
REMARK    7  A    between atoms: C_10  and  O_11
REMARK    8  A    between atoms: C_12  and  C_13
REMARK    9  A    between atoms: C_12  and  C_14
REMARK   10  A    between atoms: C_12  and  C_15
REMARK   11  A    between atoms: C_18  and  C_19
REMARK   12  A    between atoms: C_19  and  C_20
REMARK   13  A    between atoms: N_31  and  C_32
REMARK   14  A    between atoms: C_32  and  C_33
REMARK                            x       y       z     vdW  Elec       q    Type
REMARK                         _______ _______ _______ _____ _____    ______ ____
ROOT
ATOM      1  C   UNL     1       1.513   0.986  -4.865  0.00  0.00    +0.145 C 
ATOM      2  C   UNL     1       0.554   1.160  -6.019  0.00  0.00    +0.076 C 
ATOM      3  C   UNL     1       1.262   0.943  -7.152  0.00  0.00    +0.249 C 
ATOM      4  O   UNL     1       0.768   1.004  -8.410  0.00  0.00    -0.282 OA
ATOM      5  C   UNL     1       2.662   0.628  -6.796  0.00  0.00    +0.288 C 
ATOM      6  O   UNL     1       3.546   0.384  -7.593  0.00  0.00    -0.266 OA
ATOM      7  N   UNL     1       2.812   0.652  -5.460  0.00  0.00    -0.281 N 
ENDROOT
BRANCH   1  10
ATOM      8  C   UNL     1       0.498  -0.953  -1.789  0.00  0.00    +0.000 A 
ATOM      9  C   UNL     1       0.924   0.073  -2.610  0.00  0.00    +0.013 A 
ATOM     10  C   UNL     1       1.049  -0.136  -3.971  0.00  0.00    -0.022 A 
ATOM     11  C   UNL     1       0.748  -1.371  -4.514  0.00  0.00    +0.013 A 
ATOM     12  C   UNL     1       0.323  -2.401  -3.697  0.00  0.00    +0.000 A 
ATOM     13  C   UNL     1       0.202  -2.195  -2.330  0.00  0.00    +0.124 A 
BRANCH   8  15
ATOM     14  C   UNL     1       0.769   0.712   0.029  0.00  0.00    +0.015 C 
ATOM     15  C   UNL     1       0.362  -0.724  -0.306  0.00  0.00    -0.009 C 
ATOM     16  C   UNL     1       1.271  -1.699   0.446  0.00  0.00    +0.015 C 
ATOM     17  C   UNL     1      -1.091  -0.954   0.115  0.00  0.00    +0.015 C 
ENDBRANCH   8  15
BRANCH  12  18
ATOM     18  C   UNL     1      -0.005  -3.747  -4.289  0.00  0.00    -0.009 C 
ATOM     19  C   UNL     1       0.265  -3.722  -5.795  0.00  0.00    +0.015 C 
ATOM     20  C   UNL     1       0.868  -4.819  -3.632  0.00  0.00    +0.015 C 
ATOM     21  C   UNL     1      -1.480  -4.069  -4.041  0.00  0.00    +0.015 C 
ENDBRANCH  12  18
BRANCH  13  22
ATOM     22  O   UNL     1      -0.211  -3.208  -1.524  0.00  0.00    -0.506 OA
ATOM     23  H   UNL     1      -1.170  -3.251  -1.405  0.00  0.00    +0.292 HD
ENDBRANCH  13  22
ENDBRANCH   1  10
BRANCH   2  24
ATOM     24  C   UNL     1      -0.869   1.501  -5.930  0.00  0.00    +0.195 C 
ATOM     25  O   UNL     1      -1.711   0.695  -6.281  0.00  0.00    -0.287 OA
BRANCH  24  26
ATOM     26  C   UNL     1      -1.282   2.824  -5.414  0.00  0.00    +0.022 A 
ATOM     27  C   UNL     1      -0.320   3.792  -5.117  0.00  0.00    +0.012 A 
ATOM     28  C   UNL     1      -0.712   5.024  -4.637  0.00  0.00    +0.001 A 
ATOM     29  C   UNL     1      -2.054   5.301  -4.447  0.00  0.00    +0.000 A 
ATOM     30  C   UNL     1      -3.013   4.346  -4.739  0.00  0.00    +0.001 A 
ATOM     31  C   UNL     1      -2.635   3.112  -5.226  0.00  0.00    +0.012 A 
ENDBRANCH  24  26
ENDBRANCH   2  24
BRANCH   7  32
ATOM     32  C   UNL     1       4.054   0.393  -4.727  0.00  0.00    +0.140 C 
BRANCH  32  33
ATOM     33  C   UNL     1       4.229  -1.116  -4.538  0.00  0.00    +0.136 C 
ATOM     34  C   UNL     1       5.573  -1.417  -3.829  0.00  0.00    +0.035 C 
ATOM     35  C   UNL     1       5.263  -2.793  -3.181  0.00  0.00    +0.031 C 
ATOM     36  C   UNL     1       3.766  -2.660  -2.829  0.00  0.00    +0.160 C 
ATOM     37  O   UNL     1       3.215  -1.628  -3.658  0.00  0.00    -0.375 OA
ENDBRANCH  32  33
ENDBRANCH   7  32
TORSDOF 8
