REMARK  Name = ZINC20906909
REMARK  10 active torsions:
REMARK  status: ('A' for Active; 'I' for Inactive)
REMARK    1  A    between atoms: C_1  and  C_2
REMARK    2  A    between atoms: C_2  and  O_3
REMARK    3  A    between atoms: O_3  and  C_4
REMARK    4  A    between atoms: C_7  and  N_10
REMARK    5  A    between atoms: C_11  and  C_13
REMARK    6  A    between atoms: C_13  and  S_14
REMARK    7  A    between atoms: S_14  and  C_15
REMARK    8  A    between atoms: N_20  and  N_21
REMARK    9  A    between atoms: C_22  and  C_23
REMARK   10  A    between atoms: C_32  and  O_33
REMARK                            x       y       z     vdW  Elec       q    Type
REMARK                         _______ _______ _______ _____ _____    ______ ____
ROOT
ATOM      1  C   UNL     1      -3.233  11.553   0.107  0.00  0.00    +0.211 A 
ATOM      2  N   UNL     1      -3.663  10.256   0.104  0.00  0.00    -0.186 NA
ATOM      3  C   UNL     1      -2.562   9.445   0.099  0.00  0.00    +0.232 A 
ATOM      4  N   UNL     1      -1.497  10.209   0.105  0.00  0.00    -0.245 N 
ATOM      5  N   UNL     1      -1.921  11.544   0.105  0.00  0.00    -0.144 NA
ATOM      6  N   UNL     1      -2.571   8.059   0.095  0.00  0.00    -0.205 N 
ATOM      7  H   UNL     1      -3.528   7.515   0.096  0.00  0.00    +0.177 HD
ATOM      8  H   UNL     1      -0.495   9.755   0.108  0.00  0.00    +0.192 HD
ENDROOT
BRANCH   6   9
ATOM      9  N   UNL     1      -1.363   7.350   0.090  0.00  0.00    -0.187 NA
ATOM     10  C   UNL     1      -1.371   6.050   0.087  0.00  0.00    +0.142 C 
BRANCH  10  11
ATOM     11  C   UNL     1      -0.103   5.307   0.082  0.00  0.00    +0.044 A 
ATOM     12  C   UNL     1      -0.094   3.845   0.078  0.00  0.00    -0.006 A 
ATOM     13  C   UNL     1      -1.284   3.107   0.078  0.00  0.00    +0.009 A 
ATOM     14  C   UNL     1      -1.232   1.745   0.069  0.00  0.00    +0.001 A 
ATOM     15  C   UNL     1      -0.011   1.076   0.070  0.00  0.00    +0.001 A 
ATOM     16  C   UNL     1       1.165   1.762   0.069  0.00  0.00    +0.008 A 
ATOM     17  C   UNL     1       1.150   3.168   0.073  0.00  0.00    -0.017 A 
ATOM     18  C   UNL     1       2.343   3.911   0.072  0.00  0.00    +0.012 A 
ATOM     19  C   UNL     1       2.317   5.270   0.076  0.00  0.00    +0.046 A 
ATOM     20  C   UNL     1       1.118   5.981   0.081  0.00  0.00    +0.126 A 
BRANCH  20  21
ATOM     21  O   UNL     1       1.139   7.339   0.085  0.00  0.00    -0.506 OA
ATOM     22  H   UNL     1       2.099   7.874   0.084  0.00  0.00    +0.292 HD
ENDBRANCH  20  21
ENDBRANCH  10  11
ENDBRANCH   6   9
BRANCH   1  23
ATOM     23  S   UNL     1      -4.260  12.985   0.113  0.00  0.00    -0.075 S 
BRANCH  23  24
ATOM     24  C   UNL     1      -3.085  14.367   0.116  0.00  0.00    +0.173 C 
BRANCH  24  26
ATOM     25  N   UNL     1      -3.171  16.839   0.124  0.00  0.00    -0.285 N 
ATOM     26  C   UNL     1      -3.842  15.670   0.121  0.00  0.00    +0.227 C 
ATOM     27  O   UNL     1      -5.055  15.666   0.123  0.00  0.00    -0.275 OA
ATOM     28  H   UNL     1      -2.074  16.843   0.199  0.00  0.00    +0.155 HD
BRANCH  25  32
ATOM     29  C   UNL     1      -5.256  20.440  -0.151  0.00  0.00    +0.121 A 
ATOM     30  C   UNL     1      -5.806  19.371   0.543  0.00  0.00    +0.047 A 
ATOM     31  C   UNL     1      -5.116  18.179   0.634  0.00  0.00    +0.027 A 
ATOM     32  C   UNL     1      -3.872  18.049   0.031  0.00  0.00    +0.034 A 
ATOM     33  C   UNL     1      -3.321  19.120  -0.659  0.00  0.00    +0.027 A 
ATOM     34  C   UNL     1      -4.014  20.310  -0.754  0.00  0.00    +0.047 A 
BRANCH  29  35
ATOM     35  O   UNL     1      -5.936  21.614  -0.240  0.00  0.00    -0.492 OA
BRANCH  35  37
ATOM     36  C   UNL     1      -6.218  23.903  -0.962  0.00  0.00    +0.048 C 
ATOM     37  C   UNL     1      -5.311  22.672  -0.970  0.00  0.00    +0.225 C 
ENDBRANCH  35  37
ENDBRANCH  29  35
ENDBRANCH  25  32
ENDBRANCH  24  26
ENDBRANCH  23  24
ENDBRANCH   1  23
TORSDOF 9
