REMARK  Name = ZINC45166336
REMARK  3 active torsions:
REMARK  status: ('A' for Active; 'I' for Inactive)
REMARK    1  A    between atoms: N_7  and  S_11
REMARK    2  A    between atoms: S_11  and  C_14
REMARK    3  A    between atoms: C_15  and  N_21
REMARK                            x       y       z     vdW  Elec       q    Type
REMARK                         _______ _______ _______ _____ _____    ______ ____
ROOT
ATOM      1  S   UNL     1      -0.118  -2.957   0.336  0.00  0.00    +0.078 S 
ATOM      2  O   UNL     1       0.393  -4.247   0.640  0.00  0.00    -0.150 OA
ATOM      3  O   UNL     1      -0.936  -2.228   1.242  0.00  0.00    -0.150 OA
ENDROOT
BRANCH   1  10
ATOM      4  C   UNL     1      -0.265   1.384   0.024  0.00  0.00    +0.002 A 
ATOM      5  C   UNL     1       0.879   2.161   0.033  0.00  0.00    +0.004 A 
ATOM      6  C   UNL     1       2.127   1.565   0.028  0.00  0.00    +0.047 A 
ATOM      7  C   UNL     1       2.237   0.183   0.015  0.00  0.00    +0.143 A 
ATOM      8  C   UNL     1       1.084  -0.597   0.009  0.00  0.00    +0.093 A 
ATOM      9  C   UNL     1      -0.165   0.005   0.012  0.00  0.00    +0.028 A 
ATOM     10  N   UNL     1       1.190  -1.997   0.003  0.00  0.00    -0.196 N 
ATOM     11  C   UNL     1       2.505  -2.582  -0.310  0.00  0.00    +0.172 C 
ATOM     12  C   UNL     1       3.568  -1.756   0.428  0.00  0.00    +0.250 C 
ATOM     13  O   UNL     1       3.467  -0.394   0.005  0.00  0.00    -0.488 OA
ENDBRANCH   1  10
BRANCH   1  14
ATOM     14  C   UNL     1      -1.040  -3.119  -1.157  0.00  0.00    +0.147 A 
ATOM     15  C   UNL     1      -0.516  -3.840  -2.223  0.00  0.00    +0.053 A 
ATOM     16  C   UNL     1      -1.246  -3.965  -3.398  0.00  0.00    +0.025 A 
ATOM     17  C   UNL     1      -2.489  -3.372  -3.504  0.00  0.00    +0.003 A 
ATOM     18  C   UNL     1      -3.008  -2.655  -2.442  0.00  0.00    +0.022 A 
ATOM     19  C   UNL     1      -2.286  -2.533  -1.267  0.00  0.00    +0.069 A 
ATOM     20 CL   UNL     1      -2.945  -1.638   0.067  0.00  0.00    -0.081 Cl
BRANCH  15  21
ATOM     21  N   UNL     1       0.742  -4.437  -2.113  0.00  0.00    -0.356 N 
ATOM     22  H   UNL     1       1.218  -4.413  -1.268  0.00  0.00    +0.142 HD
ATOM     23  H   UNL     1       1.138  -4.877  -2.881  0.00  0.00    +0.142 HD
ENDBRANCH  15  21
ENDBRANCH   1  14
TORSDOF 3
