REMARK  Name = ZINC66348642
REMARK  3 active torsions:
REMARK  status: ('A' for Active; 'I' for Inactive)
REMARK    1  A    between atoms: C_6  and  C_7
REMARK    2  A    between atoms: C_7  and  C_9
REMARK    3  A    between atoms: C_7  and  N_14
REMARK                            x       y       z     vdW  Elec       q    Type
REMARK                         _______ _______ _______ _____ _____    ______ ____
ROOT
ATOM      1  C   UNL     1      -1.293  -0.777   0.008  0.00  0.00    +0.136 C 
ENDROOT
BRANCH   1   2
ATOM      2  N   UNL     1      -1.163  -1.940   0.890  0.00  0.00    -0.288 N 
ATOM      3  C   UNL     1      -2.258  -2.480   1.459  0.00  0.00    +0.303 C 
ATOM      4  O   UNL     1      -3.343  -1.950   1.315  0.00  0.00    -0.253 OA
ATOM      5  N   UNL     1      -2.152  -3.610   2.186  0.00  0.00    -0.284 N 
ATOM      6  C   UNL     1      -0.829  -4.177   2.452  0.00  0.00    +0.120 C 
ATOM      7  C   UNL     1      -0.530  -4.096   3.954  0.00  0.00    +0.088 C 
ATOM      8  S   UNL     1      -1.847  -4.968   4.855  0.00  0.00    -0.158 S 
ATOM      9  C   UNL     1      -3.364  -4.183   4.233  0.00  0.00    +0.088 C 
ATOM     10  C   UNL     1      -3.360  -4.251   2.707  0.00  0.00    +0.120 C 
ATOM     11  H   UNL     1      -0.288  -2.320   1.064  0.00  0.00    +0.151 HD
ENDBRANCH   1   2
BRANCH   1  17
ATOM     12  C   UNL     1      -0.017   1.376   0.003  0.00  0.00    +0.007 A 
ATOM     13  C   UNL     1       1.170   2.083  -0.006  0.00  0.00    +0.020 A 
ATOM     14  C   UNL     1       2.377   1.408  -0.021  0.00  0.00    +0.041 A 
ATOM     15  C   UNL     1       2.396   0.025  -0.026  0.00  0.00    +0.020 A 
ATOM     16  C   UNL     1       1.208  -0.682  -0.017  0.00  0.00    +0.007 A 
ATOM     17  C   UNL     1       0.002  -0.006  -0.003  0.00  0.00    -0.023 A 
ATOM     18 CL   UNL     1       3.869   2.296  -0.033  0.00  0.00    -0.084 Cl
ENDBRANCH   1  17
BRANCH   1  19
ATOM     19  C   UNL     1      -1.613  -1.240  -1.390  0.00  0.00    -0.016 A 
ATOM     20  C   UNL     1      -2.524  -0.549  -2.167  0.00  0.00    +0.013 A 
ATOM     21  C   UNL     1      -2.790  -0.993  -3.420  0.00  0.00    +0.045 A 
ATOM     22  S   UNL     1      -1.735  -2.429  -3.534  0.00  0.00    -0.105 S 
ATOM     23  C   UNL     1      -1.008  -2.338  -1.906  0.00  0.00    +0.051 A 
ENDBRANCH   1  19
TORSDOF 3
