REMARK  Name = ZINC45489318
REMARK  7 active torsions:
REMARK  status: ('A' for Active; 'I' for Inactive)
REMARK    1  A    between atoms: C_1  and  C_2
REMARK    2  A    between atoms: C_4  and  C_7
REMARK    3  A    between atoms: C_7  and  C_8
REMARK    4  A    between atoms: C_8  and  N_9
REMARK    5  A    between atoms: N_12  and  C_13
REMARK    6  A    between atoms: N_12  and  C_14
REMARK    7  A    between atoms: C_14  and  C_15
REMARK                            x       y       z     vdW  Elec       q    Type
REMARK                         _______ _______ _______ _____ _____    ______ ____
ROOT
ATOM      1  N   UNL     1      -4.045  -3.712   1.182  0.00  0.00    -0.299 N 
ATOM      2  C   UNL     1      -4.987  -3.626   2.143  0.00  0.00    +0.302 C 
ATOM      3  O   UNL     1      -4.896  -2.778   3.009  0.00  0.00    -0.253 OA
ATOM      4  N   UNL     1      -6.029  -4.481   2.143  0.00  0.00    -0.281 N 
ATOM      5  C   UNL     1      -6.138  -5.503   1.099  0.00  0.00    +0.134 C 
ATOM      6  H   UNL     1      -4.118  -4.388   0.491  0.00  0.00    +0.150 HD
ENDROOT
BRANCH   1   7
ATOM      7  C   UNL     1      -2.913  -2.783   1.182  0.00  0.00    +0.112 C 
BRANCH   7   8
ATOM      8  C   UNL     1      -1.999  -3.093  -0.006  0.00  0.00    +0.074 C 
BRANCH   8  12
ATOM      9  C   UNL     1      -0.018   1.503   0.010  0.00  0.00    +0.073 C 
ATOM     10  C   UNL     1       0.002  -0.004   0.002  0.00  0.00    +0.075 A 
ATOM     11  N   UNL     1      -1.013  -0.832   0.002  0.00  0.00    -0.249 NA
ATOM     12  C   UNL     1      -0.834  -2.137  -0.006  0.00  0.00    +0.050 A 
ATOM     13  C   UNL     1       0.449  -2.582  -0.014  0.00  0.00    +0.070 A 
ATOM     14  S   UNL     1       1.335  -1.032  -0.017  0.00  0.00    -0.081 S 
ENDBRANCH   8  12
ENDBRANCH   7   8
ENDBRANCH   1   7
BRANCH   4  15
ATOM     15  C   UNL     1      -7.052  -4.388   3.188  0.00  0.00    +0.183 C 
BRANCH  15  16
ATOM     16  C   UNL     1      -8.145  -3.452   2.739  0.00  0.00    +0.122 A 
ATOM     17  C   UNL     1      -9.252  -3.803   2.060  0.00  0.00    +0.046 A 
ATOM     18  C   UNL     1      -9.995  -2.619   1.848  0.00  0.00    +0.041 A 
ATOM     19  C   UNL     1      -9.298  -1.615   2.410  0.00  0.00    +0.195 A 
ATOM     20  O   UNL     1      -8.181  -2.126   2.953  0.00  0.00    -0.466 OA
ENDBRANCH  15  16
ENDBRANCH   4  15
TORSDOF 5
