REMARK  Name = ZINC51999488
REMARK  4 active torsions:
REMARK  status: ('A' for Active; 'I' for Inactive)
REMARK    1  A    between atoms: C_5  and  N_17
REMARK    2  A    between atoms: C_6  and  N_7
REMARK    3  A    between atoms: N_7  and  C_8
REMARK    4  A    between atoms: C_14  and  O_16
REMARK                            x       y       z     vdW  Elec       q    Type
REMARK                         _______ _______ _______ _____ _____    ______ ____
ROOT
ATOM      1  C   UNL     1      -0.017   1.387   0.010  0.00  0.00    +0.026 A 
ATOM      2  C   UNL     1       1.177   2.085   0.002  0.00  0.00    +0.019 A 
ATOM      3  C   UNL     1       2.367   1.398  -0.013  0.00  0.00    +0.041 A 
ATOM      4  C   UNL     1       2.429  -0.013  -0.021  0.00  0.00    +0.100 A 
ATOM      5  C   UNL     1       1.195  -0.705  -0.013  0.00  0.00    +0.073 A 
ATOM      6  C   UNL     1       0.002  -0.004   0.002  0.00  0.00    +0.051 A 
ATOM      7  N   UNL     1       3.689  -0.495  -0.036  0.00  0.00    -0.246 NA
ATOM      8  C   UNL     1       4.729   0.286  -0.042  0.00  0.00    +0.157 A 
ATOM      9  S   UNL     1       4.085   1.841  -0.028  0.00  0.00    -0.075 S 
ENDROOT
BRANCH   5  10
ATOM     10  N   UNL     1       1.180  -2.106  -0.020  0.00  0.00    -0.355 N 
ATOM     11  H   UNL     1       2.015  -2.599  -0.031  0.00  0.00    +0.142 HD
ATOM     12  H   UNL     1       0.335  -2.582  -0.014  0.00  0.00    +0.142 HD
ENDBRANCH   5  10
BRANCH   6  13
ATOM     13  N   UNL     1      -1.212  -0.710   0.010  0.00  0.00    -0.337 N 
ATOM     14  H   UNL     1      -1.209  -1.679   0.005  0.00  0.00    +0.146 HD
BRANCH  13  15
ATOM     15  C   UNL     1      -2.482   0.019   0.027  0.00  0.00    +0.099 C 
ATOM     16  C   UNL     1      -2.848   0.374   1.470  0.00  0.00    +0.025 C 
ATOM     17  C   UNL     1      -4.175   1.135   1.487  0.00  0.00    +0.002 C 
ATOM     18  C   UNL     1      -5.274   0.258   0.883  0.00  0.00    +0.003 C 
ATOM     19  C   UNL     1      -4.908  -0.097  -0.559  0.00  0.00    +0.033 C 
ATOM     20  C   UNL     1      -3.581  -0.858  -0.577  0.00  0.00    +0.135 C 
BRANCH  20  21
ATOM     21  O   UNL     1      -3.240  -1.190  -1.924  0.00  0.00    -0.390 OA
ATOM     22  H   UNL     1      -3.893  -1.745  -2.370  0.00  0.00    +0.210 HD
ENDBRANCH  20  21
ENDBRANCH  13  15
ENDBRANCH   6  13
TORSDOF 4
