REMARK  Name = ZINC66420790
REMARK  6 active torsions:
REMARK  status: ('A' for Active; 'I' for Inactive)
REMARK    1  A    between atoms: C_1  and  C_2
REMARK    2  A    between atoms: C_7  and  N_10
REMARK    3  A    between atoms: C_11  and  C_13
REMARK    4  A    between atoms: C_13  and  N_14
REMARK    5  A    between atoms: C_20  and  C_22
REMARK    6  A    between atoms: C_22  and  N_23
REMARK                            x       y       z     vdW  Elec       q    Type
REMARK                         _______ _______ _______ _____ _____    ______ ____
ROOT
ATOM      1  N   UNL     1       3.330  -5.577   3.359  0.00  0.00    -0.291 NA
ATOM      2  C   UNL     1       4.367  -5.526   2.321  0.00  0.00    +0.104 C 
ATOM      3  C   UNL     1       4.779  -6.952   1.943  0.00  0.00    +0.123 C 
ATOM      4  N   UNL     1       5.162  -7.668   3.170  0.00  0.00    -0.298 N 
ATOM      5  C   UNL     1       4.229  -7.649   4.307  0.00  0.00    +0.123 C 
ATOM      6  C   UNL     1       3.839  -6.194   4.591  0.00  0.00    +0.104 C 
ATOM      7  C   UNL     1       6.336  -8.325   3.249  0.00  0.00    +0.233 C 
ATOM      8  O   UNL     1       7.093  -8.331   2.302  0.00  0.00    -0.274 OA
ENDROOT
BRANCH   1   9
ATOM      9  C   UNL     1       2.785  -4.239   3.627  0.00  0.00    +0.180 C 
BRANCH   9  11
ATOM     10  N   UNL     1       1.471  -2.526   2.420  0.00  0.00    -0.311 N 
ATOM     11  C   UNL     1       2.056  -3.740   2.406  0.00  0.00    +0.227 C 
ATOM     12  O   UNL     1       1.996  -4.431   1.411  0.00  0.00    -0.274 OA
ATOM     13  H   UNL     1       1.520  -1.974   3.216  0.00  0.00    +0.149 HD
BRANCH  10  19
ATOM     14  C   UNL     1      -0.019   1.526   0.010  0.00  0.00    +0.007 C 
ATOM     15  C   UNL     1       0.002  -0.004   0.002  0.00  0.00    -0.012 C 
ATOM     16  C   UNL     1      -1.433  -0.534   0.013  0.00  0.00    +0.003 C 
ATOM     17  C   UNL     1      -1.413  -2.063   0.004  0.00  0.00    +0.002 C 
ATOM     18  C   UNL     1      -0.673  -2.570   1.244  0.00  0.00    +0.022 C 
ATOM     19  C   UNL     1       0.763  -2.041   1.233  0.00  0.00    +0.073 C 
ATOM     20  C   UNL     1       0.742  -0.511   1.242  0.00  0.00    +0.025 C 
ENDBRANCH  10  19
ENDBRANCH   9  11
ENDBRANCH   1   9
BRANCH   7  21
ATOM     21  C   UNL     1       6.708  -9.053   4.516  0.00  0.00    +0.205 C 
BRANCH  21  22
ATOM     22  N   UNL     1       8.021  -9.681   4.350  0.00  0.00    -0.277 N 
ATOM     23  C   UNL     1       8.102 -11.043   3.821  0.00  0.00    +0.111 C 
ATOM     24  C   UNL     1       9.431 -11.216   3.079  0.00  0.00    +0.038 C 
ATOM     25  C   UNL     1      10.574 -10.855   4.034  0.00  0.00    +0.107 C 
ATOM     26  N   UNL     1      10.359  -9.503   4.551  0.00  0.00    -0.299 N 
ATOM     27  C   UNL     1       9.124  -8.994   4.681  0.00  0.00    +0.303 C 
ATOM     28  O   UNL     1       9.001  -7.867   5.121  0.00  0.00    -0.253 OA
ATOM     29  H   UNL     1      11.124  -8.962   4.801  0.00  0.00    +0.150 HD
ENDBRANCH  21  22
ENDBRANCH   7  21
TORSDOF 5
