REMARK  Name = ZINC55826333
REMARK  5 active torsions:
REMARK  status: ('A' for Active; 'I' for Inactive)
REMARK    1  A    between atoms: C_1  and  C_2
REMARK    2  A    between atoms: C_8  and  C_12
REMARK    3  A    between atoms: C_12  and  N_13
REMARK    4  A    between atoms: N_13  and  C_14
REMARK    5  A    between atoms: C_18  and  N_20
REMARK                            x       y       z     vdW  Elec       q    Type
REMARK                         _______ _______ _______ _____ _____    ______ ____
ROOT
ATOM      1  C   UNL     1       0.366  -6.315  -0.036  0.00  0.00    +0.157 C 
ENDROOT
BRANCH   1   9
ATOM      2  C   UNL     1      -0.018   1.503   0.010  0.00  0.00    +0.075 C 
ATOM      3  C   UNL     1       0.002  -0.004   0.002  0.00  0.00    +0.099 A 
ATOM      4  N   UNL     1      -0.997  -0.834   0.002  0.00  0.00    -0.159 NA
ATOM      5  N   UNL     1      -0.801  -2.212  -0.007  0.00  0.00    -0.171 N 
ATOM      6  C   UNL     1      -1.762  -3.182  -0.009  0.00  0.00    +0.275 A 
ATOM      7  O   UNL     1      -2.943  -2.873  -0.002  0.00  0.00    -0.266 OA
ATOM      8  C   UNL     1      -1.391  -4.527  -0.018  0.00  0.00    +0.097 A 
ATOM      9  C   UNL     1      -0.055  -4.869  -0.026  0.00  0.00    +0.066 A 
ATOM     10  N   UNL     1       0.855  -3.898  -0.024  0.00  0.00    -0.225 NA
ATOM     11  C   UNL     1       0.499  -2.639  -0.015  0.00  0.00    +0.199 A 
ATOM     12  S   UNL     1       1.406  -1.108  -0.018  0.00  0.00    -0.033 S 
ENDBRANCH   1   9
BRANCH   1  13
ATOM     13  N   UNL     1       1.058  -6.614  -1.293  0.00  0.00    -0.338 N 
ATOM     14  H   UNL     1       1.177  -5.918  -1.958  0.00  0.00    +0.146 HD
BRANCH  13  15
ATOM     15  C   UNL     1       1.545  -7.901  -1.534  0.00  0.00    +0.030 A 
ATOM     16  C   UNL     1       1.369  -8.901  -0.585  0.00  0.00    +0.024 A 
ATOM     17  C   UNL     1       1.851 -10.172  -0.826  0.00  0.00    +0.024 A 
ATOM     18  C   UNL     1       2.509 -10.451  -2.011  0.00  0.00    +0.071 A 
ATOM     19  C   UNL     1       2.686  -9.457  -2.957  0.00  0.00    +0.146 A 
ATOM     20  C   UNL     1       2.200  -8.186  -2.725  0.00  0.00    +0.057 A 
ATOM     21 CL   UNL     1       3.114 -12.050  -2.310  0.00  0.00    -0.081 Cl
BRANCH  19  22
ATOM     22  N   UNL     1       3.391  -9.760  -4.223  0.00  0.00    +0.058 N 
ATOM     23  O   UNL     1       3.546  -8.892  -5.051  0.00  0.00    -0.126 OA
ATOM     24  O   UNL     1       3.812 -10.874  -4.430  0.00  0.00    -0.126 OA
ENDBRANCH  19  22
ENDBRANCH  13  15
ENDBRANCH   1  13
TORSDOF 4
