REMARK  Name = ZINC21080113
REMARK  9 active torsions:
REMARK  status: ('A' for Active; 'I' for Inactive)
REMARK    1  A    between atoms: C_3  and  N_10
REMARK    2  A    between atoms: C_5  and  N_7
REMARK    3  A    between atoms: C_11  and  C_13
REMARK    4  A    between atoms: C_13  and  C_14
REMARK    5  A    between atoms: C_14  and  S_15
REMARK    6  A    between atoms: S_15  and  C_16
REMARK    7  A    between atoms: N_21  and  N_22
REMARK    8  A    between atoms: C_23  and  C_24
REMARK    9  A    between atoms: C_29  and  O_30
REMARK                            x       y       z     vdW  Elec       q    Type
REMARK                         _______ _______ _______ _____ _____    ______ ____
ROOT
ATOM      1  C   UNL     1       4.160  10.221   0.577  0.00  0.00    +0.210 A 
ATOM      2  N   UNL     1       4.649  11.491   0.697  0.00  0.00    -0.186 NA
ATOM      3  C   UNL     1       6.013  11.416   0.736  0.00  0.00    +0.232 A 
ATOM      4  N   UNL     1       6.353  10.153   0.644  0.00  0.00    -0.245 N 
ATOM      5  N   UNL     1       5.179   9.395   0.549  0.00  0.00    -0.144 NA
ATOM      6  N   UNL     1       6.886  12.489   0.852  0.00  0.00    -0.205 N 
ATOM      7  H   UNL     1       6.491  13.513   0.922  0.00  0.00    +0.177 HD
ATOM      8  H   UNL     1       7.415   9.867   0.653  0.00  0.00    +0.192 HD
ENDROOT
BRANCH   6   9
ATOM      9  N   UNL     1       8.268  12.267   0.880  0.00  0.00    -0.187 NA
ATOM     10  C   UNL     1       9.085  13.271   0.989  0.00  0.00    +0.142 C 
BRANCH  10  11
ATOM     11  C   UNL     1      10.540  13.038   1.018  0.00  0.00    +0.037 A 
ATOM     12  C   UNL     1      11.421  14.115   1.135  0.00  0.00    +0.028 A 
ATOM     13  C   UNL     1      12.783  13.890   1.162  0.00  0.00    +0.019 A 
ATOM     14  C   UNL     1      13.278  12.599   1.074  0.00  0.00    +0.019 A 
ATOM     15  C   UNL     1      12.415  11.525   0.958  0.00  0.00    +0.047 A 
ATOM     16  C   UNL     1      11.046  11.734   0.935  0.00  0.00    +0.126 A 
ATOM     17 BR   UNL     1      13.976  15.348   1.320  0.00  0.00    -0.050 Br
BRANCH  16  18
ATOM     18  O   UNL     1      10.198  10.678   0.828  0.00  0.00    -0.506 OA
ATOM     19  H   UNL     1      10.597   9.656   0.763  0.00  0.00    +0.292 HD
ENDBRANCH  16  18
ENDBRANCH  10  11
ENDBRANCH   6   9
BRANCH   1  20
ATOM     20  S   UNL     1       2.459   9.770   0.484  0.00  0.00    -0.084 S 
BRANCH  20  21
ATOM     21  C   UNL     1       2.491   7.962   0.337  0.00  0.00    +0.086 C 
BRANCH  21  22
ATOM     22  C   UNL     1       1.059   7.432   0.247  0.00  0.00    +0.107 C 
BRANCH  22  24
ATOM     23  N   UNL     1      -0.069   5.242   0.030  0.00  0.00    -0.285 N 
ATOM     24  C   UNL     1       1.085   5.931   0.125  0.00  0.00    +0.218 C 
ATOM     25  O   UNL     1       2.146   5.342   0.112  0.00  0.00    -0.275 OA
ATOM     26  H   UNL     1      -1.026   5.779  -0.045  0.00  0.00    +0.155 HD
BRANCH  23  29
ATOM     27  C   UNL     1       0.922   1.777   0.762  0.00  0.00    +0.004 A 
ATOM     28  C   UNL     1       0.907   3.158   0.766  0.00  0.00    +0.023 A 
ATOM     29  C   UNL     1      -0.051   3.842   0.029  0.00  0.00    +0.036 A 
ATOM     30  C   UNL     1      -0.990   3.135  -0.710  0.00  0.00    +0.056 A 
ATOM     31  C   UNL     1      -0.966   1.754  -0.715  0.00  0.00    +0.128 A 
ATOM     32  C   UNL     1      -0.014   1.076   0.025  0.00  0.00    +0.033 A 
BRANCH  31  33
ATOM     33  N   UNL     1      -1.962   1.000  -1.507  0.00  0.00    +0.056 N 
ATOM     34  O   UNL     1      -1.944  -0.218  -1.507  0.00  0.00    -0.126 OA
ATOM     35  O   UNL     1      -2.801   1.597  -2.159  0.00  0.00    -0.126 OA
ENDBRANCH  31  33
ENDBRANCH  23  29
ENDBRANCH  22  24
ENDBRANCH  21  22
ENDBRANCH  20  21
ENDBRANCH   1  20
TORSDOF 9
