REMARK  Name = ZINC40372347
REMARK  6 active torsions:
REMARK  status: ('A' for Active; 'I' for Inactive)
REMARK    1  A    between atoms: C_1  and  C_2
REMARK    2  A    between atoms: C_3  and  C_8
REMARK    3  A    between atoms: N_6  and  C_7
REMARK    4  A    between atoms: N_10  and  C_11
REMARK    5  A    between atoms: C_11  and  C_17
REMARK    6  A    between atoms: N_18  and  O_19
REMARK                            x       y       z     vdW  Elec       q    Type
REMARK                         _______ _______ _______ _____ _____    ______ ____
ROOT
ATOM      1  C   UNL     1       0.058  -0.918  -4.951  0.00  0.00    +0.093 C 
ATOM      2  C   UNL     1       1.331  -0.198  -5.400  0.00  0.00    +0.033 C 
ATOM      3  C   UNL     1       2.549  -1.061  -5.066  0.00  0.00    +0.002 C 
ATOM      4  C   UNL     1       2.439  -2.403  -5.793  0.00  0.00    +0.000 C 
ATOM      5  C   UNL     1       1.165  -3.123  -5.345  0.00  0.00    +0.002 C 
ATOM      6  C   UNL     1      -0.053  -2.259  -5.679  0.00  0.00    +0.033 C 
ENDROOT
BRANCH   1   7
ATOM      7  C   UNL     1      -1.142  -0.068  -5.280  0.00  0.00    +0.155 C 
ATOM      8  N   UNL     1      -2.048  -0.513  -6.087  0.00  0.00    -0.075 NA
ATOM      9  N   UNL     1      -1.274   1.184  -4.721  0.00  0.00    -0.342 N 
ATOM     10  H   UNL     1      -0.640   1.485  -4.051  0.00  0.00    +0.144 HD
ATOM     11  H   UNL     1      -2.000   1.764  -4.996  0.00  0.00    +0.144 HD
BRANCH   8  12
ATOM     12  O   UNL     1      -3.175   0.286  -6.396  0.00  0.00    -0.408 OA
ATOM     13  H   UNL     1      -3.797  -0.131  -7.007  0.00  0.00    +0.328 HD
ENDBRANCH   8  12
ENDBRANCH   1   7
BRANCH   1  16
ATOM     14  C   UNL     1      -0.928  -1.737  -2.879  0.00  0.00    +0.248 C 
ATOM     15  O   UNL     1      -1.944  -1.993  -3.495  0.00  0.00    -0.270 OA
ATOM     16  N   UNL     1       0.111  -1.149  -3.506  0.00  0.00    -0.299 N 
ATOM     17  H   UNL     1       0.893  -0.880  -3.000  0.00  0.00    +0.150 HD
BRANCH  14  20
ATOM     18  C   UNL     1      -3.172  -3.104  -1.145  0.00  0.00    +0.066 C 
ATOM     19  C   UNL     1      -1.808  -2.668  -0.676  0.00  0.00    +0.048 A 
ATOM     20  C   UNL     1      -0.831  -2.069  -1.445  0.00  0.00    +0.077 A 
ATOM     21  C   UNL     1       0.278  -1.834  -0.603  0.00  0.00    +0.147 A 
ATOM     22  N   UNL     1      -0.022  -2.266   0.591  0.00  0.00    -0.179 NA
ATOM     23  N   UNL     1      -1.321  -2.787   0.570  0.00  0.00    -0.271 N 
ATOM     24  C   UNL     1      -2.030  -3.366   1.714  0.00  0.00    +0.172 C 
ENDBRANCH  14  20
ENDBRANCH   1  16
TORSDOF 4
