REMARK  Name = ZINC51754915
REMARK  12 active torsions:
REMARK  status: ('A' for Active; 'I' for Inactive)
REMARK    1  A    between atoms: C_1  and  C_2
REMARK    2  A    between atoms: C_4  and  C_28
REMARK    3  A    between atoms: C_6  and  O_8
REMARK    4  A    between atoms: O_8  and  C_9
REMARK    5  A    between atoms: C_9  and  C_10
REMARK    6  A    between atoms: N_12  and  N_13
REMARK    7  A    between atoms: N_16  and  C_17
REMARK    8  A    between atoms: C_17  and  C_18
REMARK    9  A    between atoms: C_19  and  C_27
REMARK   10  A    between atoms: C_20  and  O_25
REMARK   11  A    between atoms: C_21  and  C_24
REMARK   12  A    between atoms: O_25  and  C_26
REMARK                            x       y       z     vdW  Elec       q    Type
REMARK                         _______ _______ _______ _____ _____    ______ ____
ROOT
ATOM      1  N   UNL     1       0.080  -3.286   7.105  0.00  0.00    -0.218 N 
ATOM      2  C   UNL     1       0.079  -2.780   8.354  0.00  0.00    +0.316 C 
ATOM      3  O   UNL     1       0.094  -3.527   9.313  0.00  0.00    -0.251 OA
ATOM      4  N   UNL     1       0.062  -1.445   8.540  0.00  0.00    -0.293 N 
ATOM      5  H   UNL     1       0.093  -4.247   6.971  0.00  0.00    +0.174 HD
ATOM      6  H   UNL     1       0.050  -0.849   7.775  0.00  0.00    +0.151 HD
ENDROOT
BRANCH   1   9
ATOM      7  C   UNL     1       0.064  -2.932   4.751  0.00  0.00    +0.267 C 
ATOM      8  O   UNL     1       0.080  -4.133   4.584  0.00  0.00    -0.271 OA
ATOM      9  N   UNL     1       0.063  -2.425   6.000  0.00  0.00    -0.230 N 
ATOM     10  H   UNL     1       0.051  -1.464   6.134  0.00  0.00    +0.173 HD
BRANCH   7  11
ATOM     11  C   UNL     1       0.046  -2.005   3.563  0.00  0.00    +0.326 C 
BRANCH  11  12
ATOM     12  O   UNL     1       0.051  -2.775   2.359  0.00  0.00    -0.483 OA
BRANCH  12  18
ATOM     13  C   UNL     1      -0.018   1.503   0.010  0.00  0.00    +0.044 C 
ATOM     14  C   UNL     1       0.002  -0.004   0.002  0.00  0.00    -0.047 A 
ATOM     15  C   UNL     1       0.006  -0.688  -1.200  0.00  0.00    +0.007 A 
ATOM     16  C   UNL     1       0.025  -2.071  -1.210  0.00  0.00    -0.047 A 
ATOM     17  C   UNL     1       0.040  -2.772  -0.020  0.00  0.00    +0.049 A 
ATOM     18  C   UNL     1       0.036  -2.088   1.187  0.00  0.00    +0.122 A 
ATOM     19  C   UNL     1       0.023  -0.701   1.195  0.00  0.00    +0.049 A 
ATOM     20  C   UNL     1       0.029  -2.813  -2.522  0.00  0.00    +0.044 C 
ENDBRANCH  12  18
ENDBRANCH  11  12
ENDBRANCH   7  11
ENDBRANCH   1   9
BRANCH   4  21
ATOM     21  C   UNL     1       0.061  -0.894   9.898  0.00  0.00    +0.161 C 
BRANCH  21  22
ATOM     22  C   UNL     1       0.040   0.611   9.829  0.00  0.00    +0.065 A 
ATOM     23  C   UNL     1       1.230   1.308   9.787  0.00  0.00    +0.014 A 
ATOM     24  C   UNL     1       1.199   2.698   9.724  0.00  0.00    +0.129 A 
ATOM     25  C   UNL     1      -0.042   3.331   9.706  0.00  0.00    +0.010 A 
ATOM     26  C   UNL     1      -1.187   2.563   9.751  0.00  0.00    +0.118 A 
ATOM     27  N   UNL     1      -1.116   1.246   9.805  0.00  0.00    -0.258 NA
ATOM     28  C   UNL     1      -0.132   4.834   9.639  0.00  0.00    +0.049 C 
ATOM     29  C   UNL     1       2.546   0.574   9.810  0.00  0.00    +0.049 C 
BRANCH  24  30
ATOM     30  O   UNL     1       2.348   3.419   9.682  0.00  0.00    -0.494 OA
ATOM     31  C   UNL     1       2.887   3.706   8.389  0.00  0.00    +0.277 C 
ENDBRANCH  24  30
ENDBRANCH  21  22
ENDBRANCH   4  21
TORSDOF 7
