REMARK  Name = ZINC13494642
REMARK  5 active torsions:
REMARK  status: ('A' for Active; 'I' for Inactive)
REMARK    1  A    between atoms: C_1  and  N_2
REMARK    2  A    between atoms: C_3  and  C_17
REMARK    3  A    between atoms: C_6  and  C_12
REMARK    4  A    between atoms: N_19  and  C_20
REMARK    5  A    between atoms: C_25  and  O_26
REMARK                            x       y       z     vdW  Elec       q    Type
REMARK                         _______ _______ _______ _____ _____    ______ ____
ROOT
ATOM      1  C   UNL     1       3.074  -1.572  -1.702  0.00  0.00    +0.133 C 
ATOM      2  N   UNL     1       2.073  -0.517  -1.527  0.00  0.00    -0.158 NA
ATOM      3  C   UNL     1       0.636  -0.829  -1.431  0.00  0.00    +0.168 C 
ATOM      4  C   UNL     1       0.077  -0.240  -0.137  0.00  0.00    +0.058 C 
ATOM      5  C   UNL     1       0.155   1.287  -0.160  0.00  0.00    +0.145 C 
ATOM      6  N   UNL     1       1.569   1.701  -0.195  0.00  0.00    -0.169 NA
ATOM      7  S   UNL     1       2.510   1.090  -1.428  0.00  0.00    +0.098 S 
ATOM      8  O   UNL     1       3.858   1.128  -0.981  0.00  0.00    -0.141 OA
ATOM      9  O   UNL     1       2.079   1.713  -2.630  0.00  0.00    -0.141 OA
ATOM     10  H   UNL     1       1.936   2.303   0.471  0.00  0.00    +0.150 HD
ENDROOT
BRANCH   5  11
ATOM     11  C   UNL     1      -0.502   1.843   1.077  0.00  0.00    +0.123 A 
ATOM     12  C   UNL     1      -1.746   2.349   1.147  0.00  0.00    +0.046 A 
ATOM     13  C   UNL     1      -1.950   2.752   2.486  0.00  0.00    +0.041 A 
ATOM     14  C   UNL     1      -0.818   2.468   3.155  0.00  0.00    +0.195 A 
ATOM     15  O   UNL     1       0.053   1.912   2.298  0.00  0.00    -0.466 OA
ENDBRANCH   5  11
BRANCH   3  16
ATOM     16  C   UNL     1      -0.088  -0.232  -2.610  0.00  0.00    +0.236 C 
ATOM     17  O   UNL     1       0.540   0.288  -3.508  0.00  0.00    -0.274 OA
ATOM     18  N   UNL     1      -1.434  -0.276  -2.667  0.00  0.00    -0.281 N 
ATOM     19  H   UNL     1      -1.940  -0.618  -1.914  0.00  0.00    +0.155 HD
BRANCH  18  20
ATOM     20  C   UNL     1      -2.102   0.172  -3.814  0.00  0.00    +0.077 A 
ATOM     21  C   UNL     1      -1.421   0.275  -5.019  0.00  0.00    +0.047 A 
ATOM     22  C   UNL     1      -2.083   0.717  -6.150  0.00  0.00    +0.043 A 
ATOM     23  C   UNL     1      -3.422   1.058  -6.083  0.00  0.00    +0.023 A 
ATOM     24  C   UNL     1      -4.106   0.957  -4.886  0.00  0.00    +0.049 A 
ATOM     25  C   UNL     1      -3.451   0.509  -3.750  0.00  0.00    +0.138 A 
ATOM     26 CL   UNL     1      -1.231   0.846  -7.657  0.00  0.00    -0.083 Cl
BRANCH  25  27
ATOM     27  O   UNL     1      -4.124   0.405  -2.572  0.00  0.00    -0.505 OA
ATOM     28  H   UNL     1      -4.101   1.207  -2.034  0.00  0.00    +0.292 HD
ENDBRANCH  25  27
ENDBRANCH  18  20
ENDBRANCH   3  16
TORSDOF 4
