REMARK  Name = ZINC14197131
REMARK  13 active torsions:
REMARK  status: ('A' for Active; 'I' for Inactive)
REMARK    1  A    between atoms: C_1  and  C_2
REMARK    2  A    between atoms: C_2  and  C_3
REMARK    3  A    between atoms: C_6  and  C_9
REMARK    4  A    between atoms: C_9  and  C_11
REMARK    5  A    between atoms: C_9  and  N_55
REMARK    6  A    between atoms: C_11  and  N_12
REMARK    7  A    between atoms: C_13  and  C_15
REMARK    8  A    between atoms: C_16  and  C_25
REMARK    9  A    between atoms: C_17  and  C_22
REMARK   10  A    between atoms: C_18  and  C_21
REMARK   11  A    between atoms: C_22  and  C_24
REMARK   12  A    between atoms: C_26  and  N_55
REMARK   13  A    between atoms: C_27  and  N_55
REMARK                            x       y       z     vdW  Elec       q    Type
REMARK                         _______ _______ _______ _____ _____    ______ ____
ROOT
ATOM      1  N   UNL     1       0.459   1.218   2.087  0.00  0.00    -0.311 N 
ATOM      2  C   UNL     1       1.742   0.848   1.897  0.00  0.00    +0.261 C 
ATOM      3  O   UNL     1       2.388   1.338   0.990  0.00  0.00    -0.269 OA
ATOM      4  H   UNL     1      -0.056   0.827   2.809  0.00  0.00    +0.149 HD
ENDROOT
BRANCH   2   5
ATOM      5  C   UNL     1       2.358  -0.146   2.784  0.00  0.00    +0.106 A 
ATOM      6  C   UNL     1       3.637  -0.608   2.697  0.00  0.00    -0.010 A 
ATOM      7  C   UNL     1       3.810  -1.546   3.744  0.00  0.00    +0.041 A 
ATOM      8  C   UNL     1       2.605  -1.619   4.425  0.00  0.00    +0.024 A 
ATOM      9  N   UNL     1       1.739  -0.776   3.843  0.00  0.00    -0.354 N 
ATOM     10  H   UNL     1       0.821  -0.632   4.123  0.00  0.00    +0.166 HD
ATOM     11  C   UNL     1       2.317  -2.495   5.617  0.00  0.00    +0.064 C 
ATOM     12  C   UNL     1       4.671  -0.197   1.682  0.00  0.00    +0.047 C 
BRANCH   7  13
ATOM     13  C   UNL     1       5.030  -2.300   4.047  0.00  0.00    +0.162 C 
ATOM     14  O   UNL     1       5.181  -3.416   3.596  0.00  0.00    -0.292 OA
ATOM     15  C   UNL     1       6.097  -1.688   4.918  0.00  0.00    +0.091 C 
ENDBRANCH   7  13
ENDBRANCH   2   5
BRANCH   1  16
ATOM     16  C   UNL     1      -0.155   2.210   1.201  0.00  0.00    +0.094 C 
BRANCH  16  17
ATOM     17  C   UNL     1      -1.649   2.319   1.517  0.00  0.00    -0.021 C 
BRANCH  17  21
ATOM     18  C   UNL     1      -3.400   5.356  -0.923  0.00  0.00    -0.048 A 
ATOM     19  C   UNL     1      -2.655   5.706   0.188  0.00  0.00    +0.004 A 
ATOM     20  C   UNL     1      -2.089   4.723   0.977  0.00  0.00    +0.002 A 
ATOM     21  C   UNL     1      -2.267   3.390   0.656  0.00  0.00    -0.059 A 
ATOM     22  C   UNL     1      -3.008   3.041  -0.458  0.00  0.00    +0.002 A 
ATOM     23  C   UNL     1      -3.579   4.024  -1.244  0.00  0.00    +0.004 A 
BRANCH  18  25
ATOM     24  C   UNL     1      -3.034   6.826  -2.886  0.00  0.00    +0.009 C 
ATOM     25  C   UNL     1      -4.018   6.428  -1.784  0.00  0.00    +0.032 C 
ENDBRANCH  18  25
ENDBRANCH  17  21
BRANCH  17  28
ATOM     26  C   UNL     1      -1.761   0.417   0.022  0.00  0.00    -0.096 C 
ATOM     27  C   UNL     1      -2.180   0.123   2.389  0.00  0.00    -0.096 C 
ATOM     28  N   UNL     1      -2.330   1.037   1.237  0.00  0.00    +0.382 N 
ATOM     29  H   UNL     1      -3.329   1.218   1.083  0.00  0.00    -0.082 HD
ENDBRANCH  17  28
ENDBRANCH  16  17
ENDBRANCH   1  16
TORSDOF 7
