REMARK  Name = ZINC41117426
REMARK  9 active torsions:
REMARK  status: ('A' for Active; 'I' for Inactive)
REMARK    1  A    between atoms: C_1  and  C_2
REMARK    2  A    between atoms: C_2  and  C_4
REMARK    3  A    between atoms: C_2  and  N_13
REMARK    4  A    between atoms: C_7  and  O_11
REMARK    5  A    between atoms: O_11  and  C_12
REMARK    6  A    between atoms: N_13  and  C_14
REMARK    7  A    between atoms: C_14  and  C_15
REMARK    8  A    between atoms: C_19  and  O_22
REMARK    9  A    between atoms: C_20  and  O_21
REMARK                            x       y       z     vdW  Elec       q    Type
REMARK                         _______ _______ _______ _____ _____    ______ ____
ROOT
ATOM      1  N   UNL     1       0.713  -0.491   1.192  0.00  0.00    +0.386 N 
ATOM      2  H   UNL     1       0.290  -0.099   2.020  0.00  0.00    -0.085 HD
ATOM      3  H   UNL     1       0.655  -1.497   1.230  0.00  0.00    -0.085 HD
ENDROOT
BRANCH   1   5
ATOM      4  C   UNL     1      -0.019   1.526   0.010  0.00  0.00    -0.009 C 
ATOM      5  C   UNL     1       0.002  -0.004   0.002  0.00  0.00    -0.044 C 
BRANCH   5   6
ATOM      6  C   UNL     1      -1.412  -0.526   0.013  0.00  0.00    -0.060 A 
ATOM      7  C   UNL     1      -2.122  -0.570   1.198  0.00  0.00    +0.005 A 
ATOM      8  C   UNL     1      -3.418  -1.048   1.211  0.00  0.00    +0.047 A 
ATOM      9  C   UNL     1      -4.008  -1.484   0.034  0.00  0.00    +0.134 A 
ATOM     10  C   UNL     1      -3.293  -1.438  -1.155  0.00  0.00    +0.060 A 
ATOM     11  C   UNL     1      -1.998  -0.953  -1.164  0.00  0.00    +0.021 A 
ATOM     12 BR   UNL     1      -4.092  -2.030  -2.764  0.00  0.00    -0.047 Br
BRANCH   9  13
ATOM     13  O   UNL     1      -5.282  -1.955   0.044  0.00  0.00    -0.494 OA
ATOM     14  C   UNL     1      -5.957  -1.974   1.304  0.00  0.00    +0.277 C 
ENDBRANCH   9  13
ENDBRANCH   5   6
ENDBRANCH   1   5
BRANCH   1  15
ATOM     15  C   UNL     1       2.122  -0.083   1.122  0.00  0.00    -0.042 C 
BRANCH  15  16
ATOM     16  C   UNL     1       2.851  -0.582   2.343  0.00  0.00    -0.019 A 
ATOM     17  C   UNL     1       3.095   0.275   3.401  0.00  0.00    +0.005 A 
ATOM     18  C   UNL     1       3.763  -0.180   4.522  0.00  0.00    +0.004 A 
ATOM     19  C   UNL     1       4.191  -1.493   4.591  0.00  0.00    +0.049 A 
ATOM     20  C   UNL     1       3.950  -2.356   3.534  0.00  0.00    +0.158 A 
ATOM     21  C   UNL     1       3.272  -1.900   2.408  0.00  0.00    +0.160 A 
BRANCH  21  22
ATOM     22  O   UNL     1       3.028  -2.745   1.370  0.00  0.00    -0.503 OA
ATOM     23  H   UNL     1       3.728  -2.761   0.703  0.00  0.00    +0.292 HD
ENDBRANCH  21  22
BRANCH  20  24
ATOM     24  O   UNL     1       4.371  -3.648   3.600  0.00  0.00    -0.503 OA
ATOM     25  H   UNL     1       3.722  -4.253   3.984  0.00  0.00    +0.292 HD
ENDBRANCH  20  24
ENDBRANCH  15  16
ENDBRANCH   1  15
TORSDOF 7
