REMARK  Name = ZINC15924515
REMARK  1 active torsions:
REMARK  status: ('A' for Active; 'I' for Inactive)
REMARK    1  A    between atoms: C_8  and  N_10
REMARK                            x       y       z     vdW  Elec       q    Type
REMARK                         _______ _______ _______ _____ _____    ______ ____
ROOT
ATOM      1  C   UNL     1      -0.064   1.337   0.015  0.00  0.00    +0.002 A 
ATOM      2  C   UNL     1       1.116   2.066   0.004  0.00  0.00    +0.004 A 
ATOM      3  C   UNL     1       2.337   1.422  -0.015  0.00  0.00    +0.048 A 
ATOM      4  C   UNL     1       2.387   0.038  -0.021  0.00  0.00    +0.157 A 
ATOM      5  C   UNL     1       1.196  -0.704  -0.009  0.00  0.00    +0.111 A 
ATOM      6  C   UNL     1      -0.032  -0.040   0.009  0.00  0.00    +0.031 A 
ATOM      7  N   UNL     1       1.552  -2.016  -0.019  0.00  0.00    -0.191 NA
ATOM      8  C   UNL     1       2.864  -2.097  -0.036  0.00  0.00    +0.327 A 
ATOM      9  O   UNL     1       3.400  -0.860  -0.038  0.00  0.00    -0.421 OA
ENDROOT
BRANCH   8  10
ATOM     10  N   UNL     1       3.570  -3.245  -0.050  0.00  0.00    -0.161 NA
ATOM     11  C   UNL     1       3.816  -3.854  -1.193  0.00  0.00    +0.197 C 
ATOM     12  N   UNL     1       3.454  -3.266  -2.374  0.00  0.00    -0.370 N 
ATOM     13  N   UNL     1       4.435  -5.074  -1.199  0.00  0.00    -0.370 N 
ATOM     14  H   UNL     1       3.085  -2.369  -2.375  0.00  0.00    +0.159 HD
ATOM     15  H   UNL     1       4.692  -5.492  -0.362  0.00  0.00    +0.159 HD
ATOM     16  H   UNL     1       4.616  -5.522  -2.040  0.00  0.00    +0.159 HD
ATOM     17  H   UNL     1       3.567  -3.745  -3.209  0.00  0.00    +0.159 HD
ENDBRANCH   8  10
TORSDOF 1
