REMARK  Name = ZINC62934013
REMARK  5 active torsions:
REMARK  status: ('A' for Active; 'I' for Inactive)
REMARK    1  A    between atoms: C_1  and  C_2
REMARK    2  A    between atoms: C_2  and  C_19
REMARK    3  A    between atoms: N_9  and  C_10
REMARK    4  A    between atoms: N_9  and  C_14
REMARK    5  A    between atoms: C_10  and  C_11
REMARK                            x       y       z     vdW  Elec       q    Type
REMARK                         _______ _______ _______ _____ _____    ______ ____
ROOT
ATOM      1  C   UNL     1       4.264  -2.506   4.022  0.00  0.00    +0.024 C 
ATOM      2  C   UNL     1       3.629  -1.132   4.251  0.00  0.00    +0.086 C 
ATOM      3  C   UNL     1       2.972  -1.058   5.654  0.00  0.00    +0.038 C 
ATOM      4  C   UNL     1       1.598  -1.724   5.390  0.00  0.00    +0.110 C 
ATOM      5  N   UNL     1       1.216  -1.276   4.039  0.00  0.00    -0.284 N 
ATOM      6  C   UNL     1       2.434  -0.918   3.298  0.00  0.00    +0.127 C 
ATOM      7  C   UNL     1      -0.043  -1.206   3.561  0.00  0.00    +0.305 C 
ATOM      8  O   UNL     1      -0.256  -0.683   2.484  0.00  0.00    -0.252 OA
ATOM      9  N   UNL     1      -1.064  -1.716   4.277  0.00  0.00    -0.274 N 
ENDROOT
BRANCH   9  10
ATOM     10  C   UNL     1      -2.419  -1.718   3.720  0.00  0.00    +0.078 C 
ATOM     11  C   UNL     1      -3.404  -1.084   4.724  0.00  0.00    +0.022 C 
ATOM     12  C   UNL     1      -4.697  -1.924   4.571  0.00  0.00    +0.002 C 
ATOM     13  C   UNL     1      -4.150  -3.359   4.367  0.00  0.00    +0.002 C 
ATOM     14  C   UNL     1      -2.893  -3.164   3.493  0.00  0.00    +0.022 C 
ENDBRANCH   9  10
BRANCH   2  15
ATOM     15  C   UNL     1       4.652  -0.039   4.078  0.00  0.00    +0.363 C 
ATOM     16  O   UNL     1       5.801  -0.320   3.782  0.00  0.00    -0.246 OA
ATOM     17  O   UNL     1       4.330   1.127   4.235  0.00  0.00    -0.246 OA
ENDBRANCH   2  15
BRANCH   9  18
ATOM     18  C   UNL     1      -0.820  -2.268   5.612  0.00  0.00    +0.205 C 
BRANCH  18  19
ATOM     19  C   UNL     1      -0.853  -1.157   6.629  0.00  0.00    +0.228 C 
ATOM     20  O   UNL     1      -1.061  -0.016   6.274  0.00  0.00    -0.274 OA
ATOM     21  N   UNL     1      -0.652  -1.432   7.933  0.00  0.00    -0.328 N 
ATOM     22  H   UNL     1      -0.486  -2.344   8.217  0.00  0.00    +0.145 HD
ATOM     23  H   UNL     1      -0.673  -0.716   8.588  0.00  0.00    +0.145 HD
ENDBRANCH  18  19
ENDBRANCH   9  18
TORSDOF 4
