REMARK  Name = ZINC05101623
REMARK  7 active torsions:
REMARK  status: ('A' for Active; 'I' for Inactive)
REMARK    1  A    between atoms: C_1  and  C_2
REMARK    2  A    between atoms: C_5  and  C_7
REMARK    3  A    between atoms: N_8  and  N_9
REMARK    4  A    between atoms: C_12  and  O_26
REMARK    5  A    between atoms: C_13  and  C_16
REMARK    6  A    between atoms: C_16  and  C_17
REMARK    7  A    between atoms: N_19  and  C_20
REMARK                            x       y       z     vdW  Elec       q    Type
REMARK                         _______ _______ _______ _____ _____    ______ ____
ROOT
ATOM      1  N   UNL     1       4.817   0.296   3.171  0.00  0.00    -0.122 NA
ATOM      2  C   UNL     1       4.146   0.620   2.080  0.00  0.00    +0.213 C 
ATOM      3  N   UNL     1       4.505   1.478   1.100  0.00  0.00    -0.189 NA
ATOM      4  C   UNL     1       3.790   1.734   0.071  0.00  0.00    +0.204 C 
ATOM      5  C   UNL     1       2.457   1.002  -0.013  0.00  0.00    +0.148 C 
ATOM      6  S   UNL     1       2.546   0.028   1.544  0.00  0.00    -0.071 S 
ENDROOT
BRANCH   1   8
ATOM      7  C   UNL     1       4.983  -0.872   5.089  0.00  0.00    +0.181 C 
ATOM      8  N   UNL     1       4.318  -0.551   4.007  0.00  0.00    -0.151 NA
BRANCH   7  13
ATOM      9  C   UNL     1       1.835  -4.135   7.210  0.00  0.00    +0.086 C 
ATOM     10  C   UNL     1       3.042  -3.264   6.973  0.00  0.00    +0.103 A 
ATOM     11  C   UNL     1       4.113  -3.169   7.789  0.00  0.00    +0.045 A 
ATOM     12  C   UNL     1       5.005  -2.257   7.196  0.00  0.00    +0.051 A 
ATOM     13  C   UNL     1       4.418  -1.831   6.036  0.00  0.00    +0.148 A 
ATOM     14  O   UNL     1       3.229  -2.457   5.917  0.00  0.00    -0.459 OA
ENDBRANCH   7  13
ENDBRANCH   1   8
BRANCH   4  15
ATOM     15  O   UNL     1       4.191   2.598  -0.880  0.00  0.00    -0.495 OA
ATOM     16  H   UNL     1       5.050   3.022  -0.753  0.00  0.00    +0.293 HD
ENDBRANCH   4  15
BRANCH   5  17
ATOM     17  C   UNL     1       1.280   1.980   0.007  0.00  0.00    +0.120 C 
BRANCH  17  18
ATOM     18  C   UNL     1      -0.014   1.209   0.007  0.00  0.00    +0.219 C 
ATOM     19  O   UNL     1       0.002  -0.004  -0.008  0.00  0.00    -0.275 OA
ATOM     20  N   UNL     1      -1.191   1.867   0.018  0.00  0.00    -0.285 N 
ATOM     21  H   UNL     1      -1.205   2.833   0.098  0.00  0.00    +0.155 HD
BRANCH  20  22
ATOM     22  C   UNL     1      -2.391   1.155  -0.086  0.00  0.00    +0.033 A 
ATOM     23  C   UNL     1      -3.468   1.704  -0.769  0.00  0.00    +0.023 A 
ATOM     24  C   UNL     1      -4.650   0.997  -0.875  0.00  0.00    +0.002 A 
ATOM     25  C   UNL     1      -4.764  -0.252  -0.292  0.00  0.00    +0.000 A 
ATOM     26  C   UNL     1      -3.696  -0.798   0.395  0.00  0.00    +0.002 A 
ATOM     27  C   UNL     1      -2.510  -0.099   0.499  0.00  0.00    +0.023 A 
ENDBRANCH  20  22
ENDBRANCH  17  18
ENDBRANCH   5  17
TORSDOF 6
