REMARK  Name = ZINC02138892
REMARK  7 active torsions:
REMARK  status: ('A' for Active; 'I' for Inactive)
REMARK    1  A    between atoms: C_1  and  C_2
REMARK    2  A    between atoms: C_16  and  C_18
REMARK    3  A    between atoms: C_18  and  C_19
REMARK    4  A    between atoms: N_24  and  C_27
REMARK    5  A    between atoms: C_27  and  C_28
REMARK    6  A    between atoms: C_31  and  O_34
REMARK    7  A    between atoms: O_34  and  C_35
REMARK                            x       y       z     vdW  Elec       q    Type
REMARK                         _______ _______ _______ _____ _____    ______ ____
ROOT
ATOM      1  C   UNL     1       3.830   3.139  -3.884  0.00  0.00    +0.047 C 
ATOM      2  C   UNL     1       2.771   3.467  -2.864  0.00  0.00    -0.011 A 
ATOM      3  C   UNL     1       2.107   4.676  -2.924  0.00  0.00    +0.046 A 
ATOM      4  C   UNL     1       1.132   4.985  -1.992  0.00  0.00    +0.020 A 
ATOM      5  C   UNL     1       0.823   4.078  -0.993  0.00  0.00    +0.006 A 
ATOM      6  C   UNL     1       1.483   2.871  -0.929  0.00  0.00    -0.027 A 
ATOM      7  C   UNL     1       2.465   2.549  -1.862  0.00  0.00    +0.040 A 
ATOM      8  N   UNL     1       2.987   1.282  -1.595  0.00  0.00    -0.286 N 
ATOM      9  C   UNL     1       2.412   0.711  -0.519  0.00  0.00    +0.211 C 
ATOM     10  O   UNL     1       2.665  -0.381  -0.057  0.00  0.00    -0.277 OA
ATOM     11  C   UNL     1       1.395   1.692  -0.002  0.00  0.00    +0.050 C 
ATOM     12  C   UNL     1      -0.013   1.086   0.008  0.00  0.00    +0.088 C 
ATOM     13  C   UNL     1      -0.683   1.671   1.282  0.00  0.00    +0.073 C 
ATOM     14  C   UNL     1       0.385   2.598   1.901  0.00  0.00    -0.049 C 
ATOM     15  C   UNL     1      -1.819   2.501   0.728  0.00  0.00    +0.224 C 
ATOM     16  O   UNL     1      -2.612   3.135   1.391  0.00  0.00    -0.275 OA
ATOM     17  N   UNL     1      -1.814   2.426  -0.608  0.00  0.00    -0.237 N 
ATOM     18  C   UNL     1      -0.828   1.661  -1.128  0.00  0.00    +0.225 C 
ATOM     19  O   UNL     1      -0.626   1.460  -2.306  0.00  0.00    -0.275 OA
ATOM     20 CL   UNL     1       2.496   5.814  -4.176  0.00  0.00    -0.083 Cl
ATOM     21  H   UNL     1       3.684   0.861  -2.123  0.00  0.00    +0.155 HD
ATOM     22  N   UNL     1       1.650   2.080   1.375  0.00  0.00    +0.394 N 
ATOM     23  H   UNL     1       2.373   2.807   1.410  0.00  0.00    -0.083 HD
ATOM     24  H   UNL     1       1.955   1.266   1.922  0.00  0.00    -0.083 HD
ENDROOT
BRANCH  14  25
ATOM     25  C   UNL     1       0.341   2.517   3.428  0.00  0.00    +0.080 C 
BRANCH  25  26
ATOM     26  C   UNL     1       1.359   3.462   4.011  0.00  0.00    +0.209 C 
ATOM     27  O   UNL     1       2.051   4.135   3.277  0.00  0.00    -0.276 OA
ATOM     28  N   UNL     1       1.499   3.561   5.348  0.00  0.00    -0.329 N 
ATOM     29  H   UNL     1       0.945   3.023   5.935  0.00  0.00    +0.145 HD
ATOM     30  H   UNL     1       2.155   4.170   5.723  0.00  0.00    +0.145 HD
ENDBRANCH  25  26
ENDBRANCH  14  25
BRANCH  17  31
ATOM     31  C   UNL     1      -2.791   3.127  -1.444  0.00  0.00    +0.151 C 
BRANCH  31  32
ATOM     32  C   UNL     1      -2.267   4.497  -1.790  0.00  0.00    -0.029 A 
ATOM     33  C   UNL     1      -2.552   5.572  -0.969  0.00  0.00    +0.009 A 
ATOM     34  C   UNL     1      -2.067   6.828  -1.280  0.00  0.00    +0.046 A 
ATOM     35  C   UNL     1      -1.304   7.011  -2.424  0.00  0.00    +0.120 A 
ATOM     36  C   UNL     1      -1.024   5.932  -3.249  0.00  0.00    +0.046 A 
ATOM     37  C   UNL     1      -1.506   4.677  -2.930  0.00  0.00    +0.009 A 
BRANCH  35  38
ATOM     38  O   UNL     1      -0.831   8.247  -2.736  0.00  0.00    -0.495 OA
ATOM     39  C   UNL     1      -1.158   9.312  -1.840  0.00  0.00    +0.277 C 
ENDBRANCH  35  38
ENDBRANCH  31  32
ENDBRANCH  17  31
TORSDOF 5
