REMARK  Name = ZINC66557698
REMARK  9 active torsions:
REMARK  status: ('A' for Active; 'I' for Inactive)
REMARK    1  A    between atoms: C_1  and  C_2
REMARK    2  A    between atoms: C_6  and  C_7
REMARK    3  A    between atoms: N_9  and  N_10
REMARK    4  A    between atoms: C_11  and  C_13
REMARK    5  A    between atoms: C_20  and  O_22
REMARK    6  A    between atoms: O_22  and  C_23
REMARK    7  A    between atoms: C_23  and  C_24
REMARK    8  A    between atoms: C_23  and  C_25
REMARK    9  A    between atoms: C_23  and  C_26
REMARK                            x       y       z     vdW  Elec       q    Type
REMARK                         _______ _______ _______ _____ _____    ______ ____
ROOT
ATOM      1  N   UNL     1       0.059  -0.732   4.900  0.00  0.00    -0.234 N 
ATOM      2  C   UNL     1       0.081  -1.625   5.909  0.00  0.00    +0.234 C 
ATOM      3  O   UNL     1       0.094  -2.813   5.667  0.00  0.00    -0.274 OA
ATOM      4  H   UNL     1       0.048   0.219   5.094  0.00  0.00    +0.173 HD
ENDROOT
BRANCH   2   5
ATOM      5  C   UNL     1       0.088  -1.147   7.338  0.00  0.00    +0.094 C 
ATOM      6  C   UNL     1       0.112  -2.353   8.280  0.00  0.00    +0.016 C 
ATOM      7  C   UNL     1       0.152  -1.869   9.731  0.00  0.00    +0.020 C 
ATOM      8  C   UNL     1      -1.107  -1.048  10.027  0.00  0.00    +0.111 C 
ATOM      9  N   UNL     1      -1.214   0.029   9.034  0.00  0.00    -0.267 N 
ATOM     10  C   UNL     1      -1.172  -0.318   7.607  0.00  0.00    +0.124 C 
ATOM     11  C   UNL     1      -1.349   1.312   9.425  0.00  0.00    +0.403 C 
ATOM     12  O   UNL     1      -1.436   2.194   8.593  0.00  0.00    -0.226 OA
BRANCH  11  13
ATOM     13  O   UNL     1      -1.386   1.616  10.736  0.00  0.00    -0.445 OA
BRANCH  13  14
ATOM     14  C   UNL     1      -1.530   2.996  11.077  0.00  0.00    +0.107 C 
ATOM     15  C   UNL     1      -2.839   3.532  10.493  0.00  0.00    +0.055 C 
ATOM     16  C   UNL     1      -1.553   3.145  12.600  0.00  0.00    +0.055 C 
ATOM     17  C   UNL     1      -0.354   3.789  10.505  0.00  0.00    +0.055 C 
ENDBRANCH  13  14
ENDBRANCH  11  13
ENDBRANCH   2   5
BRANCH   1  20
ATOM     18  C   UNL     1       0.031  -0.283   2.562  0.00  0.00    +0.267 C 
ATOM     19  O   UNL     1       0.017   0.910   2.805  0.00  0.00    -0.268 OA
ATOM     20  N   UNL     1       0.052  -1.176   3.571  0.00  0.00    -0.230 N 
ATOM     21  H   UNL     1       0.063  -2.126   3.378  0.00  0.00    +0.173 HD
BRANCH  18  27
ATOM     22  C   UNL     1      -0.018   1.503   0.010  0.00  0.00    +0.045 C 
ATOM     23  C   UNL     1       0.002  -0.004   0.002  0.00  0.00    -0.031 A 
ATOM     24  C   UNL     1       0.007  -0.729  -1.166  0.00  0.00    +0.011 A 
ATOM     25  C   UNL     1       0.025  -2.083  -1.101  0.00  0.00    +0.046 A 
ATOM     26  S   UNL     1       0.037  -2.416   0.545  0.00  0.00    -0.092 S 
ATOM     27  C   UNL     1       0.023  -0.748   1.172  0.00  0.00    +0.078 A 
ENDBRANCH  18  27
ENDBRANCH   1  20
TORSDOF 5
