REMARK  Name = ZINC18750453
REMARK  11 active torsions:
REMARK  status: ('A' for Active; 'I' for Inactive)
REMARK    1  A    between atoms: C_1  and  O_2
REMARK    2  A    between atoms: O_2  and  C_3
REMARK    3  A    between atoms: C_3  and  C_4
REMARK    4  A    between atoms: C_4  and  N_5
REMARK    5  A    between atoms: C_6  and  C_8
REMARK    6  A    between atoms: C_12  and  N_13
REMARK    7  A    between atoms: C_14  and  C_16
REMARK    8  A    between atoms: C_16  and  O_17
REMARK    9  A    between atoms: O_17  and  C_18
REMARK   10  A    between atoms: C_18  and  C_20
REMARK   11  A    between atoms: C_25  and  N_26
REMARK                            x       y       z     vdW  Elec       q    Type
REMARK                         _______ _______ _______ _____ _____    ______ ____
ROOT
ATOM      1  N   UNL     1       0.052   1.701   1.964  0.00  0.00    -0.277 N 
ATOM      2  C   UNL     1       1.200   2.345   1.675  0.00  0.00    +0.255 C 
ATOM      3  O   UNL     1       2.263   1.778   1.808  0.00  0.00    -0.272 OA
ATOM      4  H   UNL     1      -0.799   2.153   1.854  0.00  0.00    +0.155 HD
ENDROOT
BRANCH   1   9
ATOM      5  C   UNL     1      -0.977  -0.430   2.765  0.00  0.00    +0.069 A 
ATOM      6  C   UNL     1      -0.667  -1.780   3.206  0.00  0.00    -0.023 A 
ATOM      7  C   UNL     1       0.648  -2.088   3.236  0.00  0.00    -0.004 A 
ATOM      8  S   UNL     1       1.469  -0.621   2.682  0.00  0.00    -0.077 S 
ATOM      9  C   UNL     1       0.087   0.390   2.414  0.00  0.00    +0.084 A 
ATOM     10  C   UNL     1       1.261  -3.390   3.650  0.00  0.00    +0.043 C 
ATOM     11  C   UNL     1       0.199  -4.210   4.396  0.00  0.00    +0.005 C 
ATOM     12  C   UNL     1      -1.098  -4.196   3.580  0.00  0.00    +0.005 C 
ATOM     13  C   UNL     1      -1.721  -2.799   3.619  0.00  0.00    +0.037 C 
BRANCH   5  15
ATOM     14  N   UNL     1      -2.927   0.645   3.756  0.00  0.00    -0.309 N 
ATOM     15  C   UNL     1      -2.361   0.046   2.689  0.00  0.00    +0.247 C 
ATOM     16  O   UNL     1      -3.000  -0.099   1.664  0.00  0.00    -0.270 OA
ATOM     17  H   UNL     1      -2.418   0.761   4.574  0.00  0.00    +0.149 HD
BRANCH  14  18
ATOM     18  C   UNL     1      -4.310   1.121   3.681  0.00  0.00    +0.132 C 
BRANCH  18  19
ATOM     19  C   UNL     1      -4.704   1.757   5.016  0.00  0.00    +0.178 C 
BRANCH  19  21
ATOM     20  C   UNL     1      -4.204   3.599   6.465  0.00  0.00    +0.194 C 
ATOM     21  O   UNL     1      -3.913   2.926   5.239  0.00  0.00    -0.381 OA
ENDBRANCH  19  21
ENDBRANCH  18  19
ENDBRANCH  14  18
ENDBRANCH   5  15
ENDBRANCH   1   9
BRANCH   2  22
ATOM     22  C   UNL     1       1.162   3.770   1.187  0.00  0.00    +0.328 C 
BRANCH  22  23
ATOM     23  O   UNL     1       2.516   4.236   0.947  0.00  0.00    -0.452 OA
BRANCH  23  24
ATOM     24  C   UNL     1       2.659   5.500   0.503  0.00  0.00    +0.341 C 
ATOM     25  O   UNL     1       1.678   6.195   0.321  0.00  0.00    -0.245 OA
BRANCH  24  26
ATOM     26  C   UNL     1       4.002   6.040   0.238  0.00  0.00    +0.080 A 
ATOM     27  C   UNL     1       5.124   5.209   0.326  0.00  0.00    +0.019 A 
ATOM     28  C   UNL     1       6.377   5.719   0.077  0.00  0.00    +0.039 A 
ATOM     29  C   UNL     1       6.536   7.057  -0.261  0.00  0.00    +0.125 A 
ATOM     30  C   UNL     1       5.437   7.891  -0.351  0.00  0.00    +0.061 A 
ATOM     31  C   UNL     1       4.164   7.391  -0.110  0.00  0.00    +0.041 A 
ATOM     32  F   UNL     1       7.772   7.547  -0.502  0.00  0.00    -0.205 F 
BRANCH  31  33
ATOM     33  N   UNL     1       3.058   8.225  -0.206  0.00  0.00    -0.357 N 
ATOM     34  H   UNL     1       2.243   8.006   0.273  0.00  0.00    +0.142 HD
ATOM     35  H   UNL     1       3.100   9.025  -0.751  0.00  0.00    +0.142 HD
ENDBRANCH  31  33
ENDBRANCH  24  26
ENDBRANCH  23  24
ENDBRANCH  22  23
ENDBRANCH   2  22
TORSDOF 10
