REMARK  Name = ZINC45070736
REMARK  7 active torsions:
REMARK  status: ('A' for Active; 'I' for Inactive)
REMARK    1  A    between atoms: C_1  and  C_2
REMARK    2  A    between atoms: C_12  and  N_14
REMARK    3  A    between atoms: N_14  and  C_15
REMARK    4  A    between atoms: C_15  and  C_16
REMARK    5  A    between atoms: C_16  and  C_17
REMARK    6  A    between atoms: C_17  and  S_18
REMARK    7  A    between atoms: S_18  and  N_21
REMARK                            x       y       z     vdW  Elec       q    Type
REMARK                         _______ _______ _______ _____ _____    ______ ____
ROOT
ATOM      1  C   UNL     1      -0.018   1.503   0.010  0.00  0.00    +0.044 C 
ATOM      2  C   UNL     1       0.002  -0.004   0.002  0.00  0.00    -0.047 A 
ATOM      3  C   UNL     1       0.006  -0.691  -1.200  0.00  0.00    +0.007 A 
ATOM      4  C   UNL     1       0.024  -2.068  -1.204  0.00  0.00    -0.028 A 
ATOM      5  C   UNL     1       0.040  -2.783  -0.014  0.00  0.00    +0.071 A 
ATOM      6  C   UNL     1       0.036  -2.085   1.194  0.00  0.00    +0.145 A 
ATOM      7  C   UNL     1       0.023  -0.703   1.195  0.00  0.00    +0.043 A 
ATOM      8  F   UNL     1       0.051  -2.760   2.363  0.00  0.00    -0.204 F 
ATOM      9  N   UNL     1       0.057  -4.155  -0.276  0.00  0.00    -0.284 N 
ATOM     10  C   UNL     1       0.054  -4.421  -1.593  0.00  0.00    +0.208 C 
ATOM     11  O   UNL     1       0.067  -5.520  -2.106  0.00  0.00    -0.277 OA
ATOM     12  C   UNL     1       0.033  -3.092  -2.316  0.00  0.00    +0.049 C 
ATOM     13  H   UNL     1       0.070  -4.837   0.414  0.00  0.00    +0.155 HD
ENDROOT
BRANCH  12  14
ATOM     14  N   UNL     1      -1.180  -2.971  -3.136  0.00  0.00    +0.389 N 
ATOM     15  H   UNL     1      -1.988  -3.203  -2.577  0.00  0.00    -0.084 HD
ATOM     16  H   UNL     1      -1.265  -2.024  -3.474  0.00  0.00    -0.084 HD
BRANCH  14  17
ATOM     17  C   UNL     1      -1.093  -3.892  -4.277  0.00  0.00    -0.079 C 
BRANCH  17  18
ATOM     18  C   UNL     1      -2.357  -3.767  -5.131  0.00  0.00    +0.005 C 
BRANCH  18  19
ATOM     19  C   UNL     1      -2.266  -4.726  -6.319  0.00  0.00    +0.183 C 
BRANCH  19  20
ATOM     20  S   UNL     1      -3.764  -4.578  -7.332  0.00  0.00    +0.027 S 
ATOM     21  O   UNL     1      -4.889  -5.070  -6.616  0.00  0.00    -0.158 OA
ATOM     22  O   UNL     1      -3.806  -3.304  -7.960  0.00  0.00    -0.158 OA
BRANCH  20  23
ATOM     23  N   UNL     1      -3.548  -5.654  -8.572  0.00  0.00    -0.208 NA
ATOM     24  H   UNL     1      -2.738  -6.185  -8.617  0.00  0.00    +0.144 HD
ATOM     25  H   UNL     1      -4.232  -5.753  -9.253  0.00  0.00    +0.144 HD
ENDBRANCH  20  23
ENDBRANCH  19  20
ENDBRANCH  18  19
ENDBRANCH  17  18
ENDBRANCH  14  17
ENDBRANCH  12  14
TORSDOF 6
