REMARK  Name = ZINC64637523
REMARK  6 active torsions:
REMARK  status: ('A' for Active; 'I' for Inactive)
REMARK    1  A    between atoms: C_1  and  C_2
REMARK    2  A    between atoms: C_2  and  C_3
REMARK    3  A    between atoms: C_3  and  N_4
REMARK    4  A    between atoms: C_8  and  C_16
REMARK    5  A    between atoms: C_12  and  C_15
REMARK    6  A    between atoms: C_19  and  C_22
REMARK                            x       y       z     vdW  Elec       q    Type
REMARK                         _______ _______ _______ _____ _____    ______ ____
ROOT
ATOM      1  C   UNL     1      -3.406  -4.886   3.671  0.00  0.00    +0.168 C 
ATOM      2  N   UNL     1      -3.477  -6.176   3.723  0.00  0.00    -0.067 NA
ATOM      3  O   UNL     1      -4.645  -6.592   4.404  0.00  0.00    -0.367 OA
ATOM      4  C   UNL     1      -5.337  -5.396   4.796  0.00  0.00    +0.318 C 
ATOM      5  N   UNL     1      -4.489  -4.300   4.301  0.00  0.00    -0.288 N 
ATOM      6  H   UNL     1      -4.658  -3.350   4.397  0.00  0.00    +0.151 HD
ENDROOT
BRANCH   1  11
ATOM      7  N   UNL     1       0.762  -1.976   1.234  0.00  0.00    -0.305 N 
ATOM      8  C   UNL     1      -0.255  -2.693   1.829  0.00  0.00    +0.070 A 
ATOM      9  C   UNL     1      -1.313  -2.027   2.444  0.00  0.00    +0.029 A 
ATOM     10  C   UNL     1      -2.321  -2.733   3.033  0.00  0.00    +0.013 A 
ATOM     11  C   UNL     1      -2.306  -4.134   3.028  0.00  0.00    +0.020 A 
ATOM     12  C   UNL     1      -1.262  -4.819   2.422  0.00  0.00    +0.041 A 
ATOM     13  C   UNL     1      -0.224  -4.101   1.814  0.00  0.00    +0.089 A 
ATOM     14  N   UNL     1       0.793  -4.758   1.222  0.00  0.00    -0.245 NA
ATOM     15  C   UNL     1       1.768  -4.111   0.651  0.00  0.00    +0.103 A 
ATOM     16  C   UNL     1       1.774  -2.644   0.638  0.00  0.00    +0.273 A 
ATOM     17  O   UNL     1       2.682  -2.036   0.101  0.00  0.00    -0.266 OA
ATOM     18  C   UNL     1       2.892  -4.872  -0.004  0.00  0.00    +0.071 C 
BRANCH   7  19
ATOM     19  C   UNL     1       0.742  -0.511   1.242  0.00  0.00    +0.125 C 
BRANCH  19  21
ATOM     20  C   UNL     1      -0.019   1.526   0.010  0.00  0.00    +0.005 C 
ATOM     21  C   UNL     1       0.002  -0.004   0.002  0.00  0.00    +0.018 C 
ENDBRANCH  19  21
ENDBRANCH   7  19
ENDBRANCH   1  11
BRANCH   4  22
ATOM     22  C   UNL     1      -6.722  -5.343   4.148  0.00  0.00    +0.165 C 
ATOM     23  C   UNL     1      -7.454  -4.094   4.584  0.00  0.00    +0.012 C 
ATOM     24  C   UNL     1      -8.568  -4.516   5.224  0.00  0.00    -0.004 A 
ATOM     25  C   UNL     1      -9.675  -3.801   5.871  0.00  0.00    +0.010 A 
ATOM     26  C   UNL     1     -10.672  -4.514   6.441  0.00  0.00    +0.001 A 
ATOM     27  C   UNL     1     -10.676  -5.916   6.429  0.00  0.00    +0.002 A 
ATOM     28  C   UNL     1      -9.695  -6.643   5.854  0.00  0.00    +0.026 A 
ATOM     29  C   UNL     1      -8.596  -5.996   5.225  0.00  0.00    +0.043 A 
ATOM     30  N   UNL     1      -7.539  -6.471   4.608  0.00  0.00    -0.373 N 
ATOM     31  H   UNL     1      -7.332  -7.410   4.479  0.00  0.00    +0.160 HD
ENDBRANCH   4  22
TORSDOF 4
