REMARK  Name = ZINC01125891
REMARK  5 active torsions:
REMARK  status: ('A' for Active; 'I' for Inactive)
REMARK    1  A    between atoms: C_1  and  N_2
REMARK    2  A    between atoms: C_17  and  C_19
REMARK    3  A    between atoms: C_19  and  O_20
REMARK    4  A    between atoms: C_22  and  N_26
REMARK    5  A    between atoms: C_23  and  C_24
REMARK                            x       y       z     vdW  Elec       q    Type
REMARK                         _______ _______ _______ _____ _____    ______ ____
ROOT
ATOM      1  C   UNL     1      -0.018   1.461   0.010  0.00  0.00    +0.138 C 
ATOM      2  N   UNL     1       0.002  -0.004   0.002  0.00  0.00    -0.273 N 
ATOM      3  C   UNL     1      -1.135  -0.793   0.003  0.00  0.00    +0.041 A 
ATOM      4  C   UNL     1      -2.478  -0.412   0.015  0.00  0.00    +0.024 A 
ATOM      5  C   UNL     1      -3.424  -1.425   0.012  0.00  0.00    +0.002 A 
ATOM      6  C   UNL     1      -3.067  -2.758  -0.002  0.00  0.00    +0.000 A 
ATOM      7  C   UNL     1      -1.732  -3.151  -0.012  0.00  0.00    +0.007 A 
ATOM      8  C   UNL     1      -0.786  -2.149  -0.008  0.00  0.00    +0.002 A 
ATOM      9  C   UNL     1       0.710  -2.198  -0.012  0.00  0.00    +0.174 C 
ATOM     10  C   UNL     1       1.131  -0.743  -0.013  0.00  0.00    +0.243 C 
ATOM     11  O   UNL     1       2.268  -0.321  -0.024  0.00  0.00    -0.273 OA
ATOM     12  C   UNL     1       1.220  -2.872  -1.259  0.00  0.00    +0.176 A 
ATOM     13  C   UNL     1       1.738  -4.117  -1.194  0.00  0.00    +0.216 A 
ATOM     14  C   UNL     1       2.215  -4.731  -2.387  0.00  0.00    +0.228 A 
ATOM     15  O   UNL     1       2.691  -5.856  -2.369  0.00  0.00    -0.284 OA
ATOM     16  C   UNL     1       2.120  -3.997  -3.596  0.00  0.00    +0.098 A 
ATOM     17  C   UNL     1       1.587  -2.760  -3.562  0.00  0.00    +0.134 A 
ATOM     18  O   UNL     1       1.149  -2.215  -2.427  0.00  0.00    -0.457 OA
ATOM     19  O   UNL     1       1.815  -4.796  -0.024  0.00  0.00    -0.434 OA
ATOM     20  C   UNL     1       1.749  -4.136   1.145  0.00  0.00    +0.200 C 
ATOM     21  C   UNL     1       1.228  -2.885   1.217  0.00  0.00    +0.113 C 
ENDROOT
BRANCH  20  22
ATOM     22  N   UNL     1       2.216  -4.739   2.287  0.00  0.00    -0.328 N 
ATOM     23  H   UNL     1       2.590  -5.633   2.245  0.00  0.00    +0.145 HD
ATOM     24  H   UNL     1       2.173  -4.271   3.135  0.00  0.00    +0.145 HD
ENDBRANCH  20  22
BRANCH  21  25
ATOM     25  C   UNL     1       1.174  -2.213   2.480  0.00  0.00    +0.102 C 
ATOM     26  N   UNL     1       1.130  -1.679   3.482  0.00  0.00    -0.191 NA
ENDBRANCH  21  25
BRANCH  17  27
ATOM     27  C   UNL     1       1.482  -1.972  -4.842  0.00  0.00    +0.230 C 
BRANCH  27  28
ATOM     28  O   UNL     1       2.007  -2.746  -5.923  0.00  0.00    -0.387 OA
ATOM     29  H   UNL     1       1.972  -2.299  -6.779  0.00  0.00    +0.210 HD
ENDBRANCH  27  28
ENDBRANCH  17  27
TORSDOF 4
