REMARK  Name = ZINC31947378
REMARK  7 active torsions:
REMARK  status: ('A' for Active; 'I' for Inactive)
REMARK    1  A    between atoms: C_1  and  C_2
REMARK    2  A    between atoms: C_5  and  C_8
REMARK    3  A    between atoms: C_9  and  C_23
REMARK    4  A    between atoms: N_15  and  C_22
REMARK    5  A    between atoms: N_18  and  C_19
REMARK    6  A    between atoms: C_19  and  C_20
REMARK    7  A    between atoms: C_20  and  N_21
REMARK                            x       y       z     vdW  Elec       q    Type
REMARK                         _______ _______ _______ _____ _____    ______ ____
ROOT
ATOM      1  C   UNL     1       1.532  -2.118  -0.024  0.00  0.00    +0.007 A 
ATOM      2  C   UNL     1       2.819  -2.535  -0.039  0.00  0.00    -0.003 A 
ATOM      3  S   UNL     1       3.748  -1.014  -0.040  0.00  0.00    -0.073 S 
ATOM      4  C   UNL     1       2.399   0.138  -0.020  0.00  0.00    +0.118 A 
ATOM      5  C   UNL     1       1.259  -0.683  -0.014  0.00  0.00    +0.080 A 
ATOM      6  C   UNL     1       0.002  -0.004   0.002  0.00  0.00    +0.264 A 
ATOM      7  O   UNL     1      -1.041  -0.635   0.009  0.00  0.00    -0.267 OA
ATOM      8  N   UNL     1      -0.016   1.341   0.009  0.00  0.00    -0.284 N 
ATOM      9  C   UNL     1       1.140   2.064   0.002  0.00  0.00    +0.199 A 
ATOM     10  N   UNL     1       2.312   1.464  -0.012  0.00  0.00    -0.208 NA
ATOM     11  N   UNL     1       1.082   3.435   0.010  0.00  0.00    -0.317 N 
ATOM     12  C   UNL     1      -1.302   2.043   0.019  0.00  0.00    +0.155 C 
ATOM     13  C   UNL     1       3.342  -3.949  -0.052  0.00  0.00    +0.052 C 
ATOM     14  H   UNL     1       0.107   3.944   0.021  0.00  0.00    +0.149 HD
ENDROOT
BRANCH   1  19
ATOM     15  C   UNL     1      -2.788  -5.924  -0.004  0.00  0.00    +0.044 C 
ATOM     16  C   UNL     1      -1.658  -4.928  -0.009  0.00  0.00    -0.050 A 
ATOM     17  C   UNL     1      -0.816  -4.847  -1.104  0.00  0.00    +0.004 A 
ATOM     18  C   UNL     1       0.221  -3.936  -1.115  0.00  0.00    +0.009 A 
ATOM     19  C   UNL     1       0.420  -3.098  -0.019  0.00  0.00    -0.016 A 
ATOM     20  C   UNL     1      -0.428  -3.188   1.084  0.00  0.00    +0.009 A 
ATOM     21  C   UNL     1      -1.465  -4.098   1.081  0.00  0.00    +0.004 A 
ENDBRANCH   1  19
BRANCH  11  22
ATOM     22  C   UNL     1       2.318   4.221   0.002  0.00  0.00    +0.085 C 
BRANCH  22  23
ATOM     23  C   UNL     1       1.975   5.712   0.013  0.00  0.00    -0.067 C 
BRANCH  23  24
ATOM     24  N   UNL     1       3.215   6.500   0.005  0.00  0.00    +0.379 N 
ATOM     25  H   UNL     1       2.968   7.572   0.013  0.00  0.00    -0.090 HD
ATOM     26  H   UNL     1       3.794   6.264  -0.900  0.00  0.00    -0.090 HD
ATOM     27  H   UNL     1       3.811   6.255   0.897  0.00  0.00    -0.090 HD
ENDBRANCH  23  24
ENDBRANCH  22  23
ENDBRANCH  11  22
TORSDOF 4
