REMARK  Name = ZINC61712733
REMARK  6 active torsions:
REMARK  status: ('A' for Active; 'I' for Inactive)
REMARK    1  A    between atoms: C_3  and  S_12
REMARK    2  A    between atoms: C_4  and  N_10
REMARK    3  A    between atoms: C_6  and  N_7
REMARK    4  A    between atoms: N_10  and  N_11
REMARK    5  A    between atoms: S_12  and  N_15
REMARK    6  A    between atoms: C_18  and  O_21
REMARK                            x       y       z     vdW  Elec       q    Type
REMARK                         _______ _______ _______ _____ _____    ______ ____
ROOT
ATOM      1  C   UNL     1      -0.081   1.307   0.354  0.00  0.00    +0.035 A 
ATOM      2  C   UNL     1       1.113   1.996   0.461  0.00  0.00    +0.032 A 
ATOM      3  C   UNL     1       2.314   1.323   0.348  0.00  0.00    +0.128 A 
ATOM      4  C   UNL     1       2.321  -0.048   0.127  0.00  0.00    +0.070 A 
ATOM      5  C   UNL     1       1.120  -0.738   0.020  0.00  0.00    +0.058 A 
ATOM      6  C   UNL     1      -0.077  -0.058   0.134  0.00  0.00    +0.128 A 
ENDROOT
BRANCH   6   7
ATOM      7  N   UNL     1      -1.357  -0.792   0.020  0.00  0.00    +0.056 N 
ATOM      8  O   UNL     1      -2.405  -0.198   0.120  0.00  0.00    -0.126 OA
ATOM      9  O   UNL     1      -1.354  -1.986  -0.172  0.00  0.00    -0.126 OA
ENDBRANCH   6   7
BRANCH   3  10
ATOM     10  S   UNL     1       3.834   2.203   0.484  0.00  0.00    +0.063 S 
ATOM     11  O   UNL     1       4.649   1.776  -0.599  0.00  0.00    -0.153 OA
ATOM     12  O   UNL     1       3.497   3.568   0.691  0.00  0.00    -0.153 OA
BRANCH  10  13
ATOM     13  N   UNL     1       4.578   1.684   1.870  0.00  0.00    -0.174 NA
ATOM     14  C   UNL     1       4.309   2.186   3.229  0.00  0.00    +0.112 C 
ATOM     15  C   UNL     1       4.737   1.033   4.170  0.00  0.00    +0.050 C 
ATOM     16  C   UNL     1       5.988   0.480   3.436  0.00  0.00    +0.131 C 
ATOM     17  C   UNL     1       5.612   0.642   1.948  0.00  0.00    +0.140 C 
BRANCH  16  18
ATOM     18  O   UNL     1       7.146   1.252   3.760  0.00  0.00    -0.390 OA
ATOM     19  H   UNL     1       7.376   1.241   4.700  0.00  0.00    +0.210 HD
ENDBRANCH  16  18
ENDBRANCH  10  13
ENDBRANCH   3  10
BRANCH   4  20
ATOM     20  N   UNL     1       3.534  -0.732   0.012  0.00  0.00    -0.281 N 
ATOM     21  H   UNL     1       4.370  -0.240   0.009  0.00  0.00    +0.166 HD
BRANCH  20  22
ATOM     22  N   UNL     1       3.542  -2.094  -0.096  0.00  0.00    -0.256 NA
ATOM     23  H   UNL     1       2.980  -2.398  -0.877  0.00  0.00    +0.140 HD
ATOM     24  H   UNL     1       4.485  -2.445  -0.172  0.00  0.00    +0.140 HD
ENDBRANCH  20  22
ENDBRANCH   4  20
TORSDOF 6
