REMARK  Name = ZINC00959851
REMARK  9 active torsions:
REMARK  status: ('A' for Active; 'I' for Inactive)
REMARK    1  A    between atoms: C_1  and  O_2
REMARK    2  A    between atoms: O_2  and  C_3
REMARK    3  A    between atoms: C_5  and  C_12
REMARK    4  A    between atoms: C_7  and  O_10
REMARK    5  A    between atoms: C_8  and  O_9
REMARK    6  A    between atoms: O_10  and  C_11
REMARK    7  A    between atoms: C_19  and  S_30
REMARK    8  A    between atoms: S_30  and  C_31
REMARK    9  A    between atoms: C_31  and  C_32
REMARK                            x       y       z     vdW  Elec       q    Type
REMARK                         _______ _______ _______ _____ _____    ______ ____
ROOT
ATOM      1  C   UNL     1      -0.013   1.086   0.008  0.00  0.00    +0.093 C 
ATOM      2  C   UNL     1      -0.779   1.573  -1.185  0.00  0.00    +0.069 A 
ATOM      3  C   UNL     1      -1.971   0.944  -1.565  0.00  0.00    +0.258 A 
ATOM      4  O   UNL     1      -2.399  -0.010  -0.935  0.00  0.00    -0.267 OA
ATOM      5  N   UNL     1      -2.637   1.411  -2.642  0.00  0.00    -0.302 N 
ATOM      6  H   UNL     1      -3.463   0.987  -2.922  0.00  0.00    +0.171 HD
ATOM      7  C   UNL     1      -2.151   2.478  -3.337  0.00  0.00    +0.171 A 
ATOM      8  N   UNL     1      -1.029   3.072  -2.984  0.00  0.00    -0.208 NA
ATOM      9  C   UNL     1      -0.326   2.649  -1.928  0.00  0.00    +0.135 A 
ATOM     10  N   UNL     1       0.851   3.278  -1.573  0.00  0.00    -0.302 N 
ATOM     11  C   UNL     1       1.765   2.646  -0.774  0.00  0.00    +0.017 C 
ATOM     12  C   UNL     1       1.405   1.598  -0.003  0.00  0.00    +0.024 C 
ATOM     13  C   UNL     1       2.343   0.950   0.821  0.00  0.00    +0.162 C 
ATOM     14  O   UNL     1       1.992  -0.002   1.489  0.00  0.00    -0.292 OA
ATOM     15  C   UNL     1       3.772   1.413   0.891  0.00  0.00    +0.080 C 
ATOM     16  C   UNL     1       3.825   2.914   0.588  0.00  0.00    +0.014 C 
ATOM     17  C   UNL     1       3.187   3.152  -0.782  0.00  0.00    +0.051 C 
ATOM     18  H   UNL     1       1.031   4.176  -1.891  0.00  0.00    +0.153 HD
ENDROOT
BRANCH   1  21
ATOM     19  C   UNL     1      -1.819   1.078   3.328  0.00  0.00    +0.165 A 
ATOM     20  C   UNL     1      -1.186   0.644   2.173  0.00  0.00    +0.054 A 
ATOM     21  C   UNL     1      -0.700   1.562   1.262  0.00  0.00    -0.028 A 
ATOM     22  C   UNL     1      -0.837   2.917   1.500  0.00  0.00    +0.054 A 
ATOM     23  C   UNL     1      -1.474   3.360   2.650  0.00  0.00    +0.165 A 
ATOM     24  C   UNL     1      -1.964   2.439   3.568  0.00  0.00    +0.201 A 
BRANCH  19  26
ATOM     25  C   UNL     1      -2.114  -1.208   3.911  0.00  0.00    +0.277 C 
ATOM     26  O   UNL     1      -2.298   0.174   4.223  0.00  0.00    -0.491 OA
ENDBRANCH  19  26
BRANCH  24  27
ATOM     27  O   UNL     1      -2.585   2.870   4.700  0.00  0.00    -0.501 OA
ATOM     28  H   UNL     1      -1.988   3.002   5.450  0.00  0.00    +0.292 HD
ENDBRANCH  24  27
BRANCH  23  29
ATOM     29  O   UNL     1      -1.613   4.693   2.880  0.00  0.00    -0.491 OA
ATOM     30  C   UNL     1      -1.085   5.581   1.893  0.00  0.00    +0.277 C 
ENDBRANCH  23  29
ENDBRANCH   1  21
BRANCH   7  31
ATOM     31  S   UNL     1      -3.040   3.074  -4.736  0.00  0.00    -0.083 S 
BRANCH  31  32
ATOM     32  C   UNL     1      -1.964   4.442  -5.233  0.00  0.00    +0.115 C 
BRANCH  32  33
ATOM     33  C   UNL     1      -2.543   5.121  -6.448  0.00  0.00    -0.002 A 
ATOM     34  C   UNL     1      -2.188   4.693  -7.713  0.00  0.00    +0.007 A 
ATOM     35  C   UNL     1      -2.723   5.312  -8.828  0.00  0.00    +0.000 A 
ATOM     36  C   UNL     1      -3.605   6.366  -8.678  0.00  0.00    +0.003 A 
ATOM     37  C   UNL     1      -3.957   6.798  -7.413  0.00  0.00    +0.038 A 
ATOM     38  C   UNL     1      -3.426   6.176  -6.296  0.00  0.00    +0.127 A 
ATOM     39  F   UNL     1      -3.769   6.598  -5.060  0.00  0.00    -0.205 F 
ENDBRANCH  32  33
ENDBRANCH  31  32
ENDBRANCH   7  31
TORSDOF 7
