REMARK  Name = ZINC48452941
REMARK  3 active torsions:
REMARK  status: ('A' for Active; 'I' for Inactive)
REMARK    1  A    between atoms: C_3  and  N_9
REMARK    2  A    between atoms: N_12  and  C_13
REMARK    3  A    between atoms: C_13  and  C_14
REMARK                            x       y       z     vdW  Elec       q    Type
REMARK                         _______ _______ _______ _____ _____    ______ ____
ROOT
ATOM      1  N   UNL     1       3.585   2.128  -0.021  0.00  0.00    -0.268 N 
ATOM      2  C   UNL     1       3.568   3.472  -0.116  0.00  0.00    +0.304 C 
ATOM      3  O   UNL     1       2.510   4.070  -0.103  0.00  0.00    -0.252 OA
ATOM      4  N   UNL     1       4.726   4.154  -0.225  0.00  0.00    -0.292 N 
ATOM      5  H   UNL     1       4.430   1.657   0.051  0.00  0.00    +0.156 HD
ATOM      6  H   UNL     1       5.571   3.678  -0.236  0.00  0.00    +0.151 HD
ENDROOT
BRANCH   1   9
ATOM      7  C   UNL     1       0.066   1.244  -0.626  0.00  0.00    +0.040 A 
ATOM      8  C   UNL     1       1.252   1.953  -0.622  0.00  0.00    +0.027 A 
ATOM      9  C   UNL     1       2.381   1.411  -0.026  0.00  0.00    +0.049 A 
ATOM     10  C   UNL     1       2.318   0.155   0.565  0.00  0.00    +0.042 A 
ATOM     11  C   UNL     1       1.130  -0.551   0.558  0.00  0.00    +0.055 A 
ATOM     12  C   UNL     1       0.004  -0.007  -0.037  0.00  0.00    +0.125 A 
ATOM     13  F   UNL     1      -1.157  -0.699  -0.043  0.00  0.00    -0.205 F 
ATOM     14 BR   UNL     1       3.856  -0.588   1.377  0.00  0.00    -0.048 Br
ENDBRANCH   1   9
BRANCH   4  15
ATOM     15  C   UNL     1       4.708   5.616  -0.329  0.00  0.00    +0.182 C 
BRANCH  15  16
ATOM     16  C   UNL     1       6.120   6.129  -0.439  0.00  0.00    +0.151 A 
ATOM     17  N   UNL     1       6.903   6.462   0.551  0.00  0.00    -0.133 NA
ATOM     18  N   UNL     1       8.037   6.857   0.092  0.00  0.00    -0.134 NA
ATOM     19  C   UNL     1       8.028   6.796  -1.213  0.00  0.00    +0.134 A 
ATOM     20  N   UNL     1       6.817   6.325  -1.586  0.00  0.00    -0.313 N 
ATOM     21  C   UNL     1       6.720   6.209  -3.046  0.00  0.00    +0.125 C 
ATOM     22  C   UNL     1       7.873   7.070  -3.607  0.00  0.00    +0.029 C 
ATOM     23  C   UNL     1       8.879   7.058  -2.437  0.00  0.00    +0.078 C 
ENDBRANCH  15  16
ENDBRANCH   4  15
TORSDOF 3
