REMARK  Name = ZINC43357367
REMARK  6 active torsions:
REMARK  status: ('A' for Active; 'I' for Inactive)
REMARK    1  A    between atoms: C_1  and  C_2
REMARK    2  A    between atoms: C_7  and  N_8
REMARK    3  A    between atoms: N_11  and  C_12
REMARK    4  A    between atoms: C_12  and  C_13
REMARK    5  A    between atoms: C_15  and  N_20
REMARK    6  A    between atoms: C_18  and  O_19
REMARK                            x       y       z     vdW  Elec       q    Type
REMARK                         _______ _______ _______ _____ _____    ______ ____
ROOT
ATOM      1  N   UNL     1       0.025  -0.014   2.417  0.00  0.00    -0.269 N 
ATOM      2  C   UNL     1      -0.056  -0.693   3.578  0.00  0.00    +0.304 C 
ATOM      3  O   UNL     1      -0.040  -1.909   3.574  0.00  0.00    -0.252 OA
ATOM      4  N   UNL     1      -0.156  -0.025   4.745  0.00  0.00    -0.295 N 
ATOM      5  H   UNL     1       0.078   0.955   2.425  0.00  0.00    +0.156 HD
ATOM      6  H   UNL     1      -0.169   0.945   4.748  0.00  0.00    +0.151 HD
ENDROOT
BRANCH   1  13
ATOM      7  C   UNL     1      -1.265   1.183   0.181  0.00  0.00    +0.045 C 
ATOM      8  C   UNL     1      -0.584  -0.158   0.085  0.00  0.00    -0.029 A 
ATOM      9  C   UNL     1      -0.570  -0.840  -1.117  0.00  0.00    +0.006 A 
ATOM     10  C   UNL     1       0.054  -2.070  -1.207  0.00  0.00    +0.020 A 
ATOM     11  C   UNL     1       0.666  -2.623  -0.095  0.00  0.00    +0.043 A 
ATOM     12  C   UNL     1       0.655  -1.944   1.109  0.00  0.00    +0.043 A 
ATOM     13  C   UNL     1       0.034  -0.706   1.201  0.00  0.00    +0.039 A 
ATOM     14 CL   UNL     1       1.448  -4.168  -0.213  0.00  0.00    -0.083 Cl
ENDBRANCH   1  13
BRANCH   4  15
ATOM     15  C   UNL     1      -0.245  -0.763   6.007  0.00  0.00    +0.144 C 
BRANCH  15  16
ATOM     16  C   UNL     1      -0.347   0.210   7.152  0.00  0.00    +0.013 A 
ATOM     17  C   UNL     1      -1.556   0.402   7.792  0.00  0.00    +0.041 A 
ATOM     18  C   UNL     1      -1.651   1.295   8.842  0.00  0.00    +0.127 A 
ATOM     19  C   UNL     1      -0.535   1.999   9.257  0.00  0.00    +0.036 A 
ATOM     20  C   UNL     1       0.677   1.812   8.621  0.00  0.00    +0.048 A 
ATOM     21  C   UNL     1       0.775   0.911   7.569  0.00  0.00    +0.122 A 
BRANCH  18  22
ATOM     22  N   UNL     1      -2.948   1.498   9.525  0.00  0.00    +0.056 N 
ATOM     23  O   UNL     1      -3.924   0.883   9.164  0.00  0.00    -0.126 OA
ATOM     24  O   UNL     1      -3.032   2.279  10.444  0.00  0.00    -0.126 OA
ENDBRANCH  18  22
BRANCH  21  25
ATOM     25  O   UNL     1       1.968   0.721   6.946  0.00  0.00    -0.506 OA
ATOM     26  H   UNL     1       2.119   1.315   6.197  0.00  0.00    +0.292 HD
ENDBRANCH  21  25
ENDBRANCH  15  16
ENDBRANCH   4  15
TORSDOF 5
