REMARK  Name = ZINC35097755
REMARK  14 active torsions:
REMARK  status: ('A' for Active; 'I' for Inactive)
REMARK    1  A    between atoms: C_1  and  C_2
REMARK    2  A    between atoms: C_2  and  C_3
REMARK    3  A    between atoms: C_3  and  C_5
REMARK    4  A    between atoms: C_3  and  C_6
REMARK    5  A    between atoms: C_6  and  C_8
REMARK    6  A    between atoms: C_6  and  N_24
REMARK    7  A    between atoms: C_14  and  C_17
REMARK    8  A    between atoms: N_20  and  C_21
REMARK    9  A    between atoms: C_21  and  C_22
REMARK   10  A    between atoms: C_21  and  C_23
REMARK   11  A    between atoms: C_25  and  C_27
REMARK   12  A    between atoms: C_27  and  C_28
REMARK   13  A    between atoms: C_27  and  C_29
REMARK   14  A    between atoms: C_27  and  C_30
REMARK                            x       y       z     vdW  Elec       q    Type
REMARK                         _______ _______ _______ _____ _____    ______ ____
ROOT
ATOM      1  C   UNL     1      -0.816  -2.491  -1.381  0.00  0.00    +0.236 C 
ATOM      2  O   UNL     1      -1.288  -3.123  -0.460  0.00  0.00    -0.274 OA
ATOM      3  N   UNL     1      -1.582  -2.177  -2.445  0.00  0.00    -0.297 N 
ATOM      4  C   UNL     1      -0.999  -1.504  -3.614  0.00  0.00    +0.127 C 
ATOM      5  C   UNL     1      -1.790  -0.219  -3.885  0.00  0.00    +0.128 C 
ATOM      6  N   UNL     1      -3.223  -0.544  -3.897  0.00  0.00    -0.280 N 
ATOM      7  C   UNL     1      -3.807  -1.216  -2.728  0.00  0.00    +0.092 C 
ATOM      8  C   UNL     1      -3.014  -2.507  -2.459  0.00  0.00    +0.130 C 
ATOM      9  C   UNL     1      -3.726  -0.293  -1.511  0.00  0.00    +0.030 C 
ATOM     10  C   UNL     1      -3.989  -0.230  -4.961  0.00  0.00    +0.303 C 
ATOM     11  O   UNL     1      -5.148  -0.595  -5.004  0.00  0.00    -0.253 OA
ATOM     12  N   UNL     1      -3.470   0.489  -5.976  0.00  0.00    -0.297 N 
ATOM     13  H   UNL     1      -2.528   0.719  -5.976  0.00  0.00    +0.150 HD
ENDROOT
BRANCH  12  14
ATOM     14  C   UNL     1      -4.330   0.923  -7.080  0.00  0.00    +0.068 C 
ATOM     15  C   UNL     1      -3.731   2.171  -7.732  0.00  0.00    +0.027 C 
ATOM     16  C   UNL     1      -4.431  -0.197  -8.118  0.00  0.00    +0.027 C 
ENDBRANCH  12  14
BRANCH   1  17
ATOM     17  C   UNL     1       0.627  -2.058  -1.337  0.00  0.00    +0.162 C 
BRANCH  17  18
ATOM     18  N   UNL     1       1.377  -2.947  -0.447  0.00  0.00    -0.303 N 
ATOM     19  C   UNL     1       2.705  -3.103  -0.614  0.00  0.00    +0.219 C 
ATOM     20  O   UNL     1       3.280  -2.507  -1.500  0.00  0.00    -0.275 OA
ATOM     21  H   UNL     1       0.918  -3.424   0.262  0.00  0.00    +0.149 HD
BRANCH  19  22
ATOM     22  C   UNL     1       3.477  -4.018   0.302  0.00  0.00    +0.039 C 
ATOM     23  C   UNL     1       4.954  -4.014  -0.100  0.00  0.00    +0.020 C 
ATOM     24  C   UNL     1       3.340  -3.529   1.745  0.00  0.00    +0.020 C 
ATOM     25  C   UNL     1       2.921  -5.439   0.190  0.00  0.00    +0.020 C 
ENDBRANCH  19  22
ENDBRANCH  17  18
BRANCH  17  26
ATOM     26  C   UNL     1       0.712  -0.622  -0.814  0.00  0.00    +0.015 C 
ATOM     27  C   UNL     1       2.174  -0.170  -0.801  0.00  0.00    +0.010 C 
BRANCH  26  29
ATOM     28  C   UNL     1       0.117   0.891   1.083  0.00  0.00    +0.004 C 
ATOM     29  C   UNL     1       0.147  -0.563   0.606  0.00  0.00    +0.002 C 
ENDBRANCH  26  29
ENDBRANCH  17  26
ENDBRANCH   1  17
TORSDOF 6
