REMARK  Name = ZINC41201728
REMARK  4 active torsions:
REMARK  status: ('A' for Active; 'I' for Inactive)
REMARK    1  A    between atoms: C_9  and  C_12
REMARK    2  A    between atoms: C_14  and  C_17
REMARK    3  A    between atoms: C_17  and  C_18
REMARK    4  A    between atoms: C_18  and  N_19
REMARK                            x       y       z     vdW  Elec       q    Type
REMARK                         _______ _______ _______ _____ _____    ______ ____
ROOT
ATOM      1  C   UNL     1       4.898  -2.639  -0.071  0.00  0.00    +0.272 A 
ATOM      2  N   UNL     1       5.600  -3.462   0.658  0.00  0.00    -0.193 NA
ATOM      3  C   UNL     1       6.699  -3.839  -0.003  0.00  0.00    +0.170 A 
ATOM      4  N   UNL     1       6.710  -3.257  -1.169  0.00  0.00    -0.061 NA
ATOM      5  O   UNL     1       5.532  -2.468  -1.238  0.00  0.00    -0.334 OA
ENDROOT
BRANCH   1  14
ATOM      6  C   UNL     1      -0.017   1.378   0.010  0.00  0.00    +0.004 A 
ATOM      7  C   UNL     1       1.170   2.088   0.002  0.00  0.00    +0.004 A 
ATOM      8  C   UNL     1       2.378   1.418  -0.014  0.00  0.00    +0.049 A 
ATOM      9  C   UNL     1       2.404   0.031  -0.023  0.00  0.00    +0.163 A 
ATOM     10  C   UNL     1       1.212  -0.683  -0.013  0.00  0.00    +0.162 A 
ATOM     11  C   UNL     1       0.002  -0.004   0.002  0.00  0.00    +0.049 A 
ATOM     12  O   UNL     1       1.214  -2.044  -0.013  0.00  0.00    -0.484 OA
ATOM     13  C   UNL     1       2.434  -2.685  -0.404  0.00  0.00    +0.283 C 
ATOM     14  C   UNL     1       3.594  -1.997   0.328  0.00  0.00    +0.298 C 
ATOM     15  O   UNL     1       3.602  -0.615  -0.043  0.00  0.00    -0.472 OA
ENDBRANCH   1  14
BRANCH   3  16
ATOM     16  C   UNL     1       7.754  -4.782   0.515  0.00  0.00    +0.060 C 
BRANCH  16  17
ATOM     17  C   UNL     1       7.390  -6.217   0.128  0.00  0.00    -0.079 C 
BRANCH  17  18
ATOM     18  N   UNL     1       8.418  -7.136   0.634  0.00  0.00    +0.378 N 
ATOM     19  H   UNL     1       9.311  -6.896   0.231  0.00  0.00    -0.090 HD
ATOM     20  H   UNL     1       8.470  -7.062   1.638  0.00  0.00    -0.090 HD
ATOM     21  H   UNL     1       8.178  -8.082   0.378  0.00  0.00    -0.090 HD
ENDBRANCH  17  18
ENDBRANCH  16  17
ENDBRANCH   3  16
TORSDOF 4
