REMARK  Name = ZINC61708883
REMARK  5 active torsions:
REMARK  status: ('A' for Active; 'I' for Inactive)
REMARK    1  A    between atoms: C_3  and  O_18
REMARK    2  A    between atoms: C_4  and  N_17
REMARK    3  A    between atoms: C_6  and  S_7
REMARK    4  A    between atoms: S_7  and  N_10
REMARK    5  A    between atoms: C_13  and  O_16
REMARK                            x       y       z     vdW  Elec       q    Type
REMARK                         _______ _______ _______ _____ _____    ______ ____
ROOT
ATOM      1  C   UNL     1      -0.017   1.378   0.010  0.00  0.00    +0.032 A 
ATOM      2  C   UNL     1       1.169   2.090   0.002  0.00  0.00    +0.049 A 
ATOM      3  C   UNL     1       2.380   1.418  -0.013  0.00  0.00    +0.137 A 
ATOM      4  C   UNL     1       2.400   0.024  -0.021  0.00  0.00    +0.068 A 
ATOM      5  C   UNL     1       1.207  -0.682  -0.013  0.00  0.00    +0.055 A 
ATOM      6  C   UNL     1       0.002  -0.004   0.002  0.00  0.00    +0.107 A 
ENDROOT
BRANCH   6   7
ATOM      7  S   UNL     1      -1.513  -0.904   0.012  0.00  0.00    +0.061 S 
ATOM      8  O   UNL     1      -1.221  -2.185   0.553  0.00  0.00    -0.153 OA
ATOM      9  O   UNL     1      -2.492  -0.043   0.578  0.00  0.00    -0.153 OA
BRANCH   7  10
ATOM     10  N   UNL     1      -1.950  -1.145  -1.567  0.00  0.00    -0.174 NA
ATOM     11  C   UNL     1      -2.783  -0.237  -2.376  0.00  0.00    +0.112 C 
ATOM     12  C   UNL     1      -2.393  -0.544  -3.844  0.00  0.00    +0.050 C 
ATOM     13  C   UNL     1      -2.180  -2.081  -3.794  0.00  0.00    +0.131 C 
ATOM     14  C   UNL     1      -1.566  -2.297  -2.395  0.00  0.00    +0.140 C 
BRANCH  13  15
ATOM     15  O   UNL     1      -1.272  -2.498  -4.816  0.00  0.00    -0.390 OA
ATOM     16  H   UNL     1      -1.577  -2.311  -5.714  0.00  0.00    +0.210 HD
ENDBRANCH  13  15
ENDBRANCH   7  10
ENDBRANCH   6   7
BRANCH   4  17
ATOM     17  N   UNL     1       3.621  -0.660  -0.037  0.00  0.00    -0.355 N 
ATOM     18  H   UNL     1       4.455  -0.164  -0.043  0.00  0.00    +0.142 HD
ATOM     19  H   UNL     1       3.633  -1.630  -0.043  0.00  0.00    +0.142 HD
ENDBRANCH   4  17
BRANCH   3  20
ATOM     20  O   UNL     1       3.547   2.116  -0.022  0.00  0.00    -0.505 OA
ATOM     21  H   UNL     1       3.894   2.314   0.859  0.00  0.00    +0.292 HD
ENDBRANCH   3  20
TORSDOF 5
