REMARK  Name = ZINC42266800
REMARK  3 active torsions:
REMARK  status: ('A' for Active; 'I' for Inactive)
REMARK    1  A    between atoms: C_3  and  C_9
REMARK    2  A    between atoms: N_11  and  S_12
REMARK    3  A    between atoms: S_12  and  C_15
REMARK                            x       y       z     vdW  Elec       q    Type
REMARK                         _______ _______ _______ _____ _____    ______ ____
ROOT
ATOM      1  C   UNL     1       3.655   2.167  -0.022  0.00  0.00    +0.298 C 
ATOM      2  O   UNL     1       3.638   3.519  -0.015  0.00  0.00    -0.264 OA
ATOM      3  N   UNL     1       4.790   1.531  -0.036  0.00  0.00    -0.085 NA
ENDROOT
BRANCH   1   6
ATOM      4  C   UNL     1      -0.017   1.381   0.010  0.00  0.00    +0.021 A 
ATOM      5  C   UNL     1       1.166   2.091   0.002  0.00  0.00    +0.017 A 
ATOM      6  C   UNL     1       2.385   1.411  -0.013  0.00  0.00    +0.078 A 
ATOM      7  C   UNL     1       2.399   0.013  -0.021  0.00  0.00    +0.137 A 
ATOM      8  C   UNL     1       1.206  -0.686  -0.013  0.00  0.00    +0.059 A 
ATOM      9  C   UNL     1       0.002  -0.004   0.002  0.00  0.00    +0.044 A 
ATOM     10 CL   UNL     1      -1.492  -0.889   0.012  0.00  0.00    -0.083 Cl
ATOM     11  F   UNL     1       3.574  -0.652  -0.036  0.00  0.00    -0.205 F 
ENDBRANCH   1   6
BRANCH   3  12
ATOM     12  S   UNL     1       6.213   2.377  -0.045  0.00  0.00    +0.108 S 
ATOM     13  O   UNL     1       6.269   3.064  -1.288  0.00  0.00    -0.146 OA
ATOM     14  O   UNL     1       6.293   3.052   1.203  0.00  0.00    -0.146 OA
BRANCH  12  15
ATOM     15  C   UNL     1       7.521   1.196  -0.064  0.00  0.00    +0.151 A 
ATOM     16  C   UNL     1       8.148   0.634  -1.126  0.00  0.00    +0.038 A 
ATOM     17  C   UNL     1       9.160  -0.281  -0.900  0.00  0.00    +0.030 A 
ATOM     18  C   UNL     1       9.495  -0.588   0.378  0.00  0.00    +0.080 A 
ATOM     19  S   UNL     1       8.369   0.436   1.311  0.00  0.00    -0.056 S 
ATOM     20 CL   UNL     1      10.709  -1.686   0.956  0.00  0.00    -0.076 Cl
ENDBRANCH  12  15
ENDBRANCH   3  12
TORSDOF 3
