REMARK  Name = ZINC14651162
REMARK  10 active torsions:
REMARK  status: ('A' for Active; 'I' for Inactive)
REMARK    1  A    between atoms: C_1  and  C_2
REMARK    2  A    between atoms: C_2  and  N_3
REMARK    3  A    between atoms: N_3  and  C_4
REMARK    4  A    between atoms: N_3  and  C_6
REMARK    5  A    between atoms: C_4  and  C_5
REMARK    6  A    between atoms: C_6  and  C_7
REMARK    7  A    between atoms: C_7  and  N_8
REMARK    8  A    between atoms: N_17  and  C_18
REMARK    9  A    between atoms: C_18  and  C_20
REMARK   10  A    between atoms: C_21  and  C_29
REMARK                            x       y       z     vdW  Elec       q    Type
REMARK                         _______ _______ _______ _____ _____    ______ ____
ROOT
ATOM      1  N   UNL     1      -0.607  -3.778   2.104  0.00  0.00    -0.314 N 
ATOM      2  C   UNL     1      -1.567  -4.484   2.821  0.00  0.00    +0.068 A 
ATOM      3  C   UNL     1      -2.761  -4.114   3.423  0.00  0.00    +0.028 A 
ATOM      4  C   UNL     1      -3.522  -5.059   4.081  0.00  0.00    +0.002 A 
ATOM      5  C   UNL     1      -3.099  -6.376   4.144  0.00  0.00    +0.002 A 
ATOM      6  C   UNL     1      -1.913  -6.755   3.548  0.00  0.00    +0.028 A 
ATOM      7  C   UNL     1      -1.141  -5.813   2.883  0.00  0.00    +0.066 A 
ATOM      8  N   UNL     1       0.070  -5.888   2.203  0.00  0.00    -0.326 N 
ATOM      9  C   UNL     1       0.374  -4.646   1.734  0.00  0.00    +0.201 A 
ATOM     10  N   UNL     1       1.454  -4.332   1.032  0.00  0.00    -0.140 NA
ATOM     11  H   UNL     1       0.605  -6.688   2.081  0.00  0.00    +0.169 HD
ENDROOT
BRANCH  10  12
ATOM     12  C   UNL     1       2.292  -5.296   0.624  0.00  0.00    +0.306 C 
ATOM     13  O   UNL     1       2.014  -6.467   0.818  0.00  0.00    -0.265 OA
BRANCH  12  14
ATOM     14  C   UNL     1       3.549  -4.940  -0.057  0.00  0.00    +0.195 A 
ATOM     15  C   UNL     1       4.466  -5.827  -0.516  0.00  0.00    +0.008 A 
ATOM     16  C   UNL     1       5.538  -5.030  -1.113  0.00  0.00    +0.024 A 
ATOM     17  C   UNL     1       6.745  -5.339  -1.746  0.00  0.00    +0.012 A 
ATOM     18  C   UNL     1       7.545  -4.332  -2.205  0.00  0.00    +0.001 A 
ATOM     19  C   UNL     1       7.168  -3.006  -2.048  0.00  0.00    +0.004 A 
ATOM     20  C   UNL     1       5.981  -2.680  -1.427  0.00  0.00    +0.047 A 
ATOM     21  C   UNL     1       5.150  -3.688  -0.952  0.00  0.00    +0.136 A 
ATOM     22  O   UNL     1       3.958  -3.682  -0.324  0.00  0.00    -0.450 OA
ATOM     23  C   UNL     1       4.396  -7.330  -0.428  0.00  0.00    +0.048 C 
ENDBRANCH  12  14
ENDBRANCH  10  12
BRANCH   1  24
ATOM     24  C   UNL     1      -0.647  -2.347   1.795  0.00  0.00    +0.106 C 
BRANCH  24  25
ATOM     25  C   UNL     1      -1.373  -2.132   0.465  0.00  0.00    -0.057 C 
BRANCH  25  26
ATOM     26  N   UNL     1      -1.413  -0.697   0.155  0.00  0.00    +0.380 N 
ATOM     27  H   UNL     1      -1.831  -0.198   0.926  0.00  0.00    -0.082 HD
BRANCH  26  29
ATOM     28  C   UNL     1      -0.075   1.314  -0.248  0.00  0.00    -0.017 C 
ATOM     29  C   UNL     1      -0.046  -0.205  -0.065  0.00  0.00    -0.082 C 
ENDBRANCH  26  29
BRANCH  26  30
ATOM     30  C   UNL     1      -2.212  -0.481  -1.059  0.00  0.00    -0.082 C 
ATOM     31  C   UNL     1      -3.669  -0.860  -0.784  0.00  0.00    -0.017 C 
ENDBRANCH  26  30
ENDBRANCH  25  26
ENDBRANCH  24  25
ENDBRANCH   1  24
TORSDOF 7
