REMARK  Name = ZINC66186923
REMARK  10 active torsions:
REMARK  status: ('A' for Active; 'I' for Inactive)
REMARK    1  A    between atoms: C_1  and  C_2
REMARK    2  A    between atoms: C_2  and  C_3
REMARK    3  A    between atoms: C_3  and  C_5
REMARK    4  A    between atoms: C_3  and  N_6
REMARK    5  A    between atoms: C_7  and  C_9
REMARK    6  A    between atoms: C_9  and  C_10
REMARK    7  A    between atoms: C_10  and  N_11
REMARK    8  A    between atoms: N_14  and  C_15
REMARK    9  A    between atoms: N_14  and  C_16
REMARK   10  A    between atoms: N_19  and  C_22
REMARK                            x       y       z     vdW  Elec       q    Type
REMARK                         _______ _______ _______ _____ _____    ______ ____
ROOT
ATOM      1  N   UNL     1       6.232   0.963  -3.680  0.00  0.00    -0.299 N 
ATOM      2  C   UNL     1       6.931   1.105  -4.823  0.00  0.00    +0.302 C 
ATOM      3  O   UNL     1       6.394   0.897  -5.894  0.00  0.00    -0.253 OA
ATOM      4  N   UNL     1       8.225   1.479  -4.780  0.00  0.00    -0.286 N 
ATOM      5  C   UNL     1       8.872   1.731  -3.490  0.00  0.00    +0.134 C 
ATOM      6  H   UNL     1       6.660   1.129  -2.826  0.00  0.00    +0.150 HD
ENDROOT
BRANCH   4   7
ATOM      7  C   UNL     1       8.985   1.634  -6.023  0.00  0.00    +0.074 C 
ATOM      8  C   UNL     1      10.185   0.683  -6.011  0.00  0.00    +0.004 C 
ATOM      9  C   UNL     1      11.018   0.906  -7.275  0.00  0.00    -0.077 C 
ATOM     10  N   UNL     1      11.493   2.294  -7.313  0.00  0.00    +0.382 N 
ATOM     11  C   UNL     1      10.349   3.210  -7.397  0.00  0.00    -0.077 C 
ATOM     12  C   UNL     1       9.490   3.075  -6.138  0.00  0.00    +0.004 C 
ATOM     13  H   UNL     1      12.020   2.492  -6.476  0.00  0.00    -0.081 HD
BRANCH  10  14
ATOM     14  C   UNL     1      12.356   2.483  -8.487  0.00  0.00    -0.064 C 
ATOM     15  C   UNL     1      13.562   1.543  -8.393  0.00  0.00    +0.013 C 
ATOM     16  C   UNL     1      14.495   1.802  -9.579  0.00  0.00    +0.158 C 
ATOM     17  O   UNL     1      14.896   3.174  -9.578  0.00  0.00    -0.380 OA
ATOM     18  C   UNL     1      13.814   4.098  -9.711  0.00  0.00    +0.158 C 
ATOM     19  C   UNL     1      12.854   3.931  -8.530  0.00  0.00    +0.013 C 
ENDBRANCH  10  14
ENDBRANCH   4   7
BRANCH   1  20
ATOM     20  C   UNL     1       4.825   0.556  -3.728  0.00  0.00    +0.115 C 
BRANCH  20  21
ATOM     21  C   UNL     1       4.271   0.470  -2.304  0.00  0.00    +0.114 C 
BRANCH  21  23
ATOM     22  N   UNL     1       2.125  -0.091  -1.209  0.00  0.00    -0.313 N 
ATOM     23  C   UNL     1       2.824   0.051  -2.353  0.00  0.00    +0.215 C 
ATOM     24  O   UNL     1       2.289  -0.157  -3.421  0.00  0.00    -0.276 OA
ATOM     25  H   UNL     1       2.553   0.075  -0.355  0.00  0.00    +0.149 HD
BRANCH  22  26
ATOM     26  C   UNL     1       0.718  -0.497  -1.257  0.00  0.00    +0.070 C 
ATOM     27  C   UNL     1       0.630  -2.023  -1.329  0.00  0.00    +0.028 C 
BRANCH  26  29
ATOM     28  C   UNL     1      -0.019   1.526   0.010  0.00  0.00    +0.005 C 
ATOM     29  C   UNL     1       0.002  -0.004   0.002  0.00  0.00    +0.018 C 
ENDBRANCH  26  29
ENDBRANCH  22  26
ENDBRANCH  21  23
ENDBRANCH  20  21
ENDBRANCH   1  20
TORSDOF 7
