REMARK  Name = ZINC63529838
REMARK  10 active torsions:
REMARK  status: ('A' for Active; 'I' for Inactive)
REMARK    1  A    between atoms: C_1  and  C_2
REMARK    2  A    between atoms: C_2  and  O_3
REMARK    3  A    between atoms: O_3  and  C_4
REMARK    4  A    between atoms: C_9  and  C_10
REMARK    5  A    between atoms: C_10  and  C_11
REMARK    6  A    between atoms: C_11  and  C_12
REMARK    7  A    between atoms: N_14  and  C_15
REMARK    8  A    between atoms: C_15  and  C_16
REMARK    9  A    between atoms: C_15  and  C_17
REMARK   10  A    between atoms: C_21  and  C_23
REMARK                            x       y       z     vdW  Elec       q    Type
REMARK                         _______ _______ _______ _____ _____    ______ ____
ROOT
ATOM      1  C   UNL     1      -5.537  -0.185  -1.384  0.00  0.00    +0.214 C 
ATOM      2  O   UNL     1      -6.068   0.099  -0.332  0.00  0.00    -0.276 OA
ATOM      3  N   UNL     1      -6.028   0.305  -2.540  0.00  0.00    -0.306 N 
ATOM      4  H   UNL     1      -5.603   0.078  -3.382  0.00  0.00    +0.149 HD
ENDROOT
BRANCH   3   5
ATOM      5  C   UNL     1      -7.203   1.180  -2.525  0.00  0.00    +0.134 C 
ATOM      6  C   UNL     1      -8.473   0.327  -2.517  0.00  0.00    +0.036 C 
BRANCH   5   7
ATOM      7  C   UNL     1      -7.193   2.056  -3.751  0.00  0.00    +0.105 A 
ATOM      8  N   UNL     1      -6.668   1.722  -4.950  0.00  0.00    -0.348 N 
ATOM      9  H   UNL     1      -6.234   0.883  -5.173  0.00  0.00    +0.167 HD
ATOM     10  C   UNL     1      -6.860   2.781  -5.791  0.00  0.00    +0.110 A 
ATOM     11  C   UNL     1      -7.503   3.739  -5.072  0.00  0.00    +0.064 A 
ATOM     12  N   UNL     1      -7.695   3.256  -3.828  0.00  0.00    -0.342 N 
ATOM     13  H   UNL     1      -8.135   3.729  -3.104  0.00  0.00    +0.167 HD
BRANCH  11  14
ATOM     14  C   UNL     1      -7.923   5.072  -5.569  0.00  0.00    -0.000 A 
ATOM     15  C   UNL     1      -8.572   5.963  -4.717  0.00  0.00    +0.010 A 
ATOM     16  C   UNL     1      -8.961   7.202  -5.184  0.00  0.00    +0.001 A 
ATOM     17  C   UNL     1      -8.707   7.560  -6.496  0.00  0.00    +0.000 A 
ATOM     18  C   UNL     1      -8.063   6.679  -7.346  0.00  0.00    +0.001 A 
ATOM     19  C   UNL     1      -7.664   5.440  -6.888  0.00  0.00    +0.010 A 
ENDBRANCH  11  14
ENDBRANCH   5   7
ENDBRANCH   3   5
BRANCH   1  20
ATOM     20  C   UNL     1      -4.328  -1.085  -1.400  0.00  0.00    +0.100 C 
BRANCH  20  21
ATOM     21  C   UNL     1      -3.981  -1.497   0.032  0.00  0.00    +0.048 C 
BRANCH  21  27
ATOM     22  C   UNL     1      -1.498  -1.848   0.006  0.00  0.00    +0.124 A 
ATOM     23  C   UNL     1      -0.387  -2.679  -0.003  0.00  0.00    +0.046 A 
ATOM     24  C   UNL     1      -0.552  -4.051  -0.008  0.00  0.00    +0.004 A 
ATOM     25  C   UNL     1      -1.823  -4.596  -0.004  0.00  0.00    +0.000 A 
ATOM     26  C   UNL     1      -2.932  -3.769   0.004  0.00  0.00    +0.007 A 
ATOM     27  C   UNL     1      -2.772  -2.397   0.016  0.00  0.00    -0.005 A 
BRANCH  22  28
ATOM     28  O   UNL     1      -1.339  -0.499   0.012  0.00  0.00    -0.492 OA
BRANCH  28  30
ATOM     29  C   UNL     1      -0.019   1.526   0.010  0.00  0.00    +0.048 C 
ATOM     30  C   UNL     1       0.002  -0.004   0.002  0.00  0.00    +0.225 C 
ENDBRANCH  28  30
ENDBRANCH  22  28
ENDBRANCH  21  27
ENDBRANCH  20  21
ENDBRANCH   1  20
TORSDOF 8
