REMARK  Name = ZINC61743086
REMARK  3 active torsions:
REMARK  status: ('A' for Active; 'I' for Inactive)
REMARK    1  A    between atoms: C_7  and  C_8
REMARK    2  A    between atoms: N_10  and  N_11
REMARK    3  A    between atoms: N_14  and  C_15
REMARK                            x       y       z     vdW  Elec       q    Type
REMARK                         _______ _______ _______ _____ _____    ______ ____
ROOT
ATOM      1  N   UNL     1      -2.876  -2.348  -0.641  0.00  0.00    -0.218 N 
ATOM      2  C   UNL     1      -3.093  -3.677  -0.699  0.00  0.00    +0.316 C 
ATOM      3  O   UNL     1      -4.206  -4.102  -0.943  0.00  0.00    -0.251 OA
ATOM      4  N   UNL     1      -2.076  -4.536  -0.486  0.00  0.00    -0.293 N 
ATOM      5  H   UNL     1      -3.608  -1.730  -0.794  0.00  0.00    +0.174 HD
ATOM      6  H   UNL     1      -1.188  -4.197  -0.291  0.00  0.00    +0.151 HD
ENDROOT
BRANCH   4   7
ATOM      7  C   UNL     1      -2.311  -5.980  -0.549  0.00  0.00    +0.037 C 
ATOM      8  C   UNL     1      -3.353  -6.373   0.500  0.00  0.00    +0.029 C 
ATOM      9  C   UNL     1      -3.599  -7.882   0.434  0.00  0.00    -0.008 C 
ATOM     10  C   UNL     1      -2.290  -8.625   0.711  0.00  0.00    +0.007 C 
ATOM     11  C   UNL     1      -1.249  -8.232  -0.338  0.00  0.00    -0.008 C 
ATOM     12  C   UNL     1      -1.003  -6.723  -0.272  0.00  0.00    +0.029 C 
ATOM     13  C   UNL     1      -1.762  -8.604  -1.730  0.00  0.00    +0.007 C 
ATOM     14  C   UNL     1      -3.070  -7.862  -2.007  0.00  0.00    -0.008 C 
ATOM     15  C   UNL     1      -4.112  -8.255  -0.958  0.00  0.00    +0.007 C 
ATOM     16  C   UNL     1      -2.824  -6.353  -1.942  0.00  0.00    +0.029 C 
ENDBRANCH   4   7
BRANCH   1  19
ATOM     17  C   UNL     1      -1.377  -0.530  -0.301  0.00  0.00    +0.234 C 
ATOM     18  O   UNL     1      -2.292   0.242  -0.492  0.00  0.00    -0.274 OA
ATOM     19  N   UNL     1      -1.594  -1.859  -0.359  0.00  0.00    -0.233 N 
ATOM     20  H   UNL     1      -0.862  -2.477  -0.206  0.00  0.00    +0.173 HD
BRANCH  17  27
ATOM     21  C   UNL     1      -0.019   1.534   0.011  0.00  0.00    +0.037 C 
ATOM     22  C   UNL     1       1.429   2.081  -0.000  0.00  0.00    +0.166 C 
ATOM     23  S   UNL     1       2.358   0.748  -0.862  0.00  0.00    -0.030 S 
ATOM     24  O   UNL     1       3.316   0.199   0.034  0.00  0.00    -0.174 OA
ATOM     25  O   UNL     1       2.781   1.225  -2.131  0.00  0.00    -0.174 OA
ATOM     26  C   UNL     1       0.996  -0.469  -1.101  0.00  0.00    +0.178 C 
ATOM     27  C   UNL     1       0.002  -0.004   0.002  0.00  0.00    +0.099 C 
ENDBRANCH  17  27
ENDBRANCH   1  19
TORSDOF 3
