REMARK  Name = ZINC67346988
REMARK  9 active torsions:
REMARK  status: ('A' for Active; 'I' for Inactive)
REMARK    1  A    between atoms: C_1  and  C_2
REMARK    2  A    between atoms: C_2  and  O_3
REMARK    3  A    between atoms: O_3  and  C_4
REMARK    4  A    between atoms: C_6  and  N_11
REMARK    5  A    between atoms: C_9  and  C_10
REMARK    6  A    between atoms: N_14  and  C_15
REMARK    7  A    between atoms: C_15  and  C_16
REMARK    8  A    between atoms: C_16  and  C_17
REMARK    9  A    between atoms: C_16  and  C_18
REMARK                            x       y       z     vdW  Elec       q    Type
REMARK                         _______ _______ _______ _____ _____    ______ ____
ROOT
ATOM      1  C   UNL     1      -1.508  -1.855  -0.004  0.00  0.00    +0.125 A 
ATOM      2  C   UNL     1      -0.395  -2.681  -0.007  0.00  0.00    +0.069 A 
ATOM      3  C   UNL     1      -0.557  -4.059  -0.015  0.00  0.00    +0.038 A 
ATOM      4  C   UNL     1      -1.834  -4.607  -0.020  0.00  0.00    +0.024 A 
ATOM      5  C   UNL     1      -2.941  -3.780  -0.018  0.00  0.00    +0.009 A 
ATOM      6  C   UNL     1      -2.781  -2.408  -0.004  0.00  0.00    -0.009 A 
ATOM      7  C   UNL     1      -3.991  -1.509   0.005  0.00  0.00    +0.047 C 
ENDROOT
BRANCH   3   8
ATOM      8  N   UNL     1       0.564  -4.896  -0.018  0.00  0.00    -0.269 N 
ATOM      9  C   UNL     1       0.532  -6.069   0.646  0.00  0.00    +0.304 C 
ATOM     10  O   UNL     1      -0.498  -6.438   1.178  0.00  0.00    -0.253 OA
ATOM     11  N   UNL     1       1.640  -6.831   0.722  0.00  0.00    -0.299 N 
ATOM     12  H   UNL     1       1.365  -4.633  -0.498  0.00  0.00    +0.156 HD
ATOM     13  H   UNL     1       2.461  -6.537   0.297  0.00  0.00    +0.150 HD
BRANCH  11  14
ATOM     14  C   UNL     1       1.605  -8.106   1.444  0.00  0.00    +0.108 C 
BRANCH  14  15
ATOM     15  C   UNL     1       2.983  -8.768   1.377  0.00  0.00    -0.000 C 
ATOM     16  C   UNL     1       4.000  -7.905   2.128  0.00  0.00    +0.009 C 
ATOM     17  C   UNL     1       2.915 -10.153   2.023  0.00  0.00    +0.009 C 
ENDBRANCH  14  15
ENDBRANCH  11  14
ENDBRANCH   3   8
BRANCH   1  18
ATOM     18  O   UNL     1      -1.353  -0.505   0.004  0.00  0.00    -0.492 OA
BRANCH  18  20
ATOM     19  C   UNL     1      -0.040   1.524   0.014  0.00  0.00    +0.048 C 
ATOM     20  C   UNL     1      -0.014  -0.006   0.004  0.00  0.00    +0.225 C 
ENDBRANCH  18  20
ENDBRANCH   1  18
TORSDOF 5
