REMARK  Name = ZINC66405769
REMARK  7 active torsions:
REMARK  status: ('A' for Active; 'I' for Inactive)
REMARK    1  A    between atoms: C_1  and  C_2
REMARK    2  A    between atoms: C_7  and  C_8
REMARK    3  A    between atoms: C_8  and  C_10
REMARK    4  A    between atoms: C_8  and  N_12
REMARK    5  A    between atoms: C_13  and  C_15
REMARK    6  A    between atoms: C_15  and  N_16
REMARK    7  A    between atoms: N_19  and  C_20
REMARK                            x       y       z     vdW  Elec       q    Type
REMARK                         _______ _______ _______ _____ _____    ______ ____
ROOT
ATOM      1  N   UNL     1       0.630  -0.793   3.543  0.00  0.00    -0.295 N 
ATOM      2  C   UNL     1       1.199  -0.221   4.623  0.00  0.00    +0.231 C 
ATOM      3  O   UNL     1       1.211   0.986   4.735  0.00  0.00    -0.274 OA
ATOM      4  H   UNL     1       0.621  -1.758   3.453  0.00  0.00    +0.150 HD
ENDROOT
BRANCH   1   5
ATOM      5  C   UNL     1       0.025   0.045   2.504  0.00  0.00    +0.207 C 
BRANCH   5  12
ATOM      6  C   UNL     1      -0.018   1.503   0.010  0.00  0.00    +0.044 C 
ATOM      7  C   UNL     1       0.002  -0.004   0.002  0.00  0.00    -0.045 A 
ATOM      8  C   UNL     1       0.006  -0.689  -1.199  0.00  0.00    +0.004 A 
ATOM      9  C   UNL     1       0.025  -2.071  -1.207  0.00  0.00    +0.000 A 
ATOM     10  C   UNL     1       0.040  -2.768  -0.013  0.00  0.00    +0.000 A 
ATOM     11  C   UNL     1       0.037  -2.084   1.188  0.00  0.00    +0.007 A 
ATOM     12  C   UNL     1       0.023  -0.702   1.195  0.00  0.00    -0.010 A 
ENDBRANCH   5  12
BRANCH   5  13
ATOM     13  C   UNL     1      -1.358   0.374   2.884  0.00  0.00    +0.090 C 
ATOM     14  N   UNL     1      -2.426   0.628   3.177  0.00  0.00    -0.194 NA
ENDBRANCH   5  13
ENDBRANCH   1   5
BRANCH   2  15
ATOM     15  C   UNL     1       1.822  -1.083   5.691  0.00  0.00    +0.201 C 
BRANCH  15  16
ATOM     16  N   UNL     1       2.368  -0.230   6.750  0.00  0.00    -0.291 N 
ATOM     17  C   UNL     1       2.976  -0.786   7.816  0.00  0.00    +0.300 C 
ATOM     18  O   UNL     1       3.072  -1.995   7.899  0.00  0.00    -0.253 OA
ATOM     19  N   UNL     1       3.478  -0.001   8.790  0.00  0.00    -0.297 N 
ATOM     20  H   UNL     1       2.291   0.735   6.683  0.00  0.00    +0.151 HD
ATOM     21  H   UNL     1       3.402   0.964   8.723  0.00  0.00    +0.151 HD
BRANCH  19  22
ATOM     22  C   UNL     1       4.140  -0.605   9.949  0.00  0.00    +0.074 C 
ATOM     23  C   UNL     1       3.090  -0.982  10.996  0.00  0.00    +0.022 C 
ATOM     24  C   UNL     1       3.781  -1.613  12.207  0.00  0.00    +0.002 C 
ATOM     25  C   UNL     1       4.767  -0.611  12.811  0.00  0.00    +0.000 C 
ATOM     26  C   UNL     1       5.817  -0.234  11.764  0.00  0.00    +0.002 C 
ATOM     27  C   UNL     1       5.126   0.397  10.553  0.00  0.00    +0.022 C 
ENDBRANCH  19  22
ENDBRANCH  15  16
ENDBRANCH   2  15
TORSDOF 6
