REMARK  Name = ZINC09355387
REMARK  3 active torsions:
REMARK  status: ('A' for Active; 'I' for Inactive)
REMARK    1  A    between atoms: C_4  and  C_7
REMARK    2  A    between atoms: C_7  and  N_8
REMARK    3  A    between atoms: C_9  and  C_19
REMARK                            x       y       z     vdW  Elec       q    Type
REMARK                         _______ _______ _______ _____ _____    ______ ____
ROOT
ATOM      1  N   UNL     1       1.410   1.947  -0.003  0.00  0.00    -0.282 N 
ATOM      2  C   UNL     1       0.003   1.531   0.013  0.00  0.00    +0.140 C 
ATOM      3  C   UNL     1       0.008   0.023  -0.009  0.00  0.00    -0.010 A 
ATOM      4  C   UNL     1      -0.990  -0.923  -0.008  0.00  0.00    +0.006 A 
ATOM      5  C   UNL     1      -0.667  -2.269  -0.033  0.00  0.00    +0.000 A 
ATOM      6  C   UNL     1       0.658  -2.667  -0.060  0.00  0.00    +0.001 A 
ATOM      7  C   UNL     1       1.667  -1.726  -0.061  0.00  0.00    +0.013 A 
ATOM      8  C   UNL     1       1.349  -0.367  -0.036  0.00  0.00    +0.042 A 
ATOM      9  C   UNL     1       2.185   0.849  -0.031  0.00  0.00    +0.248 C 
ATOM     10  O   UNL     1       3.400   0.857  -0.050  0.00  0.00    -0.270 OA
ENDROOT
BRANCH   2  11
ATOM     11  C   UNL     1      -0.670   2.028   1.267  0.00  0.00    +0.002 A 
ATOM     12  C   UNL     1      -0.067   2.354   2.421  0.00  0.00    +0.089 A 
ATOM     13  N   UNL     1      -0.999   2.766   3.334  0.00  0.00    -0.360 N 
ATOM     14  H   UNL     1      -0.803   3.054   4.239  0.00  0.00    +0.165 HD
ATOM     15  C   UNL     1      -2.258   2.705   2.778  0.00  0.00    +0.047 A 
ATOM     16  C   UNL     1      -2.107   2.240   1.459  0.00  0.00    +0.005 A 
ATOM     17  C   UNL     1      -3.229   2.078   0.645  0.00  0.00    +0.010 A 
ATOM     18  C   UNL     1      -4.471   2.371   1.134  0.00  0.00    +0.001 A 
ATOM     19  C   UNL     1      -4.625   2.831   2.435  0.00  0.00    +0.002 A 
ATOM     20  C   UNL     1      -3.531   2.998   3.256  0.00  0.00    +0.026 A 
ENDBRANCH   2  11
BRANCH   1  21
ATOM     21  C   UNL     1       1.891   3.331   0.010  0.00  0.00    +0.144 C 
BRANCH  21  25
ATOM     22  C   UNL     1       1.963   4.851  -3.981  0.00  0.00    +0.000 A 
ATOM     23  C   UNL     1       0.866   5.084  -3.172  0.00  0.00    +0.000 A 
ATOM     24  C   UNL     1       0.843   4.592  -1.881  0.00  0.00    +0.005 A 
ATOM     25  C   UNL     1       1.916   3.867  -1.398  0.00  0.00    -0.030 A 
ATOM     26  C   UNL     1       3.015   3.639  -2.204  0.00  0.00    +0.005 A 
ATOM     27  C   UNL     1       3.037   4.127  -3.498  0.00  0.00    +0.000 A 
ENDBRANCH  21  25
ENDBRANCH   1  21
TORSDOF 3
