REMARK  Name = ZINC42028389
REMARK  5 active torsions:
REMARK  status: ('A' for Active; 'I' for Inactive)
REMARK    1  A    between atoms: C_1  and  C_2
REMARK    2  A    between atoms: C_2  and  C_4
REMARK    3  A    between atoms: C_2  and  N_7
REMARK    4  A    between atoms: C_8  and  C_12
REMARK    5  A    between atoms: C_16  and  N_18
REMARK                            x       y       z     vdW  Elec       q    Type
REMARK                         _______ _______ _______ _____ _____    ______ ____
ROOT
ATOM      1  N   UNL     1       0.824  -0.880   1.060  0.00  0.00    -0.222 N 
ATOM      2  C   UNL     1       0.198  -1.210   2.217  0.00  0.00    +0.182 A 
ATOM      3  N   UNL     1       1.072  -1.050   3.188  0.00  0.00    -0.108 NA
ATOM      4  N   UNL     1       2.196  -0.644   2.719  0.00  0.00    -0.023 NA
ATOM      5  N   UNL     1       2.130  -0.521   1.437  0.00  0.00    -0.043 NA
ENDROOT
BRANCH   2   6
ATOM      6  C   UNL     1      -1.203  -1.665   2.360  0.00  0.00    +0.022 A 
ATOM      7  C   UNL     1      -2.185  -1.191   1.489  0.00  0.00    +0.013 A 
ATOM      8  C   UNL     1      -3.491  -1.617   1.624  0.00  0.00    +0.018 A 
ATOM      9  C   UNL     1      -3.831  -2.513   2.620  0.00  0.00    +0.039 A 
ATOM     10  C   UNL     1      -2.860  -2.991   3.492  0.00  0.00    +0.039 A 
ATOM     11  C   UNL     1      -1.544  -2.573   3.361  0.00  0.00    +0.035 A 
ATOM     12 BR   UNL     1      -5.624  -3.090   2.797  0.00  0.00    -0.048 Br
BRANCH  10  13
ATOM     13  N   UNL     1      -3.208  -3.897   4.498  0.00  0.00    -0.357 N 
ATOM     14  H   UNL     1      -4.127  -4.193   4.588  0.00  0.00    +0.142 HD
ATOM     15  H   UNL     1      -2.530  -4.231   5.106  0.00  0.00    +0.142 HD
ENDBRANCH  10  13
ENDBRANCH   2   6
BRANCH   1  17
ATOM     16  C   UNL     1       0.164   0.533  -0.824  0.00  0.00    +0.033 C 
ATOM     17  C   UNL     1       0.262  -0.898  -0.293  0.00  0.00    +0.111 C 
BRANCH  17  18
ATOM     18  C   UNL     1       1.168  -1.722  -1.210  0.00  0.00    +0.013 C 
ATOM     19  C   UNL     1       0.514  -2.826  -2.043  0.00  0.00    +0.006 C 
ATOM     20  C   UNL     1       1.395  -3.190  -0.846  0.00  0.00    +0.006 C 
ENDBRANCH  17  18
ENDBRANCH   1  17
TORSDOF 4
