REMARK  Name = ZINC39696181
REMARK  10 active torsions:
REMARK  status: ('A' for Active; 'I' for Inactive)
REMARK    1  A    between atoms: C_1  and  C_2
REMARK    2  A    between atoms: C_2  and  C_3
REMARK    3  A    between atoms: C_6  and  C_9
REMARK    4  A    between atoms: C_9  and  C_11
REMARK    5  A    between atoms: C_9  and  N_12
REMARK    6  A    between atoms: C_13  and  C_15
REMARK    7  A    between atoms: C_26  and  C_28
REMARK    8  A    between atoms: C_28  and  C_29
REMARK    9  A    between atoms: C_29  and  C_30
REMARK   10  A    between atoms: C_30  and  C_31
REMARK                            x       y       z     vdW  Elec       q    Type
REMARK                         _______ _______ _______ _____ _____    ______ ____
ROOT
ATOM      1  C   UNL     1       5.888  -0.338  -6.233  0.00  0.00    +0.100 C 
ATOM      2  C   UNL     1       6.961  -1.032  -5.365  0.00  0.00    +0.121 C 
ATOM      3  N   UNL     1       7.647  -1.964  -6.291  0.00  0.00    -0.300 N 
ATOM      4  C   UNL     1       7.750  -1.210  -7.563  0.00  0.00    +0.115 C 
ATOM      5  C   UNL     1       6.412  -0.454  -7.675  0.00  0.00    -0.004 C 
ATOM      6  C   UNL     1       6.637   0.934  -8.268  0.00  0.00    -0.010 C 
ATOM      7  C   UNL     1       7.101   0.794  -9.720  0.00  0.00    -0.082 C 
ATOM      8  N   UNL     1       6.085   0.069 -10.493  0.00  0.00    +0.379 N 
ATOM      9  C   UNL     1       5.942  -1.297  -9.974  0.00  0.00    -0.082 C 
ATOM     10  C   UNL     1       5.429  -1.245  -8.532  0.00  0.00    -0.010 C 
ATOM     11  C   UNL     1       8.079  -3.215  -6.034  0.00  0.00    +0.216 C 
ATOM     12  O   UNL     1       8.628  -3.857  -6.904  0.00  0.00    -0.276 OA
ATOM     13  H   UNL     1       5.202   0.550 -10.419  0.00  0.00    -0.086 HD
ATOM     14  H   UNL     1       6.365   0.031 -11.462  0.00  0.00    -0.086 HD
ENDROOT
BRANCH   1  16
ATOM     15  N   UNL     1       3.415  -0.363  -6.264  0.00  0.00    -0.308 N 
ATOM     16  C   UNL     1       4.564  -1.046  -6.098  0.00  0.00    +0.219 C 
ATOM     17  O   UNL     1       4.534  -2.231  -5.839  0.00  0.00    -0.275 OA
ATOM     18  H   UNL     1       3.439   0.585  -6.471  0.00  0.00    +0.149 HD
BRANCH  15  19
ATOM     19  C   UNL     1       2.128  -1.051  -6.132  0.00  0.00    +0.100 C 
ATOM     20  C   UNL     1       1.720  -1.091  -4.658  0.00  0.00    +0.033 C 
BRANCH  19  24
ATOM     21  C   UNL     1      -0.845   1.044  -8.373  0.00  0.00    -0.048 A 
ATOM     22  C   UNL     1      -0.827  -0.339  -8.371  0.00  0.00    +0.004 A 
ATOM     23  C   UNL     1       0.136  -1.016  -7.646  0.00  0.00    +0.006 A 
ATOM     24  C   UNL     1       1.080  -0.312  -6.923  0.00  0.00    -0.027 A 
ATOM     25  C   UNL     1       1.062   1.070  -6.926  0.00  0.00    +0.006 A 
ATOM     26  C   UNL     1       0.103   1.748  -7.654  0.00  0.00    +0.004 A 
BRANCH  21  28
ATOM     27  C   UNL     1      -1.378   2.036 -10.582  0.00  0.00    +0.009 C 
ATOM     28  C   UNL     1      -1.893   1.782  -9.164  0.00  0.00    +0.032 C 
ENDBRANCH  21  28
ENDBRANCH  19  24
ENDBRANCH  15  19
ENDBRANCH   1  16
BRANCH  11  29
ATOM     29  C   UNL     1       7.881  -3.815  -4.666  0.00  0.00    +0.096 C 
BRANCH  29  30
ATOM     30  C   UNL     1       8.459  -5.231  -4.642  0.00  0.00    +0.014 C 
BRANCH  30  31
ATOM     31  C   UNL     1       8.257  -5.840  -3.253  0.00  0.00    +0.035 C 
BRANCH  31  32
ATOM     32  C   UNL     1       8.826  -7.236  -3.230  0.00  0.00    -0.047 A 
ATOM     33  C   UNL     1       8.029  -8.313  -3.570  0.00  0.00    +0.003 A 
ATOM     34  C   UNL     1       8.550  -9.593  -3.548  0.00  0.00    +0.000 A 
ATOM     35  C   UNL     1       9.869  -9.796  -3.187  0.00  0.00    +0.000 A 
ATOM     36  C   UNL     1      10.666  -8.719  -2.848  0.00  0.00    +0.000 A 
ATOM     37  C   UNL     1      10.146  -7.439  -2.873  0.00  0.00    +0.003 A 
ENDBRANCH  31  32
ENDBRANCH  30  31
ENDBRANCH  29  30
ENDBRANCH  11  29
TORSDOF 8
