REMARK  Name = ZINC63758954
REMARK  10 active torsions:
REMARK  status: ('A' for Active; 'I' for Inactive)
REMARK    1  A    between atoms: C_1  and  C_2
REMARK    2  A    between atoms: C_3  and  C_13
REMARK    3  A    between atoms: C_4  and  C_12
REMARK    4  A    between atoms: C_13  and  C_14
REMARK    5  A    between atoms: N_16  and  C_17
REMARK    6  A    between atoms: C_17  and  C_18
REMARK    7  A    between atoms: C_18  and  C_19
REMARK    8  A    between atoms: C_19  and  N_20
REMARK    9  A    between atoms: C_22  and  C_27
REMARK   10  A    between atoms: C_24  and  C_26
REMARK                            x       y       z     vdW  Elec       q    Type
REMARK                         _______ _______ _______ _____ _____    ______ ____
ROOT
ATOM      1  C   UNL     1      -2.893   0.357   1.434  0.00  0.00    +0.217 C 
ATOM      2  O   UNL     1      -2.160   0.040   2.347  0.00  0.00    -0.275 OA
ATOM      3  N   UNL     1      -4.040   1.016   1.689  0.00  0.00    -0.315 N 
ATOM      4  H   UNL     1      -4.626   1.269   0.959  0.00  0.00    +0.149 HD
ENDROOT
BRANCH   1   5
ATOM      5  C   UNL     1      -2.520   0.013   0.015  0.00  0.00    +0.134 C 
BRANCH   5   8
ATOM      6  C   UNL     1      -0.018   1.503   0.010  0.00  0.00    +0.066 C 
ATOM      7  C   UNL     1       0.002  -0.004   0.002  0.00  0.00    +0.047 A 
ATOM      8  C   UNL     1      -1.202  -0.717   0.004  0.00  0.00    +0.004 A 
ATOM      9  C   UNL     1      -1.169  -2.075  -0.004  0.00  0.00    +0.049 A 
ATOM     10  N   UNL     1       0.035  -2.706  -0.013  0.00  0.00    -0.199 N 
ATOM     11  C   UNL     1       1.192  -1.980  -0.014  0.00  0.00    +0.255 A 
ATOM     12  N   UNL     1       1.151  -0.643  -0.012  0.00  0.00    -0.216 NA
ATOM     13  N   UNL     1       2.202  -2.844  -0.023  0.00  0.00    -0.176 NA
ATOM     14  C   UNL     1       1.728  -4.088  -0.027  0.00  0.00    +0.234 A 
ATOM     15  N   UNL     1       0.411  -4.055  -0.021  0.00  0.00    -0.128 NA
ATOM     16  N   UNL     1       2.504  -5.244  -0.036  0.00  0.00    -0.326 N 
ATOM     17  C   UNL     1      -2.449  -2.871  -0.001  0.00  0.00    +0.066 C 
ATOM     18  H   UNL     1       3.471  -5.179  -0.040  0.00  0.00    +0.145 HD
ATOM     19  H   UNL     1       2.076  -6.115  -0.039  0.00  0.00    +0.145 HD
ENDBRANCH   5   8
ENDBRANCH   1   5
BRANCH   3  20
ATOM     20  C   UNL     1      -4.402   1.350   3.069  0.00  0.00    +0.102 C 
BRANCH  20  21
ATOM     21  C   UNL     1      -5.740   2.091   3.079  0.00  0.00    +0.000 C 
BRANCH  21  22
ATOM     22  C   UNL     1      -6.119   2.440   4.521  0.00  0.00    -0.077 C 
BRANCH  22  23
ATOM     23  N   UNL     1      -7.404   3.152   4.531  0.00  0.00    +0.380 N 
ATOM     24  C   UNL     1      -8.461   2.256   4.049  0.00  0.00    -0.076 C 
ATOM     25  C   UNL     1      -9.788   3.016   3.981  0.00  0.00    -0.031 C 
ATOM     26  C   UNL     1     -10.148   3.529   5.379  0.00  0.00    +0.003 C 
ATOM     27  C   UNL     1      -9.004   4.402   5.902  0.00  0.00    -0.031 C 
ATOM     28  C   UNL     1      -7.707   3.591   5.898  0.00  0.00    -0.076 C 
ATOM     29  C   UNL     1      -9.319   4.856   7.329  0.00  0.00    +0.005 C 
ATOM     30  C   UNL     1     -10.889   2.079   3.481  0.00  0.00    +0.005 C 
ATOM     31  H   UNL     1      -7.346   3.957   3.925  0.00  0.00    -0.082 HD
ENDBRANCH  22  23
ENDBRANCH  21  22
ENDBRANCH  20  21
ENDBRANCH   3  20
TORSDOF 6
