REMARK  Name = ZINC12890018
REMARK  9 active torsions:
REMARK  status: ('A' for Active; 'I' for Inactive)
REMARK    1  A    between atoms: C_1  and  C_2
REMARK    2  A    between atoms: C_12  and  C_21
REMARK    3  A    between atoms: C_15  and  C_17
REMARK    4  A    between atoms: C_17  and  C_18
REMARK    5  A    between atoms: C_18  and  C_19
REMARK    6  A    between atoms: C_18  and  C_20
REMARK    7  A    between atoms: N_23  and  C_24
REMARK    8  A    between atoms: C_29  and  O_30
REMARK    9  A    between atoms: O_30  and  C_31
REMARK                            x       y       z     vdW  Elec       q    Type
REMARK                         _______ _______ _______ _____ _____    ______ ____
ROOT
ATOM      1  C   UNL     1       0.670  10.230  -3.640  0.00  0.00    +0.045 C 
ATOM      2  C   UNL     1       0.977   9.364  -2.445  0.00  0.00    -0.029 A 
ATOM      3  C   UNL     1       2.287   9.069  -2.127  0.00  0.00    +0.005 A 
ATOM      4  C   UNL     1       2.579   8.275  -1.034  0.00  0.00    +0.001 A 
ATOM      5  C   UNL     1       1.552   7.774  -0.253  0.00  0.00    +0.004 A 
ATOM      6  C   UNL     1       0.244   8.067  -0.566  0.00  0.00    -0.027 A 
ATOM      7  C   UNL     1      -0.062   8.865  -1.664  0.00  0.00    +0.039 A 
ATOM      8  N   UNL     1      -1.445   9.021  -1.777  0.00  0.00    -0.286 N 
ATOM      9  C   UNL     1      -2.111   8.367  -0.807  0.00  0.00    +0.211 C 
ATOM     10  O   UNL     1      -3.314   8.327  -0.657  0.00  0.00    -0.277 OA
ATOM     11  C   UNL     1      -1.075   7.694   0.056  0.00  0.00    +0.049 C 
ATOM     12  C   UNL     1      -1.270   6.170   0.050  0.00  0.00    +0.076 C 
ATOM     13  C   UNL     1      -2.016   5.908   1.387  0.00  0.00    -0.004 C 
ATOM     14  C   UNL     1      -1.376   6.969   2.318  0.00  0.00    -0.069 C 
ATOM     15  H   UNL     1      -1.876   9.540  -2.473  0.00  0.00    +0.155 HD
ATOM     16  N   UNL     1      -1.163   8.144   1.450  0.00  0.00    +0.394 N 
ATOM     17  H   UNL     1      -1.949   8.796   1.554  0.00  0.00    -0.083 HD
ATOM     18  H   UNL     1      -0.290   8.615   1.717  0.00  0.00    -0.083 HD
ENDROOT
BRANCH  12  19
ATOM     19  C   UNL     1       0.060   5.461   0.033  0.00  0.00    +0.220 C 
ATOM     20  O   UNL     1       0.618   5.194   1.077  0.00  0.00    -0.275 OA
ATOM     21  N   UNL     1       0.629   5.124  -1.141  0.00  0.00    -0.282 N 
ATOM     22  H   UNL     1       0.224   5.408  -1.975  0.00  0.00    +0.155 HD
BRANCH  21  23
ATOM     23  C   UNL     1       1.806   4.364  -1.156  0.00  0.00    +0.077 A 
ATOM     24  C   UNL     1       2.114   3.538  -0.086  0.00  0.00    +0.047 A 
ATOM     25  C   UNL     1       3.276   2.788  -0.104  0.00  0.00    +0.043 A 
ATOM     26  C   UNL     1       4.133   2.861  -1.187  0.00  0.00    +0.024 A 
ATOM     27  C   UNL     1       3.829   3.679  -2.260  0.00  0.00    +0.049 A 
ATOM     28  C   UNL     1       2.670   4.437  -2.247  0.00  0.00    +0.141 A 
ATOM     29 CL   UNL     1       3.661   1.754   1.237  0.00  0.00    -0.083 Cl
BRANCH  28  30
ATOM     30  O   UNL     1       2.372   5.245  -3.299  0.00  0.00    -0.493 OA
ATOM     31  C   UNL     1       3.303   5.269  -4.383  0.00  0.00    +0.277 C 
ENDBRANCH  28  30
ENDBRANCH  21  23
ENDBRANCH  12  19
BRANCH  14  32
ATOM     32  C   UNL     1      -2.328   7.313   3.466  0.00  0.00    -0.013 C 
BRANCH  32  33
ATOM     33  C   UNL     1      -1.629   8.266   4.438  0.00  0.00    -0.019 C 
ATOM     34  C   UNL     1      -1.345   9.595   3.735  0.00  0.00    +0.007 C 
ATOM     35  C   UNL     1      -2.533   8.512   5.648  0.00  0.00    +0.007 C 
ENDBRANCH  32  33
ENDBRANCH  14  32
TORSDOF 5
