REMARK  Name = ZINC12651753
REMARK  6 active torsions:
REMARK  status: ('A' for Active; 'I' for Inactive)
REMARK    1  A    between atoms: C_1  and  C_2
REMARK    2  A    between atoms: C_2  and  C_4
REMARK    3  A    between atoms: C_2  and  N_7
REMARK    4  A    between atoms: C_8  and  C_10
REMARK    5  A    between atoms: C_10  and  N_11
REMARK    6  A    between atoms: C_13  and  C_22
REMARK                            x       y       z     vdW  Elec       q    Type
REMARK                         _______ _______ _______ _____ _____    ______ ____
ROOT
ATOM      1  N   UNL     1       5.949   0.519   0.488  0.00  0.00    -0.314 N 
ATOM      2  C   UNL     1       7.052  -0.155   1.183  0.00  0.00    +0.160 C 
ATOM      3  C   UNL     1       8.367   0.206   0.481  0.00  0.00    +0.275 C 
ATOM      4  O   UNL     1       8.309  -0.308  -0.854  0.00  0.00    -0.476 OA
ATOM      5  C   UNL     1       7.153  -0.094  -1.541  0.00  0.00    +0.143 A 
ATOM      6  C   UNL     1       5.990   0.308  -0.894  0.00  0.00    +0.073 A 
ATOM      7  C   UNL     1       4.830   0.510  -1.633  0.00  0.00    +0.027 A 
ATOM      8  C   UNL     1       4.833   0.315  -3.001  0.00  0.00    +0.002 A 
ATOM      9  C   UNL     1       5.991  -0.081  -3.642  0.00  0.00    +0.004 A 
ATOM     10  C   UNL     1       7.149  -0.285  -2.915  0.00  0.00    +0.047 A 
ENDROOT
BRANCH   3  11
ATOM     11  C   UNL     1       9.526  -0.416   1.217  0.00  0.00    +0.253 C 
ATOM     12  O   UNL     1      10.199  -1.269   0.678  0.00  0.00    -0.272 OA
ATOM     13  N   UNL     1       9.814  -0.025   2.474  0.00  0.00    -0.326 N 
ATOM     14  H   UNL     1       9.276   0.657   2.905  0.00  0.00    +0.145 HD
ATOM     15  H   UNL     1      10.560  -0.425   2.948  0.00  0.00    +0.145 HD
ENDBRANCH   3  11
BRANCH   1  16
ATOM     16  C   UNL     1       4.651   0.115   1.044  0.00  0.00    +0.201 C 
BRANCH  16  18
ATOM     17  N   UNL     1       3.431   0.355   3.182  0.00  0.00    -0.311 N 
ATOM     18  C   UNL     1       4.494   0.695   2.426  0.00  0.00    +0.231 C 
ATOM     19  O   UNL     1       5.323   1.467   2.857  0.00  0.00    -0.274 OA
ATOM     20  H   UNL     1       2.768  -0.262   2.837  0.00  0.00    +0.149 HD
BRANCH  17  22
ATOM     21  C   UNL     1       4.074   0.078   5.526  0.00  0.00    +0.028 C 
ATOM     22  C   UNL     1       3.278   0.919   4.526  0.00  0.00    +0.073 C 
BRANCH  22  23
ATOM     23  C   UNL     1       1.799   0.913   4.916  0.00  0.00    +0.009 C 
ATOM     24  C   UNL     1       1.387   0.045   6.107  0.00  0.00    +0.005 C 
ATOM     25  C   UNL     1       1.416   1.570   6.244  0.00  0.00    +0.005 C 
ENDBRANCH  22  23
ENDBRANCH  17  22
ENDBRANCH  16  18
ENDBRANCH   1  16
TORSDOF 5
