REMARK  Name = ZINC63165431
REMARK  7 active torsions:
REMARK  status: ('A' for Active; 'I' for Inactive)
REMARK    1  A    between atoms: C_1  and  C_2
REMARK    2  A    between atoms: C_4  and  C_16
REMARK    3  A    between atoms: C_5  and  C_15
REMARK    4  A    between atoms: N_7  and  C_8
REMARK    5  A    between atoms: N_18  and  C_19
REMARK    6  A    between atoms: C_19  and  C_20
REMARK    7  A    between atoms: C_20  and  C_21
REMARK                            x       y       z     vdW  Elec       q    Type
REMARK                         _______ _______ _______ _____ _____    ______ ____
ROOT
ATOM      1  C   UNL     1      -2.451  -0.345  -0.838  0.00  0.00    +0.243 C 
ATOM      2  O   UNL     1      -3.544  -0.846  -0.647  0.00  0.00    -0.270 OA
ATOM      3  N   UNL     1      -2.238   0.409  -1.935  0.00  0.00    -0.311 N 
ATOM      4  H   UNL     1      -1.367   0.808  -2.087  0.00  0.00    +0.149 HD
ENDROOT
BRANCH   1   7
ATOM      5  C   UNL     1      -0.019   1.526   0.010  0.00  0.00    +0.035 C 
ATOM      6  C   UNL     1       0.002  -0.004   0.002  0.00  0.00    +0.128 C 
ATOM      7  C   UNL     1      -1.406  -0.553   0.091  0.00  0.00    +0.054 C 
ATOM      8  C   UNL     1      -1.473  -1.277   1.225  0.00  0.00    +0.029 C 
ATOM      9  N   UNL     1      -0.290  -1.275   1.893  0.00  0.00    -0.267 N 
ATOM     10  N   UNL     1       0.673  -0.517   1.209  0.00  0.00    -0.246 N 
ATOM     11  C   UNL     1      -2.708  -2.000   1.695  0.00  0.00    +0.062 C 
ATOM     12  H   UNL     1      -0.131  -1.737   2.731  0.00  0.00    +0.170 HD
BRANCH  10  13
ATOM     13  C   UNL     1       1.998  -0.292   1.593  0.00  0.00    +0.048 A 
ATOM     14  C   UNL     1       2.828   0.493   0.803  0.00  0.00    +0.027 A 
ATOM     15  C   UNL     1       4.137   0.714   1.184  0.00  0.00    +0.040 A 
ATOM     16  C   UNL     1       4.622   0.152   2.353  0.00  0.00    +0.124 A 
ATOM     17  C   UNL     1       3.797  -0.631   3.143  0.00  0.00    +0.040 A 
ATOM     18  C   UNL     1       2.486  -0.849   2.768  0.00  0.00    +0.027 A 
ATOM     19  F   UNL     1       5.903   0.369   2.724  0.00  0.00    -0.205 F 
ENDBRANCH  10  13
ENDBRANCH   1   7
BRANCH   3  20
ATOM     20  C   UNL     1      -3.321   0.624  -2.897  0.00  0.00    +0.109 C 
BRANCH  20  21
ATOM     21  C   UNL     1      -2.818   1.508  -4.041  0.00  0.00    +0.052 C 
BRANCH  21  22
ATOM     22  C   UNL     1      -3.932   1.730  -5.031  0.00  0.00    -0.040 C 
ATOM     23  C   UNL     1      -4.780   2.782  -5.079  0.00  0.00    -0.001 A 
ATOM     24  C   UNL     1      -4.915   3.989  -4.254  0.00  0.00    +0.010 A 
ATOM     25  C   UNL     1      -5.884   4.884  -4.554  0.00  0.00    +0.001 A 
ATOM     26  C   UNL     1      -6.761   4.688  -5.629  0.00  0.00    +0.002 A 
ATOM     27  C   UNL     1      -6.700   3.604  -6.432  0.00  0.00    +0.026 A 
ATOM     28  C   UNL     1      -5.719   2.599  -6.209  0.00  0.00    +0.043 A 
ATOM     29  N   UNL     1      -5.461   1.477  -6.836  0.00  0.00    -0.380 N 
ATOM     30  C   UNL     1      -4.324   0.823  -6.177  0.00  0.00    +0.144 C 
ATOM     31  H   UNL     1      -5.939   1.137  -7.609  0.00  0.00    +0.160 HD
ENDBRANCH  21  22
ENDBRANCH  20  21
ENDBRANCH   3  20
TORSDOF 5
