REMARK  Name = ZINC05261925
REMARK  14 active torsions:
REMARK  status: ('A' for Active; 'I' for Inactive)
REMARK    1  A    between atoms: C_1  and  C_2
REMARK    2  A    between atoms: C_5  and  S_7
REMARK    3  A    between atoms: S_7  and  C_8
REMARK    4  A    between atoms: C_8  and  C_9
REMARK    5  A    between atoms: N_11  and  C_12
REMARK    6  A    between atoms: N_11  and  C_16
REMARK    7  A    between atoms: C_12  and  C_13
REMARK    8  A    between atoms: C_13  and  C_14
REMARK    9  A    between atoms: C_13  and  C_15
REMARK   10  A    between atoms: C_17  and  N_29
REMARK   11  A    between atoms: N_18  and  C_25
REMARK   12  A    between atoms: C_25  and  C_26
REMARK   13  A    between atoms: C_26  and  C_27
REMARK   14  A    between atoms: C_26  and  C_28
REMARK                            x       y       z     vdW  Elec       q    Type
REMARK                         _______ _______ _______ _____ _____    ______ ____
ROOT
ATOM      1  C   UNL     1      -7.339   4.418   6.549  0.00  0.00    +0.140 A 
ATOM      2  C   UNL     1      -7.837   3.871   7.714  0.00  0.00    +0.127 A 
ATOM      3  N   UNL     1      -9.047   4.311   8.198  0.00  0.00    -0.280 N 
ATOM      4  C   UNL     1      -9.736   5.265   7.545  0.00  0.00    +0.331 A 
ATOM      5  O   UNL     1     -10.803   5.641   7.990  0.00  0.00    -0.246 OA
ATOM      6  N   UNL     1      -9.265   5.809   6.409  0.00  0.00    -0.273 N 
ATOM      7  H   UNL     1      -9.799   6.513   5.941  0.00  0.00    +0.173 HD
ATOM      8  C   UNL     1      -8.083   5.418   5.895  0.00  0.00    +0.277 A 
ATOM      9  O   UNL     1      -7.663   5.922   4.867  0.00  0.00    -0.266 OA
ENDROOT
BRANCH   1  12
ATOM     10  C   UNL     1      -6.063   3.283   4.876  0.00  0.00    +0.230 C 
ATOM     11  O   UNL     1      -5.010   2.836   4.473  0.00  0.00    -0.274 OA
ATOM     12  N   UNL     1      -6.101   3.987   6.026  0.00  0.00    -0.263 N 
BRANCH  10  13
ATOM     13  C   UNL     1      -7.329   3.053   4.091  0.00  0.00    +0.172 C 
BRANCH  13  14
ATOM     14  S   UNL     1      -6.939   2.161   2.565  0.00  0.00    -0.089 S 
BRANCH  14  19
ATOM     15  C   UNL     1     -10.595   0.816  -0.947  0.00  0.00    +0.066 C 
ATOM     16  C   UNL     1     -10.184   1.460   0.352  0.00  0.00    +0.047 A 
ATOM     17  C   UNL     1     -11.104   2.042   1.158  0.00  0.00    +0.070 A 
ATOM     18  S   UNL     1     -10.063   2.609   2.496  0.00  0.00    -0.069 S 
ATOM     19  C   UNL     1      -8.551   2.031   1.866  0.00  0.00    +0.135 A 
ATOM     20  N   UNL     1      -8.920   1.465   0.732  0.00  0.00    -0.238 NA
ENDBRANCH  14  19
ENDBRANCH  13  14
ENDBRANCH  10  13
BRANCH  12  21
ATOM     21  C   UNL     1      -4.857   4.304   6.733  0.00  0.00    +0.117 C 
BRANCH  21  22
ATOM     22  C   UNL     1      -4.394   5.710   6.345  0.00  0.00    +0.001 C 
ATOM     23  C   UNL     1      -3.170   6.092   7.179  0.00  0.00    +0.009 C 
ATOM     24  C   UNL     1      -4.028   5.735   4.860  0.00  0.00    +0.009 C 
ENDBRANCH  21  22
ENDBRANCH  12  21
ENDBRANCH   1  12
BRANCH   2  25
ATOM     25  N   UNL     1      -7.134   2.897   8.381  0.00  0.00    -0.343 N 
ATOM     26  H   UNL     1      -6.248   2.645   8.078  0.00  0.00    +0.144 HD
ATOM     27  H   UNL     1      -7.524   2.461   9.155  0.00  0.00    +0.144 HD
ENDBRANCH   2  25
BRANCH   3  28
ATOM     28  C   UNL     1      -9.588   3.740   9.434  0.00  0.00    +0.131 C 
BRANCH  28  29
ATOM     29  C   UNL     1      -9.098   4.557  10.631  0.00  0.00    +0.003 C 
ATOM     30  C   UNL     1      -9.762   4.037  11.909  0.00  0.00    +0.009 C 
ATOM     31  C   UNL     1      -7.580   4.422  10.754  0.00  0.00    +0.009 C 
ENDBRANCH  28  29
ENDBRANCH   3  28
TORSDOF 9
