REMARK  Name = ZINC57845589
REMARK  7 active torsions:
REMARK  status: ('A' for Active; 'I' for Inactive)
REMARK    1  A    between atoms: C_1  and  C_2
REMARK    2  A    between atoms: C_2  and  C_4
REMARK    3  A    between atoms: C_2  and  N_6
REMARK    4  A    between atoms: C_4  and  N_5
REMARK    5  A    between atoms: C_9  and  C_13
REMARK    6  A    between atoms: C_9  and  C_14
REMARK    7  A    between atoms: C_17  and  C_20
REMARK                            x       y       z     vdW  Elec       q    Type
REMARK                         _______ _______ _______ _____ _____    ______ ____
ROOT
ATOM      1  N   UNL     1      -1.372  -0.511   0.012  0.00  0.00    -0.223 N 
ATOM      2  C   UNL     1      -1.897  -1.295  -0.950  0.00  0.00    +0.251 C 
ATOM      3  O   UNL     1      -1.342  -1.699  -1.949  0.00  0.00    -0.272 OA
ATOM      4  C   UNL     1      -3.325  -1.569  -0.522  0.00  0.00    +0.135 C 
ATOM      5  N   UNL     1      -3.451  -0.838   0.751  0.00  0.00    -0.281 N 
ATOM      6  C   UNL     1      -2.260  -0.258   0.981  0.00  0.00    +0.310 C 
ATOM      7  O   UNL     1      -2.017   0.424   1.958  0.00  0.00    -0.252 OA
ATOM      8  C   UNL     1      -3.546  -3.067  -0.306  0.00  0.00    +0.047 C 
ATOM      9  H   UNL     1      -4.239  -0.788   1.315  0.00  0.00    +0.152 HD
ENDROOT
BRANCH   4  10
ATOM     10  C   UNL     1      -4.296  -1.030  -1.541  0.00  0.00    -0.015 A 
ATOM     11  C   UNL     1      -3.935  -0.974  -2.875  0.00  0.00    +0.007 A 
ATOM     12  C   UNL     1      -4.820  -0.481  -3.812  0.00  0.00    +0.009 A 
ATOM     13  C   UNL     1      -6.080  -0.040  -3.412  0.00  0.00    -0.018 A 
ATOM     14  C   UNL     1      -6.439  -0.099  -2.067  0.00  0.00    +0.009 A 
ATOM     15  C   UNL     1      -5.548  -0.598  -1.139  0.00  0.00    +0.007 A 
BRANCH  13  16
ATOM     16  C   UNL     1      -7.036   0.491  -4.415  0.00  0.00    -0.018 A 
ATOM     17  C   UNL     1      -6.679   0.545  -5.761  0.00  0.00    +0.008 A 
ATOM     18  C   UNL     1      -7.572   1.040  -6.690  0.00  0.00    +0.001 A 
ATOM     19  C   UNL     1      -8.820   1.482  -6.287  0.00  0.00    +0.000 A 
ATOM     20  C   UNL     1      -9.179   1.431  -4.952  0.00  0.00    +0.001 A 
ATOM     21  C   UNL     1      -8.296   0.933  -4.016  0.00  0.00    +0.008 A 
ENDBRANCH  13  16
ENDBRANCH   4  10
BRANCH   1  23
ATOM     22  C   UNL     1      -0.019   1.526   0.010  0.00  0.00    +0.026 C 
ATOM     23  C   UNL     1       0.002  -0.004   0.002  0.00  0.00    +0.065 C 
BRANCH  23  24
ATOM     24  C   UNL     1       0.742  -0.511   1.242  0.00  0.00    -0.063 C 
BRANCH  24  25
ATOM     25  N   UNL     1       0.659  -1.976   1.296  0.00  0.00    +0.379 N 
ATOM     26  H   UNL     1       1.082  -2.369   0.468  0.00  0.00    -0.090 HD
ATOM     27  H   UNL     1       1.147  -2.311   2.114  0.00  0.00    -0.090 HD
ATOM     28  H   UNL     1      -0.309  -2.257   1.345  0.00  0.00    -0.090 HD
ENDBRANCH  24  25
ENDBRANCH  23  24
ENDBRANCH   1  23
TORSDOF 5
