REMARK  Name = ZINC11902979
REMARK  7 active torsions:
REMARK  status: ('A' for Active; 'I' for Inactive)
REMARK    1  A    between atoms: C_1  and  C_2
REMARK    2  A    between atoms: C_3  and  N_15
REMARK    3  A    between atoms: N_6  and  C_9
REMARK    4  A    between atoms: N_7  and  C_8
REMARK    5  A    between atoms: C_16  and  C_18
REMARK    6  A    between atoms: C_18  and  S_19
REMARK    7  A    between atoms: S_19  and  C_20
REMARK                            x       y       z     vdW  Elec       q    Type
REMARK                         _______ _______ _______ _____ _____    ______ ____
ROOT
ATOM      1  N   UNL     1      -0.736   0.184  -0.020  0.00  0.00    -0.279 N 
ATOM      2  C   UNL     1       0.160  -0.674  -0.548  0.00  0.00    +0.228 C 
ATOM      3  O   UNL     1       1.248  -0.273  -0.901  0.00  0.00    -0.275 OA
ATOM      4  H   UNL     1      -1.575  -0.149   0.335  0.00  0.00    +0.155 HD
ENDROOT
BRANCH   1   7
ATOM      5  C   UNL     1      -0.650   1.883   2.534  0.00  0.00    +0.067 C 
ATOM      6  C   UNL     1      -0.406   2.344   1.120  0.00  0.00    +0.059 A 
ATOM      7  C   UNL     1      -0.452   1.563   0.017  0.00  0.00    +0.121 A 
ATOM      8  C   UNL     1      -0.160   2.420  -1.133  0.00  0.00    +0.293 A 
ATOM      9  O   UNL     1      -0.114   2.076  -2.300  0.00  0.00    -0.264 OA
ATOM     10  N   UNL     1       0.050   3.663  -0.652  0.00  0.00    -0.216 N 
ATOM     11  N   UNL     1      -0.097   3.622   0.739  0.00  0.00    -0.282 N 
ATOM     12  C   UNL     1       0.049   4.766   1.642  0.00  0.00    +0.171 C 
BRANCH  10  13
ATOM     13  C   UNL     1       0.361   4.796  -1.412  0.00  0.00    +0.067 A 
ATOM     14  C   UNL     1      -0.347   5.976  -1.223  0.00  0.00    +0.028 A 
ATOM     15  C   UNL     1      -0.034   7.094  -1.971  0.00  0.00    +0.002 A 
ATOM     16  C   UNL     1       0.975   7.036  -2.915  0.00  0.00    +0.000 A 
ATOM     17  C   UNL     1       1.677   5.861  -3.110  0.00  0.00    +0.002 A 
ATOM     18  C   UNL     1       1.373   4.741  -2.361  0.00  0.00    +0.028 A 
ENDBRANCH  10  13
ENDBRANCH   1   7
BRANCH   2  19
ATOM     19  C   UNL     1      -0.192  -2.132  -0.699  0.00  0.00    +0.173 C 
BRANCH  19  20
ATOM     20  S   UNL     1       1.206  -3.017  -1.433  0.00  0.00    -0.078 S 
BRANCH  20  21
ATOM     21  C   UNL     1       0.539  -4.647  -1.492  0.00  0.00    +0.170 A 
ATOM     22  N   UNL     1       1.295  -5.661  -1.996  0.00  0.00    -0.302 N 
ATOM     23  H   UNL     1       2.192  -5.487  -2.320  0.00  0.00    +0.171 HD
ATOM     24  C   UNL     1       0.787  -6.911  -2.044  0.00  0.00    +0.255 A 
ATOM     25  O   UNL     1       1.449  -7.833  -2.492  0.00  0.00    -0.267 OA
ATOM     26  C   UNL     1      -0.518  -7.132  -1.568  0.00  0.00    +0.038 A 
ATOM     27  C   UNL     1      -1.230  -6.079  -1.074  0.00  0.00    +0.052 A 
ATOM     28  N   UNL     1      -0.681  -4.864  -1.044  0.00  0.00    -0.228 NA
ATOM     29  C   UNL     1      -2.598  -6.548  -0.623  0.00  0.00    +0.056 C 
ATOM     30  C   UNL     1      -2.477  -8.082  -0.499  0.00  0.00    +0.011 C 
ATOM     31  C   UNL     1      -1.339  -8.400  -1.493  0.00  0.00    +0.043 C 
ENDBRANCH  20  21
ENDBRANCH  19  20
ENDBRANCH   2  19
TORSDOF 5
