REMARK  Name = ZINC10250605
REMARK  9 active torsions:
REMARK  status: ('A' for Active; 'I' for Inactive)
REMARK    1  A    between atoms: C_1  and  C_2
REMARK    2  A    between atoms: C_5  and  N_9
REMARK    3  A    between atoms: C_6  and  C_8
REMARK    4  A    between atoms: C_10  and  N_19
REMARK    5  A    between atoms: C_20  and  C_22
REMARK    6  A    between atoms: N_24  and  C_25
REMARK    7  A    between atoms: C_25  and  C_26
REMARK    8  A    between atoms: C_26  and  C_27
REMARK    9  A    between atoms: C_26  and  C_28
REMARK                            x       y       z     vdW  Elec       q    Type
REMARK                         _______ _______ _______ _____ _____    ______ ____
ROOT
ATOM      1  N   UNL     1       1.355   1.672  -0.040  0.00  0.00    -0.217 N 
ATOM      2  C   UNL     1       0.003   1.603   0.046  0.00  0.00    +0.134 A 
ATOM      3  C   UNL     1      -0.347   0.271   0.020  0.00  0.00    +0.038 A 
ATOM      4  C   UNL     1       0.817  -0.471  -0.083  0.00  0.00    +0.091 A 
ATOM      5  N   UNL     1       1.843   0.367  -0.120  0.00  0.00    -0.168 NA
ATOM      6  C   UNL     1       0.662  -1.990  -0.128  0.00  0.00    +0.223 C 
ATOM      7  S   UNL     1      -1.067  -2.210   0.461  0.00  0.00    -0.021 S 
ATOM      8  O   UNL     1      -1.064  -2.402   1.869  0.00  0.00    -0.174 OA
ATOM      9  O   UNL     1      -1.736  -3.142  -0.377  0.00  0.00    -0.174 OA
ATOM     10  C   UNL     1      -1.658  -0.510   0.078  0.00  0.00    +0.206 C 
ENDROOT
BRANCH   1  15
ATOM     11  C   UNL     1       4.468   6.418  -0.072  0.00  0.00    +0.044 C 
ATOM     12  C   UNL     1       3.641   5.158  -0.064  0.00  0.00    -0.050 A 
ATOM     13  C   UNL     1       2.463   5.100  -0.786  0.00  0.00    +0.005 A 
ATOM     14  C   UNL     1       1.706   3.945  -0.785  0.00  0.00    +0.028 A 
ATOM     15  C   UNL     1       2.124   2.844  -0.048  0.00  0.00    +0.070 A 
ATOM     16  C   UNL     1       3.307   2.905   0.676  0.00  0.00    -0.025 A 
ATOM     17  C   UNL     1       4.062   4.061   0.666  0.00  0.00    +0.008 A 
ATOM     18  C   UNL     1       3.766   1.710   1.471  0.00  0.00    +0.046 C 
ENDBRANCH   1  15
BRANCH   2  19
ATOM     19  N   UNL     1      -0.872   2.681   0.138  0.00  0.00    -0.262 N 
ATOM     20  C   UNL     1      -2.130   2.570  -0.332  0.00  0.00    +0.304 C 
ATOM     21  O   UNL     1      -2.471   1.566  -0.923  0.00  0.00    -0.265 OA
ATOM     22  H   UNL     1      -0.576   3.513   0.539  0.00  0.00    +0.157 HD
BRANCH  20  23
ATOM     23  C   UNL     1      -3.105   3.682  -0.126  0.00  0.00    +0.299 C 
ATOM     24  O   UNL     1      -2.764   4.686   0.465  0.00  0.00    -0.265 OA
ATOM     25  N   UNL     1      -4.363   3.570  -0.595  0.00  0.00    -0.307 N 
ATOM     26  H   UNL     1      -4.635   2.768  -1.067  0.00  0.00    +0.149 HD
BRANCH  25  27
ATOM     27  C   UNL     1      -5.320   4.661  -0.393  0.00  0.00    +0.107 C 
BRANCH  27  28
ATOM     28  C   UNL     1      -6.664   4.284  -1.018  0.00  0.00    -0.000 C 
ATOM     29  C   UNL     1      -7.254   3.084  -0.273  0.00  0.00    +0.009 C 
ATOM     30  C   UNL     1      -7.625   5.470  -0.916  0.00  0.00    +0.009 C 
ENDBRANCH  27  28
ENDBRANCH  25  27
ENDBRANCH  20  23
ENDBRANCH   2  19
TORSDOF 5
