REMARK  Name = ZINC40220670
REMARK  4 active torsions:
REMARK  status: ('A' for Active; 'I' for Inactive)
REMARK    1  A    between atoms: C_4  and  C_7
REMARK    2  A    between atoms: C_7  and  C_9
REMARK    3  A    between atoms: C_7  and  N_11
REMARK    4  A    between atoms: N_14  and  C_15
REMARK                            x       y       z     vdW  Elec       q    Type
REMARK                         _______ _______ _______ _____ _____    ______ ____
ROOT
ATOM      1  N   UNL     1       2.890  -1.926  -2.534  0.00  0.00    -0.284 N 
ATOM      2  C   UNL     1       3.848  -2.583  -3.217  0.00  0.00    +0.301 C 
ATOM      3  O   UNL     1       4.697  -1.960  -3.825  0.00  0.00    -0.253 OA
ATOM      4  N   UNL     1       3.867  -3.931  -3.224  0.00  0.00    -0.297 N 
ATOM      5  H   UNL     1       2.213  -2.423  -2.049  0.00  0.00    +0.152 HD
ATOM      6  H   UNL     1       3.190  -4.428  -2.739  0.00  0.00    +0.151 HD
ENDROOT
BRANCH   4   7
ATOM      7  C   UNL     1       4.909  -4.645  -3.966  0.00  0.00    +0.074 C 
ATOM      8  C   UNL     1       4.486  -4.789  -5.429  0.00  0.00    +0.022 C 
ATOM      9  C   UNL     1       5.574  -5.535  -6.203  0.00  0.00    +0.002 C 
ATOM     10  C   UNL     1       5.775  -6.923  -5.592  0.00  0.00    +0.000 C 
ATOM     11  C   UNL     1       6.198  -6.779  -4.128  0.00  0.00    +0.002 C 
ATOM     12  C   UNL     1       5.109  -6.033  -3.354  0.00  0.00    +0.022 C 
ENDBRANCH   4   7
BRANCH   1  13
ATOM     13  C   UNL     1       2.870  -0.461  -2.526  0.00  0.00    +0.180 C 
BRANCH  13  17
ATOM     14  C   UNL     1      -0.019   1.526   0.010  0.00  0.00    +0.000 C 
ATOM     15  C   UNL     1       1.417   2.055  -0.000  0.00  0.00    +0.000 C 
ATOM     16  C   UNL     1       2.133   1.562  -1.259  0.00  0.00    +0.006 C 
ATOM     17  C   UNL     1       2.154   0.032  -1.268  0.00  0.00    +0.024 C 
ATOM     18  C   UNL     1       0.718  -0.497  -1.257  0.00  0.00    +0.006 C 
ATOM     19  C   UNL     1       0.002  -0.004   0.002  0.00  0.00    +0.000 C 
ENDBRANCH  13  17
BRANCH  13  20
ATOM     20  C   UNL     1       2.158   0.026  -3.719  0.00  0.00    +0.085 C 
ATOM     21  N   UNL     1       1.608   0.403  -4.639  0.00  0.00    -0.195 NA
ENDBRANCH  13  20
ENDBRANCH   1  13
TORSDOF 4
