REMARK  Name = ZINC38546939
REMARK  6 active torsions:
REMARK  status: ('A' for Active; 'I' for Inactive)
REMARK    1  A    between atoms: C_1  and  C_2
REMARK    2  A    between atoms: C_4  and  C_15
REMARK    3  A    between atoms: C_5  and  N_7
REMARK    4  A    between atoms: C_8  and  C_10
REMARK    5  A    between atoms: C_15  and  C_17
REMARK    6  A    between atoms: C_15  and  N_24
REMARK                            x       y       z     vdW  Elec       q    Type
REMARK                         _______ _______ _______ _____ _____    ______ ____
ROOT
ATOM      1  C   UNL     1      -1.917  -3.223  -0.007  0.00  0.00    +0.135 C 
ENDROOT
BRANCH   1   2
ATOM      2  N   UNL     1      -3.107  -2.607   0.585  0.00  0.00    -0.320 N 
ATOM      3  C   UNL     1      -4.033  -3.393   1.261  0.00  0.00    +0.097 A 
ATOM      4  C   UNL     1      -3.821  -4.763   1.376  0.00  0.00    +0.041 A 
ATOM      5  C   UNL     1      -4.750  -5.533   2.051  0.00  0.00    +0.005 A 
ATOM      6  C   UNL     1      -5.865  -4.905   2.590  0.00  0.00    +0.018 A 
ATOM      7  C   UNL     1      -6.012  -3.541   2.438  0.00  0.00    +0.084 A 
ATOM      8  N   UNL     1      -5.106  -2.830   1.794  0.00  0.00    -0.350 N 
ATOM      9  H   UNL     1      -3.248  -1.651   0.506  0.00  0.00    +0.148 HD
ATOM     10  H   UNL     1      -5.232  -1.873   1.705  0.00  0.00    +0.166 HD
ENDBRANCH   1   2
BRANCH   1  11
ATOM     11  C   UNL     1      -2.255  -3.757  -1.375  0.00  0.00    -0.021 A 
ATOM     12  C   UNL     1      -3.074  -3.028  -2.218  0.00  0.00    +0.006 A 
ATOM     13  C   UNL     1      -3.385  -3.517  -3.473  0.00  0.00    +0.002 A 
ATOM     14  C   UNL     1      -2.877  -4.735  -3.886  0.00  0.00    +0.020 A 
ATOM     15  C   UNL     1      -2.058  -5.464  -3.043  0.00  0.00    +0.041 A 
ATOM     16  C   UNL     1      -1.742  -4.971  -1.789  0.00  0.00    +0.025 A 
ATOM     17 CL   UNL     1      -1.420  -6.993  -3.561  0.00  0.00    -0.084 Cl
ENDBRANCH   1  11
BRANCH   1  21
ATOM     18  C   UNL     1      -0.206   1.549  -0.498  0.00  0.00    +0.051 C 
ATOM     19  C   UNL     1      -0.126   0.051  -0.354  0.00  0.00    -0.011 A 
ATOM     20  C   UNL     1      -1.133  -0.850  -0.250  0.00  0.00    +0.018 A 
ATOM     21  C   UNL     1      -0.824  -2.192  -0.126  0.00  0.00    +0.006 A 
ATOM     22  C   UNL     1       0.487  -2.565  -0.113  0.00  0.00    +0.078 A 
ATOM     23  S   UNL     1       1.319  -0.996  -0.286  0.00  0.00    -0.078 S 
BRANCH  22  24
ATOM     24  N   UNL     1       1.036  -3.844   0.002  0.00  0.00    -0.273 N 
ATOM     25  C   UNL     1       2.374  -4.006  -0.006  0.00  0.00    +0.284 C 
ATOM     26  O   UNL     1       3.103  -3.038  -0.112  0.00  0.00    -0.266 OA
ATOM     27  H   UNL     1       0.454  -4.616   0.086  0.00  0.00    +0.156 HD
BRANCH  25  28
ATOM     28  C   UNL     1       2.950  -5.349   0.114  0.00  0.00    +0.189 A 
ATOM     29  C   UNL     1       4.282  -5.652   0.125  0.00  0.00    +0.054 A 
ATOM     30  C   UNL     1       4.377  -7.046   0.257  0.00  0.00    +0.042 A 
ATOM     31  C   UNL     1       3.115  -7.527   0.319  0.00  0.00    +0.196 A 
ATOM     32  O   UNL     1       2.259  -6.500   0.237  0.00  0.00    -0.458 OA
ENDBRANCH  25  28
ENDBRANCH  22  24
ENDBRANCH   1  21
TORSDOF 5
