REMARK  Name = ZINC62541799
REMARK  4 active torsions:
REMARK  status: ('A' for Active; 'I' for Inactive)
REMARK    1  A    between atoms: C_1  and  C_2
REMARK    2  A    between atoms: C_4  and  C_19
REMARK    3  A    between atoms: C_7  and  N_8
REMARK    4  A    between atoms: C_10  and  C_12
REMARK                            x       y       z     vdW  Elec       q    Type
REMARK                         _______ _______ _______ _____ _____    ______ ____
ROOT
ATOM      1  C   UNL     1      -0.018   1.503   0.010  0.00  0.00    +0.046 C 
ATOM      2  C   UNL     1       0.002  -0.004   0.002  0.00  0.00    -0.026 A 
ATOM      3  C   UNL     1       0.006  -0.686  -1.205  0.00  0.00    +0.010 A 
ATOM      4  C   UNL     1       0.024  -2.063  -1.230  0.00  0.00    -0.021 A 
ATOM      5  C   UNL     1       0.039  -2.780  -0.029  0.00  0.00    +0.115 A 
ATOM      6  C   UNL     1       0.036  -2.091   1.192  0.00  0.00    +0.177 A 
ATOM      7  C   UNL     1       0.023  -0.699   1.201  0.00  0.00    +0.073 A 
ATOM      8  O   UNL     1       0.054  -3.033   2.163  0.00  0.00    -0.433 OA
ATOM      9  C   UNL     1       0.067  -4.242   1.572  0.00  0.00    +0.228 A 
ATOM     10  N   UNL     1       0.059  -4.105   0.270  0.00  0.00    -0.209 NA
ATOM     11  C   UNL     1       0.026  -2.795  -2.547  0.00  0.00    +0.046 C 
ENDROOT
BRANCH   9  12
ATOM     12  C   UNL     1       0.089  -5.535   2.288  0.00  0.00    +0.037 A 
ATOM     13  C   UNL     1       0.108  -6.733   1.571  0.00  0.00    +0.014 A 
ATOM     14  C   UNL     1       0.128  -7.936   2.244  0.00  0.00    +0.021 A 
ATOM     15  C   UNL     1       0.129  -7.958   3.629  0.00  0.00    +0.041 A 
ATOM     16  C   UNL     1       0.110  -6.773   4.346  0.00  0.00    +0.021 A 
ATOM     17  C   UNL     1       0.096  -5.564   3.683  0.00  0.00    +0.014 A 
ATOM     18 CL   UNL     1       0.154  -9.477   4.469  0.00  0.00    -0.084 Cl
ENDBRANCH   9  12
BRANCH   7  19
ATOM     19  N   UNL     1       0.025  -0.004   2.414  0.00  0.00    -0.355 N 
ATOM     20  H   UNL     1       0.012   0.965   2.418  0.00  0.00    +0.142 HD
ATOM     21  H   UNL     1       0.040  -0.493   3.252  0.00  0.00    +0.142 HD
ENDBRANCH   7  19
TORSDOF 2
