REMARK  Name = ZINC35641649
REMARK  8 active torsions:
REMARK  status: ('A' for Active; 'I' for Inactive)
REMARK    1  A    between atoms: C_1  and  C_2
REMARK    2  A    between atoms: C_2  and  O_3
REMARK    3  A    between atoms: O_3  and  C_4
REMARK    4  A    between atoms: C_4  and  C_6
REMARK    5  A    between atoms: C_7  and  C_22
REMARK    6  A    between atoms: N_8  and  C_21
REMARK    7  A    between atoms: C_12  and  C_14
REMARK    8  A    between atoms: C_22  and  N_23
REMARK                            x       y       z     vdW  Elec       q    Type
REMARK                         _______ _______ _______ _____ _____    ______ ____
ROOT
ATOM      1  C   UNL     1       1.596  -2.368   2.356  0.00  0.00    +0.076 C 
ATOM      2  C   UNL     1       1.513  -3.685   2.645  0.00  0.00    +0.010 C 
ATOM      3  N   UNL     1       2.038  -4.187   3.801  0.00  0.00    -0.264 N 
ATOM      4  C   UNL     1       2.661  -3.438   4.720  0.00  0.00    +0.307 C 
ATOM      5  O   UNL     1       3.096  -3.976   5.720  0.00  0.00    -0.252 OA
ATOM      6  N   UNL     1       2.821  -2.108   4.573  0.00  0.00    -0.288 N 
ATOM      7  C   UNL     1       2.295  -1.469   3.355  0.00  0.00    +0.143 C 
ATOM      8  C   UNL     1       1.913  -5.625   4.050  0.00  0.00    +0.139 C 
ATOM      9  H   UNL     1       3.275  -1.585   5.252  0.00  0.00    +0.151 HD
ENDROOT
BRANCH   7  10
ATOM     10  C   UNL     1       3.441  -0.792   2.649  0.00  0.00    -0.022 A 
ATOM     11  C   UNL     1       4.627  -1.472   2.445  0.00  0.00    +0.007 A 
ATOM     12  C   UNL     1       5.678  -0.851   1.797  0.00  0.00    +0.020 A 
ATOM     13  C   UNL     1       5.543   0.452   1.352  0.00  0.00    +0.041 A 
ATOM     14  C   UNL     1       4.355   1.132   1.555  0.00  0.00    +0.020 A 
ATOM     15  C   UNL     1       3.303   0.508   2.199  0.00  0.00    +0.007 A 
ATOM     16 CL   UNL     1       6.862   1.232   0.538  0.00  0.00    -0.084 Cl
ENDBRANCH   7  10
BRANCH   1  17
ATOM     17  C   UNL     1       1.053  -1.847   1.158  0.00  0.00    +0.339 C 
ATOM     18  O   UNL     1       1.780  -1.617   0.210  0.00  0.00    -0.245 OA
BRANCH  17  19
ATOM     19  O   UNL     1      -0.272  -1.604   1.067  0.00  0.00    -0.462 OA
BRANCH  19  21
ATOM     20  C   UNL     1      -2.265  -0.870  -0.086  0.00  0.00    +0.048 C 
ATOM     21  C   UNL     1      -0.751  -1.078  -0.172  0.00  0.00    +0.229 C 
ENDBRANCH  19  21
ENDBRANCH  17  19
ENDBRANCH   1  17
BRANCH   2  22
ATOM     22  C   UNL     1       0.830  -4.615   1.676  0.00  0.00    -0.026 C 
BRANCH  22  23
ATOM     23  N   UNL     1       1.820  -5.534   1.099  0.00  0.00    +0.383 N 
ATOM     24  C   UNL     1       2.788  -4.772   0.302  0.00  0.00    -0.078 C 
ATOM     25  C   UNL     1       3.868  -5.714  -0.234  0.00  0.00    -0.019 C 
ATOM     26  C   UNL     1       3.214  -6.785  -1.111  0.00  0.00    -0.004 C 
ATOM     27  C   UNL     1       2.154  -7.525  -0.291  0.00  0.00    -0.019 C 
ATOM     28  C   UNL     1       1.137  -6.516   0.248  0.00  0.00    -0.078 C 
ATOM     29  H   UNL     1       2.304  -6.015   1.843  0.00  0.00    -0.081 HD
ENDBRANCH  22  23
ENDBRANCH   2  22
TORSDOF 6
