REMARK  Name = ZINC42026908
REMARK  8 active torsions:
REMARK  status: ('A' for Active; 'I' for Inactive)
REMARK    1  A    between atoms: C_1  and  C_2
REMARK    2  A    between atoms: C_3  and  N_20
REMARK    3  A    between atoms: C_5  and  C_9
REMARK    4  A    between atoms: N_13  and  C_14
REMARK    5  A    between atoms: C_14  and  C_16
REMARK    6  A    between atoms: C_14  and  C_17
REMARK    7  A    between atoms: C_17  and  C_18
REMARK    8  A    between atoms: C_17  and  C_19
REMARK                            x       y       z     vdW  Elec       q    Type
REMARK                         _______ _______ _______ _____ _____    ______ ____
ROOT
ATOM      1  C   UNL     1       0.227   1.502  -0.079  0.00  0.00    +0.048 C 
ATOM      2  C   UNL     1       0.193  -0.005  -0.067  0.00  0.00    +0.005 A 
ATOM      3  C   UNL     1      -0.773  -0.682  -0.803  0.00  0.00    +0.031 A 
ATOM      4  C   UNL     1      -0.807  -2.068  -0.794  0.00  0.00    +0.034 A 
ATOM      5  C   UNL     1       0.129  -2.780  -0.045  0.00  0.00    +0.025 A 
ATOM      6  C   UNL     1       1.095  -2.094   0.691  0.00  0.00    +0.050 A 
ATOM      7  C   UNL     1       1.125  -0.711   0.672  0.00  0.00    +0.129 A 
ATOM      8  F   UNL     1       2.065  -0.048   1.381  0.00  0.00    -0.205 F 
ENDROOT
BRANCH   5   9
ATOM      9  C   UNL     1       0.098  -4.260  -0.031  0.00  0.00    +0.182 A 
ATOM     10  N   UNL     1      -0.270  -5.044  -1.022  0.00  0.00    -0.108 NA
ATOM     11  N   UNL     1      -0.178  -6.277  -0.676  0.00  0.00    -0.023 NA
ATOM     12  N   UNL     1       0.245  -6.374   0.537  0.00  0.00    -0.043 NA
ATOM     13  N   UNL     1       0.448  -5.063   1.004  0.00  0.00    -0.222 N 
BRANCH  13  14
ATOM     14  C   UNL     1       0.930  -4.654   2.325  0.00  0.00    +0.111 C 
ATOM     15  C   UNL     1       2.391  -5.079   2.489  0.00  0.00    +0.033 C 
BRANCH  14  16
ATOM     16  C   UNL     1       0.080  -5.321   3.408  0.00  0.00    +0.007 C 
ATOM     17  C   UNL     1       0.584  -4.894   4.788  0.00  0.00    +0.009 C 
ATOM     18  C   UNL     1      -1.380  -4.896   3.244  0.00  0.00    +0.009 C 
ENDBRANCH  14  16
ENDBRANCH  13  14
ENDBRANCH   5   9
BRANCH   3  19
ATOM     19  N   UNL     1      -1.709   0.035  -1.552  0.00  0.00    -0.358 N 
ATOM     20  H   UNL     1      -1.686   1.004  -1.558  0.00  0.00    +0.142 HD
ATOM     21  H   UNL     1      -2.383  -0.438  -2.066  0.00  0.00    +0.142 HD
ENDBRANCH   3  19
TORSDOF 4
