REMARK  Name = ZINC13629539
REMARK  8 active torsions:
REMARK  status: ('A' for Active; 'I' for Inactive)
REMARK    1  A    between atoms: C_1  and  C_2
REMARK    2  A    between atoms: C_2  and  C_3
REMARK    3  A    between atoms: C_8  and  N_9
REMARK    4  A    between atoms: C_10  and  C_12
REMARK    5  A    between atoms: C_12  and  C_14
REMARK    6  A    between atoms: C_12  and  N_21
REMARK    7  A    between atoms: C_14  and  C_15
REMARK    8  A    between atoms: C_26  and  O_34
REMARK                            x       y       z     vdW  Elec       q    Type
REMARK                         _______ _______ _______ _____ _____    ______ ____
ROOT
ATOM      1  C   UNL     1      -1.451  -0.272  -4.864  0.00  0.00    +0.165 C 
ENDROOT
BRANCH   1   2
ATOM      2  N   UNL     1      -2.353  -0.595  -5.972  0.00  0.00    -0.287 N 
ATOM      3  C   UNL     1      -1.849  -0.924  -7.178  0.00  0.00    +0.308 C 
ATOM      4  O   UNL     1      -0.645  -0.953  -7.346  0.00  0.00    -0.252 OA
ATOM      5  N   UNL     1      -2.679  -1.221  -8.197  0.00  0.00    -0.245 N 
ATOM      6  C   UNL     1      -4.141  -1.190  -8.031  0.00  0.00    +0.210 C 
ATOM      7  C   UNL     1      -4.742  -2.361  -8.764  0.00  0.00    +0.206 C 
ATOM      8  N   UNL     1      -4.161  -2.890  -9.793  0.00  0.00    -0.214 NA
ATOM      9  C   UNL     1      -2.963  -2.423 -10.265  0.00  0.00    +0.089 A 
ATOM     10  C   UNL     1      -2.187  -1.567  -9.465  0.00  0.00    +0.064 A 
ATOM     11  C   UNL     1      -0.975  -1.089  -9.923  0.00  0.00    +0.026 A 
ATOM     12  C   UNL     1      -0.527  -1.450 -11.182  0.00  0.00    +0.002 A 
ATOM     13  C   UNL     1      -1.287  -2.284 -11.982  0.00  0.00    +0.002 A 
ATOM     14  C   UNL     1      -2.503  -2.781 -11.529  0.00  0.00    +0.030 A 
ATOM     15  H   UNL     1      -3.314  -0.572  -5.838  0.00  0.00    +0.151 HD
BRANCH   7  16
ATOM     16  O   UNL     1      -5.916  -2.872  -8.337  0.00  0.00    -0.494 OA
ATOM     17  H   UNL     1      -6.233  -3.621  -8.861  0.00  0.00    +0.293 HD
ENDBRANCH   7  16
ENDBRANCH   1   2
BRANCH   1  19
ATOM     18  N   UNL     1      -1.505  -0.315  -2.391  0.00  0.00    -0.284 N 
ATOM     19  C   UNL     1      -2.147  -0.541  -3.555  0.00  0.00    +0.238 C 
ATOM     20  O   UNL     1      -3.285  -0.961  -3.548  0.00  0.00    -0.273 OA
ATOM     21  H   UNL     1      -0.620   0.082  -2.395  0.00  0.00    +0.155 HD
BRANCH  18  27
ATOM     22  C   UNL     1      -1.349  -1.119  -0.119  0.00  0.00    -0.026 A 
ATOM     23  C   UNL     1      -1.954  -1.445   1.079  0.00  0.00    +0.005 A 
ATOM     24  C   UNL     1      -3.323  -1.313   1.222  0.00  0.00    +0.000 A 
ATOM     25  C   UNL     1      -4.090  -0.853   0.168  0.00  0.00    +0.002 A 
ATOM     26  C   UNL     1      -3.491  -0.524  -1.033  0.00  0.00    +0.023 A 
ATOM     27  C   UNL     1      -2.116  -0.652  -1.178  0.00  0.00    +0.037 A 
BRANCH  22  29
ATOM     28  C   UNL     1       0.819   0.078   0.019  0.00  0.00    +0.009 C 
ATOM     29  C   UNL     1       0.143  -1.263  -0.275  0.00  0.00    +0.033 C 
ENDBRANCH  22  29
ENDBRANCH  18  27
ENDBRANCH   1  19
BRANCH   1  30
ATOM     30  C   UNL     1      -1.059   1.205  -4.939  0.00  0.00    +0.067 C 
BRANCH  30  31
ATOM     31  C   UNL     1      -0.256   1.448  -6.191  0.00  0.00    -0.045 A 
ATOM     32  C   UNL     1       1.120   1.317  -6.166  0.00  0.00    +0.004 A 
ATOM     33  C   UNL     1       1.857   1.540  -7.314  0.00  0.00    +0.000 A 
ATOM     34  C   UNL     1       1.218   1.893  -8.488  0.00  0.00    +0.000 A 
ATOM     35  C   UNL     1      -0.158   2.024  -8.513  0.00  0.00    +0.000 A 
ATOM     36  C   UNL     1      -0.895   1.796  -7.366  0.00  0.00    +0.004 A 
ENDBRANCH  30  31
ENDBRANCH   1  30
TORSDOF 7
