REMARK  Name = ZINC57841040
REMARK  6 active torsions:
REMARK  status: ('A' for Active; 'I' for Inactive)
REMARK    1  A    between atoms: C_1  and  C_2
REMARK    2  A    between atoms: C_2  and  C_13
REMARK    3  A    between atoms: N_5  and  C_9
REMARK    4  A    between atoms: C_9  and  C_10
REMARK    5  A    between atoms: C_10  and  C_11
REMARK    6  A    between atoms: C_11  and  N_12
REMARK                            x       y       z     vdW  Elec       q    Type
REMARK                         _______ _______ _______ _____ _____    ______ ____
ROOT
ATOM      1  C   UNL     1      -0.019   1.526   0.010  0.00  0.00    +0.047 C 
ATOM      2  C   UNL     1       0.002  -0.004   0.002  0.00  0.00    +0.136 C 
ATOM      3  C   UNL     1      -1.403  -0.557   0.139  0.00  0.00    +0.251 C 
ATOM      4  O   UNL     1      -2.332  -0.392  -0.621  0.00  0.00    -0.272 OA
ATOM      5  N   UNL     1      -1.403  -1.272   1.282  0.00  0.00    -0.224 N 
ATOM      6  C   UNL     1      -0.206  -1.247   1.879  0.00  0.00    +0.310 C 
ATOM      7  O   UNL     1       0.040  -1.819   2.924  0.00  0.00    -0.252 OA
ATOM      8  N   UNL     1       0.695  -0.520   1.195  0.00  0.00    -0.281 N 
ATOM      9  H   UNL     1       1.621  -0.365   1.440  0.00  0.00    +0.152 HD
ENDROOT
BRANCH   2  10
ATOM     10  C   UNL     1       0.657  -0.517  -1.255  0.00  0.00    +0.003 A 
ATOM     11  C   UNL     1       1.795  -1.298  -1.172  0.00  0.00    +0.009 A 
ATOM     12  C   UNL     1       2.396  -1.769  -2.324  0.00  0.00    +0.020 A 
ATOM     13  C   UNL     1       1.859  -1.459  -3.561  0.00  0.00    +0.042 A 
ATOM     14  C   UNL     1       0.720  -0.678  -3.644  0.00  0.00    +0.040 A 
ATOM     15  C   UNL     1       0.116  -0.211  -2.491  0.00  0.00    +0.048 A 
ATOM     16 CL   UNL     1      -1.316   0.764  -2.594  0.00  0.00    -0.083 Cl
ATOM     17 CL   UNL     1       2.615  -2.050  -5.008  0.00  0.00    -0.083 Cl
ENDBRANCH   2  10
BRANCH   5  18
ATOM     18  C   UNL     1      -2.569  -1.986   1.805  0.00  0.00    +0.116 C 
BRANCH  18  19
ATOM     19  C   UNL     1      -2.585  -3.413   1.252  0.00  0.00    -0.000 C 
BRANCH  19  20
ATOM     20  C   UNL     1      -3.803  -4.159   1.798  0.00  0.00    -0.085 C 
BRANCH  20  21
ATOM     21  N   UNL     1      -3.818  -5.528   1.266  0.00  0.00    +0.378 N 
ATOM     22  H   UNL     1      -3.867  -5.497   0.259  0.00  0.00    -0.090 HD
ATOM     23  H   UNL     1      -2.976  -6.008   1.548  0.00  0.00    -0.090 HD
ATOM     24  H   UNL     1      -4.622  -6.021   1.627  0.00  0.00    -0.090 HD
ENDBRANCH  20  21
ENDBRANCH  19  20
ENDBRANCH  18  19
ENDBRANCH   5  18
TORSDOF 5
