REMARK  Name = ZINC44928897
REMARK  4 active torsions:
REMARK  status: ('A' for Active; 'I' for Inactive)
REMARK    1  A    between atoms: C_4  and  C_7
REMARK    2  A    between atoms: C_13  and  N_15
REMARK    3  A    between atoms: N_15  and  C_16
REMARK    4  A    between atoms: C_16  and  C_17
REMARK                            x       y       z     vdW  Elec       q    Type
REMARK                         _______ _______ _______ _____ _____    ______ ____
ROOT
ATOM      1  C   UNL     1       2.917  -0.488   2.470  0.00  0.00    -0.022 C 
ATOM      2  C   UNL     1       4.353   0.041   2.459  0.00  0.00    +0.002 C 
ATOM      3  C   UNL     1       5.093  -0.465   3.699  0.00  0.00    +0.000 C 
ATOM      4  C   UNL     1       5.114  -1.995   3.691  0.00  0.00    -0.002 C 
ATOM      5  C   UNL     1       3.678  -2.525   3.701  0.00  0.00    -0.015 C 
ATOM      6  C   UNL     1       2.938  -2.018   2.462  0.00  0.00    -0.068 C 
ENDROOT
BRANCH   1  10
ATOM      7  C   UNL     1      -0.019   1.526   0.010  0.00  0.00    +0.000 C 
ATOM      8  C   UNL     1       1.417   2.055  -0.000  0.00  0.00    +0.000 C 
ATOM      9  C   UNL     1       2.157   1.548   1.239  0.00  0.00    +0.004 C 
ATOM     10  C   UNL     1       2.178   0.019   1.231  0.00  0.00    -0.009 C 
ATOM     11  C   UNL     1       0.742  -0.511   1.242  0.00  0.00    +0.004 C 
ATOM     12  C   UNL     1       0.002  -0.004   0.002  0.00  0.00    +0.000 C 
ENDBRANCH   1  10
BRANCH   6  13
ATOM     13  N   UNL     1       3.626  -2.492   1.253  0.00  0.00    +0.386 N 
ATOM     14  H   UNL     1       3.187  -2.091   0.438  0.00  0.00    -0.085 HD
ATOM     15  H   UNL     1       4.595  -2.212   1.286  0.00  0.00    -0.085 HD
BRANCH  13  16
ATOM     16  C   UNL     1       3.541  -3.957   1.184  0.00  0.00    -0.001 C 
BRANCH  16  17
ATOM     17  C   UNL     1       4.247  -4.443  -0.056  0.00  0.00    +0.160 A 
ATOM     18  N   UNL     1       5.521  -4.774  -0.156  0.00  0.00    -0.113 NA
ATOM     19  N   UNL     1       5.736  -5.138  -1.375  0.00  0.00    -0.021 NA
ATOM     20  N   UNL     1       4.636  -5.043  -2.038  0.00  0.00    -0.021 NA
ATOM     21  N   UNL     1       3.707  -4.624  -1.248  0.00  0.00    -0.113 NA
ENDBRANCH  16  17
ENDBRANCH  13  16
ENDBRANCH   6  13
TORSDOF 4
