REMARK  Name = ZINC01167738
REMARK  6 active torsions:
REMARK  status: ('A' for Active; 'I' for Inactive)
REMARK    1  A    between atoms: C_3  and  C_6
REMARK    2  A    between atoms: C_6  and  C_8
REMARK    3  A    between atoms: C_10  and  C_22
REMARK    4  A    between atoms: C_16  and  C_17
REMARK    5  A    between atoms: C_16  and  O_21
REMARK    6  A    between atoms: C_25  and  N_28
REMARK                            x       y       z     vdW  Elec       q    Type
REMARK                         _______ _______ _______ _____ _____    ______ ____
ROOT
ATOM      1  C   UNL     1       4.768   0.615  -0.040  0.00  0.00    +0.145 C 
ATOM      2  C   UNL     1       6.012   1.166   0.665  0.00  0.00    +0.120 C 
ATOM      3  N   UNL     1       7.102   0.197   0.543  0.00  0.00    -0.292 N 
ATOM      4  C   UNL     1       7.182  -0.635  -0.505  0.00  0.00    +0.302 C 
ATOM      5  O   UNL     1       8.114  -1.414  -0.562  0.00  0.00    -0.253 OA
ATOM      6  N   UNL     1       6.275  -0.643  -1.493  0.00  0.00    -0.264 N 
ATOM      7  C   UNL     1       5.134   0.275  -1.489  0.00  0.00    +0.243 C 
ATOM      8  H   UNL     1       7.781   0.157   1.235  0.00  0.00    +0.151 HD
ATOM      9  H   UNL     1       6.375  -1.271  -2.225  0.00  0.00    +0.153 HD
ENDROOT
BRANCH   2  10
ATOM     10  C   UNL     1       5.703   1.400   2.121  0.00  0.00    -0.026 A 
ATOM     11  C   UNL     1       5.719   0.341   3.010  0.00  0.00    +0.008 A 
ATOM     12  C   UNL     1       5.437   0.555   4.346  0.00  0.00    +0.033 A 
ATOM     13  C   UNL     1       5.138   1.828   4.793  0.00  0.00    +0.126 A 
ATOM     14  C   UNL     1       5.122   2.888   3.905  0.00  0.00    +0.033 A 
ATOM     15  C   UNL     1       5.410   2.674   2.570  0.00  0.00    +0.008 A 
BRANCH  13  16
ATOM     16  N   UNL     1       4.834   2.058   6.224  0.00  0.00    +0.056 N 
ATOM     17  O   UNL     1       4.847   1.131   7.000  0.00  0.00    -0.126 OA
ATOM     18  O   UNL     1       4.573   3.171   6.615  0.00  0.00    -0.126 OA
ENDBRANCH  13  16
ENDBRANCH   2  10
BRANCH   7  19
ATOM     19  C   UNL     1       3.938  -0.387  -2.177  0.00  0.00    +0.436 C 
ATOM     20  F   UNL     1       2.849   0.491  -2.165  0.00  0.00    -0.166 F 
ATOM     21  F   UNL     1       4.273  -0.697  -3.499  0.00  0.00    -0.166 F 
ATOM     22  F   UNL     1       3.598  -1.560  -1.495  0.00  0.00    -0.166 F 
ENDBRANCH   7  19
BRANCH   1  23
ATOM     23  C   UNL     1       3.675   1.652  -0.024  0.00  0.00    +0.179 C 
ATOM     24  O   UNL     1       3.958   2.833  -0.021  0.00  0.00    -0.291 OA
BRANCH  23  27
ATOM     25  C   UNL     1      -0.016   1.354   0.009  0.00  0.00    +0.008 A 
ATOM     26  C   UNL     1       1.173   2.038   0.002  0.00  0.00    +0.019 A 
ATOM     27  C   UNL     1       2.321   1.251  -0.013  0.00  0.00    +0.055 A 
ATOM     28  S   UNL     1       1.636  -0.395  -0.016  0.00  0.00    -0.094 S 
ATOM     29  C   UNL     1       0.002  -0.004   0.002  0.00  0.00    +0.046 A 
ENDBRANCH  23  27
ENDBRANCH   1  23
BRANCH   7  30
ATOM     30  O   UNL     1       5.485   1.472  -2.186  0.00  0.00    -0.364 OA
ATOM     31  H   UNL     1       5.728   1.331  -3.111  0.00  0.00    +0.212 HD
ENDBRANCH   7  30
TORSDOF 6
