REMARK  Name = ZINC12659648
REMARK  9 active torsions:
REMARK  status: ('A' for Active; 'I' for Inactive)
REMARK    1  A    between atoms: C_1  and  C_2
REMARK    2  A    between atoms: C_2  and  C_4
REMARK    3  A    between atoms: C_4  and  O_41
REMARK    4  A    between atoms: C_9  and  C_40
REMARK    5  A    between atoms: N_21  and  O_22
REMARK    6  A    between atoms: O_22  and  C_23
REMARK    7  A    between atoms: C_23  and  C_24
REMARK    8  A    between atoms: N_26  and  C_27
REMARK    9  A    between atoms: C_38  and  C_39
REMARK                            x       y       z     vdW  Elec       q    Type
REMARK                         _______ _______ _______ _____ _____    ______ ____
ROOT
ATOM      1  C   UNL     1       0.979  -1.117  -2.217  0.00  0.00    +0.129 C 
ATOM      2  C   UNL     1       1.999  -0.043  -1.795  0.00  0.00    +0.043 C 
ATOM      3  C   UNL     1       1.504   1.289  -2.384  0.00  0.00    +0.008 C 
ATOM      4  C   UNL     1      -0.026   1.111  -2.574  0.00  0.00    +0.002 C 
ATOM      5  C   UNL     1      -0.189  -0.378  -2.878  0.00  0.00    +0.007 C 
ATOM      6  C   UNL     1      -1.534  -0.966  -2.530  0.00  0.00    +0.010 C 
ATOM      7  C   UNL     1      -2.087  -0.478  -1.196  0.00  0.00    +0.005 C 
ATOM      8  C   UNL     1      -2.151   1.051  -1.234  0.00  0.00    +0.002 C 
ATOM      9  C   UNL     1      -0.720   1.576  -1.298  0.00  0.00    -0.003 C 
ATOM     10  C   UNL     1       0.061   1.147  -0.059  0.00  0.00    +0.008 C 
ATOM     11  C   UNL     1      -0.588   1.748   1.191  0.00  0.00    +0.031 C 
ATOM     12  C   UNL     1      -2.054   1.362   1.223  0.00  0.00    -0.062 C 
ATOM     13  C   UNL     1      -2.530   0.848   2.350  0.00  0.00    +0.026 C 
ATOM     14  C   UNL     1      -3.955   0.501   2.469  0.00  0.00    +0.080 C 
ATOM     15  N   UNL     1      -4.391  -0.282   3.405  0.00  0.00    -0.089 NA
ATOM     16  C   UNL     1      -4.898   1.131   1.462  0.00  0.00    +0.059 C 
ATOM     17  C   UNL     1      -4.275   0.981   0.076  0.00  0.00    +0.017 C 
ATOM     18  C   UNL     1      -2.884   1.586  -0.003  0.00  0.00    -0.007 C 
ATOM     19  C   UNL     1      -3.065   3.098  -0.179  0.00  0.00    +0.016 C 
ATOM     20  C   UNL     1      -0.015  -0.553  -4.405  0.00  0.00    +0.015 C 
ENDROOT
BRANCH   1  22
ATOM     21  C   UNL     1       1.093  -3.459  -3.376  0.00  0.00    +0.089 C 
ATOM     22  C   UNL     1       1.618  -2.055  -3.217  0.00  0.00    +0.162 C 
ATOM     23  O   UNL     1       2.549  -1.679  -3.889  0.00  0.00    -0.295 OA
ENDBRANCH   1  22
BRANCH   1  24
ATOM     24  O   UNL     1       0.538  -1.865  -1.083  0.00  0.00    -0.381 OA
ATOM     25  H   UNL     1       1.244  -2.346  -0.630  0.00  0.00    +0.211 HD
ENDBRANCH   1  24
BRANCH  15  26
ATOM     26  O   UNL     1      -3.487  -0.829   4.349  0.00  0.00    -0.384 OA
BRANCH  26  27
ATOM     27  C   UNL     1      -4.104  -1.673   5.323  0.00  0.00    +0.358 C 
BRANCH  27  28
ATOM     28  C   UNL     1      -3.055  -2.196   6.271  0.00  0.00    +0.254 C 
ATOM     29  O   UNL     1      -1.894  -1.877   6.126  0.00  0.00    -0.272 OA
ATOM     30  N   UNL     1      -3.408  -3.018   7.279  0.00  0.00    -0.301 N 
ATOM     31  H   UNL     1      -4.337  -3.273   7.395  0.00  0.00    +0.150 HD
BRANCH  30  32
ATOM     32  C   UNL     1      -2.388  -3.526   8.200  0.00  0.00    +0.159 C 
ATOM     33  C   UNL     1      -2.863  -4.845   8.815  0.00  0.00    +0.032 C 
ATOM     34  C   UNL     1      -1.681  -5.685   9.264  0.00  0.00    +0.004 C 
ATOM     35  C   UNL     1      -0.905  -5.083  10.421  0.00  0.00    +0.019 C 
ATOM     36  C   UNL     1      -0.200  -3.794   9.993  0.00  0.00    +0.104 C 
ATOM     37  N   UNL     1      -1.137  -2.670  10.151  0.00  0.00    -0.314 N 
ATOM     38  C   UNL     1      -2.168  -2.527   9.316  0.00  0.00    +0.233 C 
ATOM     39  O   UNL     1      -2.931  -1.595   9.452  0.00  0.00    -0.274 OA
ATOM     40  H   UNL     1      -1.004  -2.029  10.866  0.00  0.00    +0.149 HD
ENDBRANCH  30  32
ENDBRANCH  27  28
ENDBRANCH  26  27
ENDBRANCH  15  26
TORSDOF 6
