REMARK  Name = ZINC37072269
REMARK  8 active torsions:
REMARK  status: ('A' for Active; 'I' for Inactive)
REMARK    1  A    between atoms: C_1  and  C_2
REMARK    2  A    between atoms: C_5  and  O_21
REMARK    3  A    between atoms: C_6  and  C_8
REMARK    4  A    between atoms: C_8  and  C_10
REMARK    5  A    between atoms: C_8  and  N_11
REMARK    6  A    between atoms: N_11  and  C_12
REMARK    7  A    between atoms: C_15  and  C_19
REMARK    8  A    between atoms: O_21  and  C_22
REMARK                            x       y       z     vdW  Elec       q    Type
REMARK                         _______ _______ _______ _____ _____    ______ ____
ROOT
ATOM      1  C   UNL     1       0.052  -2.841   2.493  0.00  0.00    +0.101 C 
ATOM      2  C   UNL     1       1.496  -3.187   2.864  0.00  0.00    +0.033 C 
ENDROOT
BRANCH   1   8
ATOM      3  C   UNL     1      -0.018   1.503   0.010  0.00  0.00    +0.044 C 
ATOM      4  C   UNL     1       0.002  -0.004   0.002  0.00  0.00    -0.050 A 
ATOM      5  C   UNL     1       0.006  -0.688  -1.200  0.00  0.00    +0.007 A 
ATOM      6  C   UNL     1       0.024  -2.069  -1.210  0.00  0.00    +0.046 A 
ATOM      7  C   UNL     1       0.039  -2.770  -0.013  0.00  0.00    +0.125 A 
ATOM      8  C   UNL     1       0.036  -2.082   1.191  0.00  0.00    +0.014 A 
ATOM      9  C   UNL     1       0.023  -0.701   1.196  0.00  0.00    +0.012 A 
BRANCH   7  10
ATOM     10  O   UNL     1       0.057  -4.129  -0.021  0.00  0.00    -0.495 OA
ATOM     11  C   UNL     1       0.058  -4.771  -1.298  0.00  0.00    +0.277 C 
ENDBRANCH   7  10
ENDBRANCH   1   8
BRANCH   1  12
ATOM     12  N   UNL     1      -0.537  -2.013   3.548  0.00  0.00    -0.336 N 
ATOM     13  H   UNL     1      -0.529  -1.046   3.468  0.00  0.00    +0.147 HD
BRANCH  12  14
ATOM     14  C   UNL     1      -1.109  -2.613   4.667  0.00  0.00    +0.042 A 
ATOM     15  C   UNL     1      -1.115  -4.000   4.783  0.00  0.00    +0.025 A 
ATOM     16  C   UNL     1      -1.679  -4.597   5.888  0.00  0.00    +0.021 A 
ATOM     17  C   UNL     1      -2.247  -3.809   6.893  0.00  0.00    +0.053 A 
ATOM     18  C   UNL     1      -2.240  -2.417   6.774  0.00  0.00    +0.036 A 
ATOM     19  C   UNL     1      -1.669  -1.825   5.668  0.00  0.00    +0.040 A 
ATOM     20 BR   UNL     1      -1.652   0.059   5.508  0.00  0.00    -0.048 Br
BRANCH  17  21
ATOM     21  C   UNL     1      -2.836  -4.428   8.043  0.00  0.00    +0.099 C 
ATOM     22  N   UNL     1      -3.303  -4.918   8.955  0.00  0.00    -0.191 NA
ENDBRANCH  17  21
ENDBRANCH  12  14
ENDBRANCH   1  12
TORSDOF 5
