REMARK  Name = ZINC36589430
REMARK  14 active torsions:
REMARK  status: ('A' for Active; 'I' for Inactive)
REMARK    1  A    between atoms: C_1  and  C_2
REMARK    2  A    between atoms: C_2  and  C_3
REMARK    3  A    between atoms: C_3  and  C_4
REMARK    4  A    between atoms: N_6  and  C_7
REMARK    5  A    between atoms: N_6  and  C_27
REMARK    6  A    between atoms: C_7  and  C_9
REMARK    7  A    between atoms: C_7  and  C_18
REMARK    8  A    between atoms: C_10  and  O_17
REMARK    9  A    between atoms: C_12  and  O_16
REMARK   10  A    between atoms: C_14  and  O_15
REMARK   11  A    between atoms: N_20  and  C_21
REMARK   12  A    between atoms: C_27  and  C_28
REMARK   13  A    between atoms: C_27  and  C_29
REMARK   14  A    between atoms: C_27  and  C_30
REMARK                            x       y       z     vdW  Elec       q    Type
REMARK                         _______ _______ _______ _____ _____    ______ ____
ROOT
ATOM      1  C   UNL     1       1.821  -4.800  -1.875  0.00  0.00    +0.200 C 
ENDROOT
BRANCH   1   2
ATOM      2  C   UNL     1       1.684  -5.092  -3.347  0.00  0.00    +0.065 A 
ATOM      3  C   UNL     1       2.649  -4.643  -4.236  0.00  0.00    +0.129 A 
ATOM      4  C   UNL     1       2.523  -4.912  -5.590  0.00  0.00    +0.091 A 
ATOM      5  C   UNL     1       1.433  -5.630  -6.056  0.00  0.00    +0.124 A 
ATOM      6  C   UNL     1       0.468  -6.081  -5.167  0.00  0.00    +0.091 A 
ATOM      7  C   UNL     1       0.596  -5.815  -3.812  0.00  0.00    +0.129 A 
BRANCH   7   8
ATOM      8  O   UNL     1      -0.347  -6.260  -2.940  0.00  0.00    -0.506 OA
ATOM      9  H   UNL     1      -1.073  -5.639  -2.795  0.00  0.00    +0.292 HD
ENDBRANCH   7   8
BRANCH   5  10
ATOM     10  O   UNL     1       1.309  -5.893  -7.383  0.00  0.00    -0.507 OA
ATOM     11  H   UNL     1       1.723  -6.722  -7.661  0.00  0.00    +0.292 HD
ENDBRANCH   5  10
BRANCH   3  12
ATOM     12  O   UNL     1       3.718  -3.938  -3.779  0.00  0.00    -0.506 OA
ATOM     13  H   UNL     1       4.503  -4.478  -3.614  0.00  0.00    +0.292 HD
ENDBRANCH   3  12
ENDBRANCH   1   2
BRANCH   1  14
ATOM     14  C   UNL     1       3.183  -5.236  -1.401  0.00  0.00    +0.239 C 
ATOM     15  O   UNL     1       4.059  -4.414  -1.232  0.00  0.00    -0.273 OA
ATOM     16  N   UNL     1       3.428  -6.540  -1.163  0.00  0.00    -0.311 N 
ATOM     17  H   UNL     1       2.728  -7.198  -1.298  0.00  0.00    +0.149 HD
BRANCH  16  18
ATOM     18  C   UNL     1       4.752  -6.965  -0.702  0.00  0.00    +0.073 C 
ATOM     19  C   UNL     1       5.673  -7.162  -1.908  0.00  0.00    +0.022 C 
ATOM     20  C   UNL     1       7.056  -7.605  -1.427  0.00  0.00    +0.002 C 
ATOM     21  C   UNL     1       6.931  -8.923  -0.660  0.00  0.00    +0.000 C 
ATOM     22  C   UNL     1       6.010  -8.726   0.546  0.00  0.00    +0.002 C 
ATOM     23  C   UNL     1       4.627  -8.283   0.065  0.00  0.00    +0.022 C 
ENDBRANCH  16  18
ENDBRANCH   1  14
BRANCH   1  26
ATOM     24  C   UNL     1       1.486  -2.528  -2.690  0.00  0.00    +0.217 C 
ATOM     25  O   UNL     1       1.326  -2.978  -3.805  0.00  0.00    -0.276 OA
ATOM     26  N   UNL     1       1.662  -3.361  -1.646  0.00  0.00    -0.281 N 
BRANCH  26  27
ATOM     27  C   UNL     1       1.694  -2.829  -0.281  0.00  0.00    +0.030 C 
ATOM     28  C   UNL     1       0.302  -2.323   0.102  0.00  0.00    +0.031 C 
ATOM     29  C   UNL     1       2.119  -3.934   0.687  0.00  0.00    +0.031 C 
ATOM     30  C   UNL     1       2.694  -1.674  -0.208  0.00  0.00    +0.031 C 
ENDBRANCH  26  27
BRANCH  24  31
ATOM     31  C   UNL     1       1.488  -1.037  -2.473  0.00  0.00    +0.096 C 
BRANCH  31  33
ATOM     32  C   UNL     1       1.029   1.179  -3.532  0.00  0.00    +0.004 C 
ATOM     33  C   UNL     1       1.027  -0.335  -3.752  0.00  0.00    +0.006 C 
ENDBRANCH  31  33
ENDBRANCH  24  31
ENDBRANCH   1  26
TORSDOF 10
