REMARK  Name = ZINC01511050
REMARK  2 active torsions:
REMARK  status: ('A' for Active; 'I' for Inactive)
REMARK    1  A    between atoms: C_9  and  N_22
REMARK    2  A    between atoms: C_10  and  N_13
REMARK                            x       y       z     vdW  Elec       q    Type
REMARK                         _______ _______ _______ _____ _____    ______ ____
ROOT
ATOM      1  C   UNL     1       0.005   1.399   0.085  0.00  0.00    +0.001 A 
ATOM      2  C   UNL     1       1.192   2.104   0.140  0.00  0.00    +0.001 A 
ATOM      3  C   UNL     1       2.407   1.436   0.122  0.00  0.00    +0.012 A 
ATOM      4  C   UNL     1       2.432   0.049   0.049  0.00  0.00    +0.035 A 
ATOM      5  C   UNL     1       1.224  -0.668  -0.006  0.00  0.00    +0.034 A 
ATOM      6  C   UNL     1       0.013   0.015   0.012  0.00  0.00    +0.012 A 
ATOM      7  C   UNL     1       1.257  -2.145  -0.084  0.00  0.00    +0.209 C 
ATOM      8  O   UNL     1       0.221  -2.777  -0.133  0.00  0.00    -0.285 OA
ATOM      9  C   UNL     1       2.559  -2.849  -0.101  0.00  0.00    +0.104 C 
ATOM     10  C   UNL     1       3.725  -2.150  -0.047  0.00  0.00    +0.157 C 
ATOM     11  C   UNL     1       3.718  -0.684   0.030  0.00  0.00    +0.216 C 
ATOM     12  O   UNL     1       4.768  -0.072   0.078  0.00  0.00    -0.285 OA
ENDROOT
BRANCH  10  13
ATOM     13  N   UNL     1       4.941  -2.834  -0.065  0.00  0.00    -0.143 N 
ATOM     14  N   UNL     1       5.794  -2.798   0.899  0.00  0.00    -0.147 NA
ATOM     15  C   UNL     1       6.837  -3.547   0.578  0.00  0.00    +0.113 A 
ATOM     16  C   UNL     1       8.056  -3.908   1.176  0.00  0.00    +0.032 A 
ATOM     17  C   UNL     1       8.909  -4.732   0.513  0.00  0.00    +0.002 A 
ATOM     18  C   UNL     1       8.608  -5.234  -0.754  0.00  0.00    +0.002 A 
ATOM     19  C   UNL     1       7.447  -4.924  -1.388  0.00  0.00    +0.032 A 
ATOM     20  C   UNL     1       6.519  -4.077  -0.758  0.00  0.00    +0.113 A 
ATOM     21  N   UNL     1       5.329  -3.574  -1.045  0.00  0.00    -0.147 NA
ENDBRANCH  10  13
BRANCH   9  22
ATOM     22  N   UNL     1       2.591  -4.226  -0.173  0.00  0.00    -0.353 N 
ATOM     23  H   UNL     1       1.764  -4.732  -0.141  0.00  0.00    +0.142 HD
ATOM     24  H   UNL     1       3.440  -4.688  -0.256  0.00  0.00    +0.142 HD
ENDBRANCH   9  22
TORSDOF 2
