REMARK  Name = ZINC38990143
REMARK  10 active torsions:
REMARK  status: ('A' for Active; 'I' for Inactive)
REMARK    1  A    between atoms: C_1  and  C_2
REMARK    2  A    between atoms: C_5  and  O_34
REMARK    3  A    between atoms: C_6  and  N_8
REMARK    4  A    between atoms: C_9  and  C_11
REMARK    5  A    between atoms: C_11  and  S_12
REMARK    6  A    between atoms: S_12  and  C_13
REMARK    7  A    between atoms: C_17  and  C_21
REMARK    8  A    between atoms: N_19  and  N_20
REMARK    9  A    between atoms: C_24  and  C_27
REMARK   10  A    between atoms: O_34  and  C_35
REMARK                            x       y       z     vdW  Elec       q    Type
REMARK                         _______ _______ _______ _____ _____    ______ ____
ROOT
ATOM      1  C   UNL     1       0.540  -2.791   7.705  0.00  0.00    +0.214 C 
ATOM      2  N   UNL     1      -0.623  -3.703   7.790  0.00  0.00    -0.228 NA
ATOM      3  N   UNL     1      -0.160  -4.948   7.156  0.00  0.00    -0.234 NA
ATOM      4  C   UNL     1       1.254  -5.046   7.604  0.00  0.00    +0.185 C 
ATOM      5  N   UNL     1       1.739  -3.646   7.589  0.00  0.00    -0.197 NA
ATOM      6  H   UNL     1      -0.889  -3.863   8.750  0.00  0.00    +0.143 HD
ATOM      7  H   UNL     1      -0.697  -5.739   7.479  0.00  0.00    +0.143 HD
ENDROOT
BRANCH   4   8
ATOM      8  C   UNL     1       2.064  -5.907   6.633  0.00  0.00    +0.187 C 
ATOM      9  C   UNL     1       1.472  -7.301   6.530  0.00  0.00    +0.034 C 
ATOM     10  C   UNL     1       2.460  -8.105   6.970  0.00  0.00    +0.091 C 
ATOM     11  N   UNL     1       3.550  -7.371   7.315  0.00  0.00    -0.154 NA
ATOM     12  N   UNL     1       3.417  -6.151   7.159  0.00  0.00    -0.176 NA
BRANCH  10  13
ATOM     13  C   UNL     1       2.370  -9.583   7.063  0.00  0.00    +0.002 A 
ATOM     14  C   UNL     1       1.203 -10.239   6.676  0.00  0.00    +0.011 A 
ATOM     15  C   UNL     1       1.125 -11.613   6.765  0.00  0.00    +0.020 A 
ATOM     16  C   UNL     1       2.203 -12.341   7.239  0.00  0.00    +0.041 A 
ATOM     17  C   UNL     1       3.365 -11.694   7.624  0.00  0.00    +0.020 A 
ATOM     18  C   UNL     1       3.455 -10.320   7.533  0.00  0.00    +0.011 A 
ATOM     19 CL   UNL     1       2.098 -14.070   7.349  0.00  0.00    -0.084 Cl
ENDBRANCH  10  13
ENDBRANCH   4   8
BRANCH   5  20
ATOM     20  N   UNL     1       2.662  -3.401   8.685  0.00  0.00    -0.264 NA
ATOM     21  H   UNL     1       2.965  -2.439   8.695  0.00  0.00    +0.137 HD
ATOM     22  H   UNL     1       2.250  -3.659   9.569  0.00  0.00    +0.137 HD
ENDBRANCH   5  20
BRANCH   1  23
ATOM     23  S   UNL     1       0.390  -1.726   6.244  0.00  0.00    -0.115 S 
BRANCH  23  24
ATOM     24  C   UNL     1       0.279  -2.894   4.860  0.00  0.00    +0.168 C 
BRANCH  24  26
ATOM     25  N   UNL     1       0.050  -2.795   2.399  0.00  0.00    -0.282 N 
ATOM     26  C   UNL     1       0.149  -2.130   3.568  0.00  0.00    +0.227 C 
ATOM     27  O   UNL     1       0.134  -0.917   3.579  0.00  0.00    -0.275 OA
ATOM     28  H   UNL     1      -0.018  -3.762   2.396  0.00  0.00    +0.155 HD
BRANCH  25  34
ATOM     29  C   UNL     1       1.263   1.227  -0.157  0.00  0.00    +0.044 C 
ATOM     30  C   UNL     1       0.627  -0.137  -0.079  0.00  0.00    -0.048 A 
ATOM     31  C   UNL     1       0.040  -0.689  -1.202  0.00  0.00    +0.007 A 
ATOM     32  C   UNL     1      -0.546  -1.940  -1.136  0.00  0.00    +0.048 A 
ATOM     33  C   UNL     1      -0.545  -2.643   0.058  0.00  0.00    +0.141 A 
ATOM     34  C   UNL     1       0.047  -2.088   1.189  0.00  0.00    +0.076 A 
ATOM     35  C   UNL     1       0.637  -0.835   1.114  0.00  0.00    +0.030 A 
BRANCH  33  36
ATOM     36  O   UNL     1      -1.121  -3.873   0.124  0.00  0.00    -0.493 OA
ATOM     37  C   UNL     1      -1.709  -4.380  -1.076  0.00  0.00    +0.277 C 
ENDBRANCH  33  36
ENDBRANCH  25  34
ENDBRANCH  24  26
ENDBRANCH  23  24
ENDBRANCH   1  23
TORSDOF 8
