REMARK  Name = ZINC11717264
REMARK  8 active torsions:
REMARK  status: ('A' for Active; 'I' for Inactive)
REMARK    1  A    between atoms: C_11  and  C_26
REMARK    2  A    between atoms: C_15  and  C_16
REMARK    3  A    between atoms: C_15  and  N_57
REMARK    4  A    between atoms: C_20  and  O_22
REMARK    5  A    between atoms: O_22  and  C_23
REMARK    6  A    between atoms: C_23  and  C_24
REMARK    7  A    between atoms: C_24  and  O_25
REMARK    8  A    between atoms: C_30  and  O_32
REMARK                            x       y       z     vdW  Elec       q    Type
REMARK                         _______ _______ _______ _____ _____    ______ ____
ROOT
ATOM      1  C   UNL     1       3.920  -1.432  -5.343  0.00  0.00    +0.001 A 
ATOM      2  C   UNL     1       3.527  -0.199  -5.837  0.00  0.00    +0.002 A 
ATOM      3  C   UNL     1       3.078   0.818  -5.013  0.00  0.00    +0.026 A 
ATOM      4  C   UNL     1       3.037   0.550  -3.646  0.00  0.00    +0.047 A 
ATOM      5  C   UNL     1       3.442  -0.715  -3.144  0.00  0.00    +0.003 A 
ATOM      6  C   UNL     1       3.890  -1.724  -4.002  0.00  0.00    +0.010 A 
ATOM      7  C   UNL     1       3.273  -0.645  -1.710  0.00  0.00    -0.022 A 
ATOM      8  C   UNL     1       2.799   0.588  -1.423  0.00  0.00    +0.011 A 
ATOM      9  N   UNL     1       2.655   1.310  -2.576  0.00  0.00    -0.359 N 
ATOM     10  H   UNL     1       2.332   2.223  -2.627  0.00  0.00    +0.166 HD
ATOM     11  C   UNL     1       2.490   1.045  -0.016  0.00  0.00    +0.011 C 
ATOM     12  C   UNL     1       3.587  -1.000   0.706  0.00  0.00    -0.072 C 
ATOM     13  C   UNL     1       3.551  -1.694  -0.663  0.00  0.00    +0.019 C 
ATOM     14  N   UNL     1       2.377  -0.157   0.843  0.00  0.00    +0.391 N 
ATOM     15  H   UNL     1       1.558  -0.701   0.547  0.00  0.00    -0.080 HD
ENDROOT
BRANCH  11  16
ATOM     16  C   UNL     1       1.176   1.782   0.000  0.00  0.00    -0.052 A 
ATOM     17  C   UNL     1      -0.013   1.076   0.008  0.00  0.00    +0.002 A 
ATOM     18  C   UNL     1      -1.220   1.750   0.017  0.00  0.00    +0.004 A 
ATOM     19  C   UNL     1      -1.241   3.131   0.031  0.00  0.00    +0.045 A 
ATOM     20  C   UNL     1      -0.050   3.842   0.024  0.00  0.00    +0.117 A 
ATOM     21  C   UNL     1       1.160   3.163   0.008  0.00  0.00    +0.047 A 
BRANCH  20  22
ATOM     22  O   UNL     1      -0.069   5.201   0.032  0.00  0.00    -0.507 OA
ATOM     23  H   UNL     1      -0.082   5.599  -0.849  0.00  0.00    +0.292 HD
ENDBRANCH  20  22
ENDBRANCH  11  16
BRANCH  14  24
ATOM     24  C   UNL     1       2.201   0.245   2.253  0.00  0.00    -0.041 C 
BRANCH  24  25
ATOM     25  C   UNL     1       1.872  -0.979   3.069  0.00  0.00    -0.060 A 
ATOM     26  C   UNL     1       0.554  -1.366   3.233  0.00  0.00    +0.002 A 
ATOM     27  C   UNL     1       0.250  -2.490   3.977  0.00  0.00    +0.004 A 
ATOM     28  C   UNL     1       1.260  -3.224   4.568  0.00  0.00    +0.045 A 
ATOM     29  C   UNL     1       2.582  -2.835   4.409  0.00  0.00    +0.121 A 
ATOM     30  C   UNL     1       2.886  -1.709   3.657  0.00  0.00    +0.047 A 
BRANCH  29  31
ATOM     31  O   UNL     1       3.578  -3.556   4.988  0.00  0.00    -0.490 OA
BRANCH  31  32
ATOM     32  C   UNL     1       3.192  -4.703   5.747  0.00  0.00    +0.256 C 
BRANCH  32  33
ATOM     33  C   UNL     1       4.439  -5.381   6.318  0.00  0.00    +0.196 C 
BRANCH  33  34
ATOM     34  O   UNL     1       5.072  -4.505   7.252  0.00  0.00    -0.392 OA
ATOM     35  H   UNL     1       5.872  -4.870   7.655  0.00  0.00    +0.210 HD
ENDBRANCH  33  34
ENDBRANCH  32  33
ENDBRANCH  31  32
ENDBRANCH  29  31
ENDBRANCH  24  25
ENDBRANCH  14  24
TORSDOF 8
