REMARK  Name = ZINC64246406
REMARK  10 active torsions:
REMARK  status: ('A' for Active; 'I' for Inactive)
REMARK    1  A    between atoms: C_1  and  C_2
REMARK    2  A    between atoms: C_2  and  C_3
REMARK    3  A    between atoms: C_3  and  N_4
REMARK    4  A    between atoms: N_4  and  C_5
REMARK    5  A    between atoms: N_4  and  C_22
REMARK    6  A    between atoms: C_5  and  C_6
REMARK    7  A    between atoms: N_11  and  C_12
REMARK    8  A    between atoms: C_22  and  C_23
REMARK    9  A    between atoms: N_25  and  C_26
REMARK   10  A    between atoms: N_25  and  C_27
REMARK                            x       y       z     vdW  Elec       q    Type
REMARK                         _______ _______ _______ _____ _____    ______ ____
ROOT
ATOM      1  C   UNL     1       0.719  -1.800  -1.135  0.00  0.00    +0.204 C 
ATOM      2  O   UNL     1      -0.281  -1.124  -1.018  0.00  0.00    -0.277 OA
ATOM      3  N   UNL     1       1.236  -2.031  -2.358  0.00  0.00    -0.242 N 
ATOM      4  C   UNL     1       0.642  -1.510  -3.451  0.00  0.00    +0.306 C 
ATOM      5  O   UNL     1      -0.360  -0.833  -3.333  0.00  0.00    -0.252 OA
ATOM      6  N   UNL     1       1.159  -1.741  -4.673  0.00  0.00    -0.294 N 
ATOM      7  H   UNL     1       2.036  -2.572  -2.453  0.00  0.00    +0.159 HD
ATOM      8  H   UNL     1       1.959  -2.282  -4.768  0.00  0.00    +0.151 HD
ENDROOT
BRANCH   6   9
ATOM      9  C   UNL     1       0.514  -1.175  -5.861  0.00  0.00    +0.037 C 
ATOM     10  C   UNL     1      -0.920  -1.700  -5.961  0.00  0.00    +0.029 C 
ATOM     11  C   UNL     1      -1.594  -1.109  -7.200  0.00  0.00    -0.008 C 
ATOM     12  C   UNL     1      -0.812  -1.519  -8.450  0.00  0.00    +0.007 C 
ATOM     13  C   UNL     1       0.621  -0.995  -8.350  0.00  0.00    -0.008 C 
ATOM     14  C   UNL     1       1.295  -1.585  -7.111  0.00  0.00    +0.029 C 
ATOM     15  C   UNL     1       0.600   0.531  -8.240  0.00  0.00    +0.007 C 
ATOM     16  C   UNL     1      -0.182   0.942  -6.990  0.00  0.00    -0.008 C 
ATOM     17  C   UNL     1      -1.616   0.417  -7.090  0.00  0.00    +0.007 C 
ATOM     18  C   UNL     1       0.492   0.350  -5.751  0.00  0.00    +0.029 C 
ENDBRANCH   6   9
BRANCH   1  19
ATOM     19  C   UNL     1       1.383  -2.382   0.086  0.00  0.00    +0.020 C 
BRANCH  19  20
ATOM     20  N   UNL     1       0.550  -2.121   1.267  0.00  0.00    +0.391 N 
ATOM     21  H   UNL     1       0.346  -1.134   1.323  0.00  0.00    -0.080 HD
BRANCH  20  22
ATOM     22  C   UNL     1       1.270  -2.541   2.477  0.00  0.00    -0.078 C 
BRANCH  22  24
ATOM     23  C   UNL     1       3.171  -1.995   4.004  0.00  0.00    +0.002 C 
ATOM     24  C   UNL     1       2.506  -1.660   2.667  0.00  0.00    -0.022 C 
ENDBRANCH  22  24
ENDBRANCH  20  22
BRANCH  20  25
ATOM     25  C   UNL     1      -0.706  -2.875   1.158  0.00  0.00    +0.019 C 
BRANCH  25  26
ATOM     26  C   UNL     1      -1.611  -2.513   2.307  0.00  0.00    +0.199 C 
ATOM     27  O   UNL     1      -1.245  -1.706   3.136  0.00  0.00    -0.278 OA
ATOM     28  N   UNL     1      -2.826  -3.085   2.414  0.00  0.00    -0.309 N 
ATOM     29  C   UNL     1      -3.706  -2.733   3.532  0.00  0.00    +0.131 C 
ATOM     30  C   UNL     1      -3.267  -4.060   1.414  0.00  0.00    +0.131 C 
ENDBRANCH  25  26
ENDBRANCH  20  25
ENDBRANCH  19  20
ENDBRANCH   1  19
TORSDOF 7
