REMARK  Name = ZINC67081242
REMARK  15 active torsions:
REMARK  status: ('A' for Active; 'I' for Inactive)
REMARK    1  A    between atoms: C_1  and  C_2
REMARK    2  A    between atoms: C_2  and  C_3
REMARK    3  A    between atoms: C_3  and  C_5
REMARK    4  A    between atoms: C_3  and  N_6
REMARK    5  A    between atoms: C_7  and  C_9
REMARK    6  A    between atoms: C_9  and  C_11
REMARK    7  A    between atoms: C_9  and  N_12
REMARK    8  A    between atoms: N_15  and  C_16
REMARK    9  A    between atoms: N_15  and  C_18
REMARK   10  A    between atoms: C_16  and  C_17
REMARK   11  A    between atoms: C_18  and  C_19
REMARK   12  A    between atoms: C_22  and  C_25
REMARK   13  A    between atoms: C_25  and  N_26
REMARK   14  A    between atoms: N_26  and  C_27
REMARK   15  A    between atoms: N_26  and  C_28
REMARK                            x       y       z     vdW  Elec       q    Type
REMARK                         _______ _______ _______ _____ _____    ______ ____
ROOT
ATOM      1  N   UNL     1      -5.587   0.404  -2.322  0.00  0.00    -0.288 N 
ATOM      2  C   UNL     1      -6.433   0.234  -3.357  0.00  0.00    +0.303 C 
ATOM      3  O   UNL     1      -5.995   0.041  -4.475  0.00  0.00    -0.253 OA
ATOM      4  N   UNL     1      -7.765   0.278  -3.153  0.00  0.00    -0.282 N 
ATOM      5  H   UNL     1      -5.936   0.558  -1.431  0.00  0.00    +0.151 HD
ENDROOT
BRANCH   1   6
ATOM      6  C   UNL     1      -4.140   0.357  -2.544  0.00  0.00    +0.157 C 
ATOM      7  C   UNL     1      -3.646   1.736  -2.984  0.00  0.00    +0.038 C 
BRANCH   6   9
ATOM      8  N   UNL     1      -2.105  -0.148  -1.230  0.00  0.00    -0.311 N 
ATOM      9  C   UNL     1      -3.448  -0.040  -1.265  0.00  0.00    +0.233 C 
ATOM     10  O   UNL     1      -4.100  -0.261  -0.267  0.00  0.00    -0.274 OA
ATOM     11  H   UNL     1      -1.584   0.029  -2.029  0.00  0.00    +0.149 HD
BRANCH   8  12
ATOM     12  C   UNL     1      -1.433  -0.534   0.013  0.00  0.00    +0.070 C 
ATOM     13  C   UNL     1      -1.413  -2.059   0.130  0.00  0.00    +0.028 C 
BRANCH  12  15
ATOM     14  C   UNL     1      -0.019   1.526   0.010  0.00  0.00    +0.005 C 
ATOM     15  C   UNL     1       0.002  -0.004   0.002  0.00  0.00    +0.018 C 
ENDBRANCH  12  15
ENDBRANCH   8  12
ENDBRANCH   6   9
ENDBRANCH   1   6
BRANCH   4  16
ATOM     16  C   UNL     1      -8.292   0.510  -1.807  0.00  0.00    +0.106 C 
ATOM     17  C   UNL     1      -8.466   2.013  -1.579  0.00  0.00    +0.024 C 
ENDBRANCH   4  16
BRANCH   4  18
ATOM     18  C   UNL     1      -8.685   0.093  -4.279  0.00  0.00    +0.144 C 
BRANCH  18  19
ATOM     19  C   UNL     1      -9.009  -1.371  -4.426  0.00  0.00    -0.030 A 
ATOM     20  C   UNL     1      -8.223  -2.176  -5.230  0.00  0.00    +0.005 A 
ATOM     21  C   UNL     1      -8.521  -3.519  -5.365  0.00  0.00    +0.002 A 
ATOM     22  C   UNL     1      -9.605  -4.058  -4.697  0.00  0.00    -0.064 A 
ATOM     23  C   UNL     1     -10.391  -3.253  -3.893  0.00  0.00    +0.002 A 
ATOM     24  C   UNL     1     -10.090  -1.911  -3.754  0.00  0.00    +0.005 A 
BRANCH  22  25
ATOM     25  C   UNL     1      -9.931  -5.521  -4.845  0.00  0.00    -0.044 C 
BRANCH  25  26
ATOM     26  N   UNL     1      -9.224  -6.288  -3.810  0.00  0.00    +0.379 N 
ATOM     27  C   UNL     1      -9.633  -7.697  -3.879  0.00  0.00    -0.096 C 
ATOM     28  C   UNL     1      -7.775  -6.187  -4.030  0.00  0.00    -0.096 C 
ATOM     29  H   UNL     1      -9.453  -5.915  -2.901  0.00  0.00    -0.082 HD
ENDBRANCH  25  26
ENDBRANCH  22  25
ENDBRANCH  18  19
ENDBRANCH   4  18
TORSDOF 9
