REMARK  Name = ZINC05359110
REMARK  6 active torsions:
REMARK  status: ('A' for Active; 'I' for Inactive)
REMARK    1  A    between atoms: C_1  and  C_2
REMARK    2  A    between atoms: C_2  and  C_4
REMARK    3  A    between atoms: C_2  and  O_11
REMARK    4  A    between atoms: N_9  and  C_10
REMARK    5  A    between atoms: O_11  and  C_12
REMARK    6  A    between atoms: C_12  and  C_14
REMARK                            x       y       z     vdW  Elec       q    Type
REMARK                         _______ _______ _______ _____ _____    ______ ____
ROOT
ATOM      1  O   UNL     1       0.002  -0.004   0.002  0.00  0.00    -0.448 OA
ENDROOT
BRANCH   1   3
ATOM      2  C   UNL     1       1.776  -0.879   1.423  0.00  0.00    +0.062 C 
ATOM      3  C   UNL     1       1.305  -0.646  -0.014  0.00  0.00    +0.259 C 
BRANCH   3   4
ATOM      4  C   UNL     1       1.205  -1.968  -0.731  0.00  0.00    +0.261 C 
ATOM      5  O   UNL     1       0.141  -2.333  -1.183  0.00  0.00    -0.271 OA
ATOM      6  N   UNL     1       2.298  -2.744  -0.868  0.00  0.00    -0.237 N 
ATOM      7  C   UNL     1       2.209  -3.926  -1.509  0.00  0.00    +0.306 C 
ATOM      8  O   UNL     1       1.142  -4.292  -1.963  0.00  0.00    -0.252 OA
ATOM      9  N   UNL     1       3.302  -4.702  -1.647  0.00  0.00    -0.302 N 
ATOM     10  C   UNL     1       3.205  -5.987  -2.344  0.00  0.00    +0.129 C 
ATOM     11  H   UNL     1       3.149  -2.451  -0.506  0.00  0.00    +0.159 HD
ATOM     12  H   UNL     1       4.153  -4.410  -1.285  0.00  0.00    +0.150 HD
ENDBRANCH   3   4
ENDBRANCH   1   3
BRANCH   1  13
ATOM     13  C   UNL     1      -0.016   1.343   0.009  0.00  0.00    +0.360 C 
ATOM     14  O   UNL     1       1.027   1.964   0.003  0.00  0.00    -0.243 OA
BRANCH  13  15
ATOM     15  C   UNL     1      -1.307   2.065   0.019  0.00  0.00    +0.167 A 
ATOM     16  C   UNL     1      -1.319   3.460   0.027  0.00  0.00    +0.093 A 
ATOM     17  C   UNL     1      -2.539   4.123   0.036  0.00  0.00    +0.081 A 
ATOM     18  C   UNL     1      -3.703   3.366   0.037  0.00  0.00    +0.079 A 
ATOM     19  C   UNL     1      -3.614   1.982   0.029  0.00  0.00    +0.133 A 
ATOM     20  N   UNL     1      -2.445   1.380   0.016  0.00  0.00    -0.246 NA
ATOM     21 CL   UNL     1      -5.255   4.144   0.047  0.00  0.00    -0.080 Cl
ATOM     22 CL   UNL     1      -2.607   5.857   0.045  0.00  0.00    -0.080 Cl
ATOM     23 CL   UNL     1       0.169   4.354   0.026  0.00  0.00    -0.080 Cl
ENDBRANCH  13  15
ENDBRANCH   1  13
TORSDOF 4
