REMARK  Name = ZINC15230407
REMARK  5 active torsions:
REMARK  status: ('A' for Active; 'I' for Inactive)
REMARK    1  A    between atoms: C_4  and  N_7
REMARK    2  A    between atoms: C_11  and  C_12
REMARK    3  A    between atoms: C_15  and  O_19
REMARK    4  A    between atoms: O_19  and  C_20
REMARK    5  A    between atoms: C_20  and  C_21
REMARK                            x       y       z     vdW  Elec       q    Type
REMARK                         _______ _______ _______ _____ _____    ______ ____
ROOT
ATOM      1  N   UNL     1       1.241   2.053   0.602  0.00  0.00    -0.190 N 
ATOM      2  C   UNL     1       0.074   1.408   0.805  0.00  0.00    +0.263 C 
ATOM      3  O   UNL     1      -0.977   2.018   0.861  0.00  0.00    -0.269 OA
ATOM      4  C   UNL     1       0.106  -0.061   0.952  0.00  0.00    +0.100 C 
ATOM      5  C   UNL     1      -1.048  -0.790   1.163  0.00  0.00    +0.026 C 
ATOM      6  C   UNL     1       1.427  -0.715   0.864  0.00  0.00    +0.257 C 
ATOM      7  O   UNL     1       1.536  -1.921   0.976  0.00  0.00    -0.270 OA
ATOM      8  N   UNL     1       2.510   0.062   0.657  0.00  0.00    -0.235 N 
ATOM      9  C   UNL     1       2.405   1.393   0.533  0.00  0.00    +0.320 C 
ATOM     10  O   UNL     1       3.420   2.035   0.349  0.00  0.00    -0.251 OA
ATOM     11  H   UNL     1       3.385  -0.351   0.597  0.00  0.00    +0.159 HD
ENDROOT
BRANCH   5  12
ATOM     12  C   UNL     1      -1.027  -2.247   1.029  0.00  0.00    -0.023 A 
ATOM     13  C   UNL     1      -0.333  -2.847  -0.033  0.00  0.00    +0.011 A 
ATOM     14  C   UNL     1      -0.311  -4.207  -0.152  0.00  0.00    +0.047 A 
ATOM     15  C   UNL     1      -0.984  -5.003   0.769  0.00  0.00    +0.135 A 
ATOM     16  C   UNL     1      -1.681  -4.419   1.824  0.00  0.00    +0.060 A 
ATOM     17  C   UNL     1      -1.706  -3.050   1.959  0.00  0.00    +0.027 A 
ATOM     18 BR   UNL     1      -2.592  -5.508   3.073  0.00  0.00    -0.046 Br
BRANCH  15  19
ATOM     19  O   UNL     1      -0.962  -6.353   0.639  0.00  0.00    -0.482 OA
BRANCH  19  20
ATOM     20  C   UNL     1      -0.229  -6.886  -0.465  0.00  0.00    +0.324 C 
BRANCH  20  21
ATOM     21  C   UNL     1      -0.316  -8.390  -0.447  0.00  0.00    +0.248 C 
ATOM     22  O   UNL     1      -0.944  -8.951   0.426  0.00  0.00    -0.272 OA
ATOM     23  N   UNL     1       0.304  -9.113  -1.401  0.00  0.00    -0.327 N 
ATOM     24  H   UNL     1       0.806  -8.665  -2.099  0.00  0.00    +0.145 HD
ATOM     25  H   UNL     1       0.248 -10.081  -1.389  0.00  0.00    +0.145 HD
ENDBRANCH  20  21
ENDBRANCH  19  20
ENDBRANCH  15  19
ENDBRANCH   5  12
BRANCH   1  29
ATOM     26  C   UNL     1       1.226   6.200   0.176  0.00  0.00    +0.000 A 
ATOM     27  C   UNL     1       1.518   5.633   1.403  0.00  0.00    +0.002 A 
ATOM     28  C   UNL     1       1.524   4.260   1.547  0.00  0.00    +0.024 A 
ATOM     29  C   UNL     1       1.236   3.447   0.459  0.00  0.00    +0.046 A 
ATOM     30  C   UNL     1       0.947   4.019  -0.773  0.00  0.00    +0.024 A 
ATOM     31  C   UNL     1       0.938   5.394  -0.910  0.00  0.00    +0.002 A 
ENDBRANCH   1  29
TORSDOF 5
