REMARK  Name = ZINC65349243
REMARK  8 active torsions:
REMARK  status: ('A' for Active; 'I' for Inactive)
REMARK    1  A    between atoms: C_1  and  C_2
REMARK    2  A    between atoms: C_2  and  C_3
REMARK    3  A    between atoms: C_2  and  C_4
REMARK    4  A    between atoms: C_2  and  O_5
REMARK    5  A    between atoms: O_5  and  C_6
REMARK    6  A    between atoms: N_8  and  C_9
REMARK    7  A    between atoms: C_13  and  C_15
REMARK    8  A    between atoms: C_17  and  C_22
REMARK                            x       y       z     vdW  Elec       q    Type
REMARK                         _______ _______ _______ _____ _____    ______ ____
ROOT
ATOM      1  C   UNL     1       3.730  -0.170  -2.852  0.00  0.00    +0.037 A 
ATOM      2  C   UNL     1       4.327   0.621  -1.878  0.00  0.00    +0.023 A 
ATOM      3  C   UNL     1       5.617   1.086  -2.056  0.00  0.00    +0.002 A 
ATOM      4  C   UNL     1       6.318   0.767  -3.202  0.00  0.00    +0.008 A 
ATOM      5  C   UNL     1       5.726  -0.025  -4.184  0.00  0.00    -0.015 A 
ATOM      6  C   UNL     1       4.430  -0.499  -4.003  0.00  0.00    +0.032 A 
ENDROOT
BRANCH   5   7
ATOM      7  C   UNL     1       6.478  -0.367  -5.416  0.00  0.00    -0.001 A 
ATOM      8  C   UNL     1       7.781   0.095  -5.598  0.00  0.00    +0.028 A 
ATOM      9  C   UNL     1       8.449  -0.255  -6.777  0.00  0.00    +0.101 A 
ATOM     10  C   UNL     1       7.783  -1.055  -7.724  0.00  0.00    +0.108 A 
ATOM     11  N   UNL     1       6.544  -1.469  -7.505  0.00  0.00    -0.349 N 
ATOM     12  C   UNL     1       5.892  -1.160  -6.403  0.00  0.00    +0.092 A 
ATOM     13  N   UNL     1       8.426  -1.410  -8.893  0.00  0.00    -0.344 N 
ATOM     14  H   UNL     1       9.302  -1.047  -9.094  0.00  0.00    +0.144 HD
ATOM     15  H   UNL     1       8.001  -2.023  -9.514  0.00  0.00    +0.144 HD
ATOM     16  H   UNL     1       6.106  -2.018  -8.173  0.00  0.00    +0.167 HD
BRANCH   9  17
ATOM     17  C   UNL     1       9.824   0.205  -7.022  0.00  0.00    +0.390 C 
ATOM     18  O   UNL     1      10.430   0.815  -6.150  0.00  0.00    -0.240 OA
ATOM     19  O   UNL     1      10.363  -0.021  -8.097  0.00  0.00    -0.240 OA
ENDBRANCH   9  17
ENDBRANCH   5   7
BRANCH   1  22
ATOM     20  C   UNL     1       1.513   0.131  -2.041  0.00  0.00    +0.405 C 
ATOM     21  O   UNL     1       1.845   1.198  -1.564  0.00  0.00    -0.226 OA
ATOM     22  N   UNL     1       2.424  -0.639  -2.668  0.00  0.00    -0.251 N 
ATOM     23  H   UNL     1       2.174  -1.518  -2.993  0.00  0.00    +0.158 HD
BRANCH  20  24
ATOM     24  O   UNL     1       0.236  -0.282  -1.942  0.00  0.00    -0.444 OA
BRANCH  24  26
ATOM     25  C   UNL     1      -0.734   1.931  -1.987  0.00  0.00    +0.055 C 
ATOM     26  C   UNL     1      -0.676   0.584  -1.263  0.00  0.00    +0.107 C 
ATOM     27  C   UNL     1      -0.201   0.799   0.175  0.00  0.00    +0.055 C 
ATOM     28  C   UNL     1      -2.068  -0.049  -1.251  0.00  0.00    +0.055 C 
ENDBRANCH  24  26
ENDBRANCH  20  24
ENDBRANCH   1  22
TORSDOF 5
