REMARK  Name = ZINC62828372
REMARK  9 active torsions:
REMARK  status: ('A' for Active; 'I' for Inactive)
REMARK    1  A    between atoms: C_1  and  C_2
REMARK    2  A    between atoms: C_2  and  C_3
REMARK    3  A    between atoms: C_2  and  C_4
REMARK    4  A    between atoms: C_2  and  N_17
REMARK    5  A    between atoms: C_4  and  N_5
REMARK    6  A    between atoms: N_8  and  C_9
REMARK    7  A    between atoms: C_10  and  C_14
REMARK    8  A    between atoms: N_17  and  C_18
REMARK    9  A    between atoms: N_17  and  C_19
REMARK                            x       y       z     vdW  Elec       q    Type
REMARK                         _______ _______ _______ _____ _____    ______ ____
ROOT
ATOM      1  N   UNL     1      -1.558  -1.740  -0.246  0.00  0.00    -0.300 N 
ATOM      2  C   UNL     1      -2.771  -2.267  -0.505  0.00  0.00    +0.304 C 
ATOM      3  O   UNL     1      -3.751  -1.548  -0.546  0.00  0.00    -0.252 OA
ATOM      4  N   UNL     1      -2.899  -3.592  -0.717  0.00  0.00    -0.263 N 
ATOM      5  H   UNL     1      -0.777  -2.314  -0.213  0.00  0.00    +0.150 HD
ATOM      6  H   UNL     1      -2.118  -4.166  -0.684  0.00  0.00    +0.157 HD
ENDROOT
BRANCH   4   7
ATOM      7  C   UNL     1      -4.145  -4.133  -0.982  0.00  0.00    +0.087 A 
ATOM      8  C   UNL     1      -4.466  -5.466  -1.219  0.00  0.00    +0.092 A 
ATOM      9  C   UNL     1      -5.861  -5.758  -1.471  0.00  0.00    +0.024 A 
ATOM     10  C   UNL     1      -6.694  -4.703  -1.449  0.00  0.00    +0.048 A 
ATOM     11  S   UNL     1      -5.617  -3.334  -1.085  0.00  0.00    -0.081 S 
BRANCH   8  12
ATOM     12  C   UNL     1      -3.480  -6.484  -1.213  0.00  0.00    +0.389 C 
ATOM     13  O   UNL     1      -3.799  -7.647  -1.425  0.00  0.00    -0.241 OA
ATOM     14  O   UNL     1      -2.308  -6.199  -0.996  0.00  0.00    -0.241 OA
ENDBRANCH   8  12
ENDBRANCH   4   7
BRANCH   1  15
ATOM     15  C   UNL     1      -1.419  -0.300  -0.016  0.00  0.00    +0.093 C 
BRANCH  15  17
ATOM     16  C   UNL     1       0.811  -0.220  -1.140  0.00  0.00    -0.008 C 
ATOM     17  C   UNL     1       0.060   0.047   0.166  0.00  0.00    -0.056 C 
ATOM     18  C   UNL     1       0.195   1.525   0.539  0.00  0.00    -0.008 C 
BRANCH  17  19
ATOM     19  N   UNL     1       0.629  -0.781   1.237  0.00  0.00    +0.380 N 
ATOM     20  C   UNL     1       2.044  -0.433   1.426  0.00  0.00    -0.096 C 
ATOM     21  C   UNL     1      -0.106  -0.541   2.486  0.00  0.00    -0.096 C 
ATOM     22  H   UNL     1       0.554  -1.756   0.985  0.00  0.00    -0.082 HD
ENDBRANCH  17  19
ENDBRANCH  15  17
ENDBRANCH   1  15
TORSDOF 5
