REMARK  Name = ZINC61224579
REMARK  6 active torsions:
REMARK  status: ('A' for Active; 'I' for Inactive)
REMARK    1  A    between atoms: C_1  and  C_2
REMARK    2  A    between atoms: C_2  and  N_3
REMARK    3  A    between atoms: N_3  and  C_4
REMARK    4  A    between atoms: C_4  and  C_5
REMARK    5  A    between atoms: C_5  and  C_7
REMARK    6  A    between atoms: C_5  and  C_8
REMARK                            x       y       z     vdW  Elec       q    Type
REMARK                         _______ _______ _______ _____ _____    ______ ____
ROOT
ATOM      1  N   UNL     1       0.647  -0.735  -1.134  0.00  0.00    -0.285 N 
ATOM      2  C   UNL     1      -0.025  -0.801  -2.300  0.00  0.00    +0.305 C 
ATOM      3  O   UNL     1       0.571  -1.045  -3.332  0.00  0.00    -0.252 OA
ATOM      4  N   UNL     1      -1.356  -0.596  -2.324  0.00  0.00    -0.285 N 
ATOM      5  C   UNL     1      -2.030   0.086  -1.210  0.00  0.00    +0.109 C 
ATOM      6  C   UNL     1      -2.838   1.260  -1.769  0.00  0.00    +0.023 C 
ATOM      7  C   UNL     1      -3.787   0.752  -2.857  0.00  0.00    -0.005 C 
ATOM      8  C   UNL     1      -4.614   1.924  -3.391  0.00  0.00    +0.004 C 
ATOM      9  C   UNL     1      -5.562   1.426  -4.483  0.00  0.00    +0.000 C 
ATOM     10  C   UNL     1      -4.747   0.818  -5.626  0.00  0.00    +0.000 C 
ATOM     11  C   UNL     1      -3.923  -0.356  -5.094  0.00  0.00    +0.005 C 
ATOM     12  C   UNL     1      -2.974   0.136  -3.998  0.00  0.00    +0.010 C 
ATOM     13  C   UNL     1      -2.163  -1.043  -3.467  0.00  0.00    +0.113 C 
ENDROOT
BRANCH   1  15
ATOM     14  C   UNL     1       0.035   0.704   0.747  0.00  0.00    +0.024 C 
ATOM     15  C   UNL     1      -0.088  -0.692   0.133  0.00  0.00    +0.106 C 
ENDBRANCH   1  15
BRANCH   1  16
ATOM     16  C   UNL     1       2.111  -0.707  -1.132  0.00  0.00    +0.123 C 
BRANCH  16  17
ATOM     17  C   UNL     1       2.649  -2.138  -1.066  0.00  0.00    +0.116 C 
ATOM     18  C   UNL     1       2.255  -2.769   0.271  0.00  0.00    +0.021 C 
BRANCH  17  19
ATOM     19  C   UNL     1       4.151  -2.116  -1.188  0.00  0.00    +0.360 C 
ATOM     20  O   UNL     1       4.819  -2.979  -0.644  0.00  0.00    -0.246 OA
ATOM     21  O   UNL     1       4.698  -1.236  -1.830  0.00  0.00    -0.246 OA
ENDBRANCH  17  19
ENDBRANCH  16  17
ENDBRANCH   1  16
TORSDOF 4
