REMARK  Name = ZINC50333219
REMARK  5 active torsions:
REMARK  status: ('A' for Active; 'I' for Inactive)
REMARK    1  A    between atoms: C_1  and  C_2
REMARK    2  A    between atoms: C_2  and  C_9
REMARK    3  A    between atoms: C_13  and  N_15
REMARK    4  A    between atoms: C_16  and  C_18
REMARK    5  A    between atoms: C_19  and  C_20
REMARK                            x       y       z     vdW  Elec       q    Type
REMARK                         _______ _______ _______ _____ _____    ______ ____
ROOT
ATOM      1  C   UNL     1       0.576  -0.660  -1.256  0.00  0.00    -0.014 A 
ATOM      2  C   UNL     1       1.793  -1.313  -1.174  0.00  0.00    +0.006 A 
ATOM      3  C   UNL     1       2.487  -1.637  -2.325  0.00  0.00    +0.002 A 
ATOM      4  C   UNL     1       1.967  -1.309  -3.562  0.00  0.00    +0.023 A 
ATOM      5  C   UNL     1       0.746  -0.653  -3.648  0.00  0.00    +0.034 A 
ATOM      6  C   UNL     1       0.048  -0.335  -2.490  0.00  0.00    +0.029 A 
ENDROOT
BRANCH   1   8
ATOM      7  C   UNL     1      -0.404   1.201   0.088  0.00  0.00    +0.047 C 
ATOM      8  C   UNL     1      -0.177  -0.310   0.001  0.00  0.00    +0.135 C 
ATOM      9  C   UNL     1      -1.498  -1.052   0.059  0.00  0.00    +0.248 C 
ATOM     10  O   UNL     1      -2.420  -0.969  -0.724  0.00  0.00    -0.273 OA
ATOM     11  N   UNL     1      -1.434  -1.823   1.163  0.00  0.00    -0.238 N 
ATOM     12  C   UNL     1      -0.269  -1.673   1.803  0.00  0.00    +0.307 C 
ATOM     13  O   UNL     1       0.021  -2.264   2.824  0.00  0.00    -0.252 OA
ATOM     14  N   UNL     1       0.545  -0.795   1.190  0.00  0.00    -0.282 N 
ATOM     15  H   UNL     1      -2.146  -2.413   1.457  0.00  0.00    +0.159 HD
ATOM     16  H   UNL     1       1.434  -0.533   1.475  0.00  0.00    +0.152 HD
ENDBRANCH   1   8
BRANCH   5  17
ATOM     17  N   UNL     1       0.216  -0.320  -4.899  0.00  0.00    -0.282 N 
ATOM     18  C   UNL     1       0.437  -1.121  -5.960  0.00  0.00    +0.241 C 
ATOM     19  O   UNL     1       1.014  -2.183  -5.811  0.00  0.00    -0.270 OA
ATOM     20  H   UNL     1      -0.309   0.489  -5.003  0.00  0.00    +0.155 HD
BRANCH  18  21
ATOM     21  C   UNL     1      -0.002  -0.729  -7.248  0.00  0.00    +0.069 C 
ATOM     22  C   UNL     1       0.219  -1.533  -8.312  0.00  0.00    +0.033 C 
BRANCH  22  23
ATOM     23  C   UNL     1      -0.236  -1.126  -9.646  0.00  0.00    +0.071 A 
ATOM     24  C   UNL     1      -0.038  -1.916 -10.763  0.00  0.00    +0.074 A 
ATOM     25  S   UNL     1      -0.735  -0.995 -11.983  0.00  0.00    -0.083 S 
ATOM     26  C   UNL     1      -1.242   0.323 -11.076  0.00  0.00    +0.156 A 
ATOM     27  N   UNL     1      -0.874   0.030  -9.859  0.00  0.00    -0.248 NA
ENDBRANCH  22  23
ENDBRANCH  18  21
ENDBRANCH   5  17
TORSDOF 4
