REMARK  Name = ZINC06664704
REMARK  8 active torsions:
REMARK  status: ('A' for Active; 'I' for Inactive)
REMARK    1  A    between atoms: C_1  and  C_2
REMARK    2  A    between atoms: C_2  and  C_3
REMARK    3  A    between atoms: C_3  and  C_4
REMARK    4  A    between atoms: C_11  and  N_29
REMARK    5  A    between atoms: C_12  and  C_27
REMARK    6  A    between atoms: C_13  and  C_15
REMARK    7  A    between atoms: C_24  and  O_25
REMARK    8  A    between atoms: O_25  and  C_26
REMARK                            x       y       z     vdW  Elec       q    Type
REMARK                         _______ _______ _______ _____ _____    ______ ____
ROOT
ATOM      1  C   UNL     1      -1.387  -1.982   0.013  0.00  0.00    +0.044 A 
ATOM      2  C   UNL     1      -1.293  -2.803   1.070  0.00  0.00    +0.049 A 
ATOM      3  C   UNL     1      -1.322  -4.133   0.596  0.00  0.00    +0.245 A 
ATOM      4  N   UNL     1      -1.430  -4.096  -0.700  0.00  0.00    -0.135 NA
ATOM      5  N   UNL     1      -1.479  -2.751  -1.097  0.00  0.00    -0.278 N 
ATOM      6  H   UNL     1      -1.562  -2.428  -2.008  0.00  0.00    +0.189 HD
ATOM      7  O   UNL     1      -1.241  -5.200   1.436  0.00  0.00    -0.421 OA
ATOM      8  C   UNL     1      -0.861  -4.961   2.707  0.00  0.00    +0.201 C 
ATOM      9  C   UNL     1      -0.806  -3.737   3.272  0.00  0.00    +0.098 C 
ATOM     10  C   UNL     1      -1.175  -2.474   2.536  0.00  0.00    +0.105 C 
ENDROOT
BRANCH  10  11
ATOM     11  C   UNL     1      -2.493  -1.953   3.049  0.00  0.00    +0.015 A 
ATOM     12  C   UNL     1      -2.563  -0.691   3.660  0.00  0.00    -0.010 A 
ATOM     13  C   UNL     1      -1.419   0.112   3.810  0.00  0.00    +0.009 A 
ATOM     14  C   UNL     1      -1.524   1.330   4.407  0.00  0.00    +0.001 A 
ATOM     15  C   UNL     1      -2.752   1.796   4.876  0.00  0.00    +0.001 A 
ATOM     16  C   UNL     1      -3.881   1.046   4.748  0.00  0.00    +0.008 A 
ATOM     17  C   UNL     1      -3.812  -0.217   4.136  0.00  0.00    -0.017 A 
ATOM     18  C   UNL     1      -4.957  -1.018   3.987  0.00  0.00    +0.012 A 
ATOM     19  C   UNL     1      -4.856  -2.236   3.390  0.00  0.00    +0.046 A 
ATOM     20  C   UNL     1      -3.626  -2.704   2.916  0.00  0.00    +0.125 A 
BRANCH  20  21
ATOM     21  O   UNL     1      -3.557  -3.922   2.318  0.00  0.00    -0.495 OA
ATOM     22  C   UNL     1      -4.776  -4.660   2.208  0.00  0.00    +0.277 C 
ENDBRANCH  20  21
ENDBRANCH  10  11
BRANCH   8  23
ATOM     23  N   UNL     1      -0.505  -6.038   3.480  0.00  0.00    -0.328 N 
ATOM     24  H   UNL     1      -0.533  -6.933   3.107  0.00  0.00    +0.145 HD
ATOM     25  H   UNL     1      -0.227  -5.904   4.399  0.00  0.00    +0.145 HD
ENDBRANCH   8  23
BRANCH   9  26
ATOM     26  C   UNL     1      -0.379  -3.633   4.635  0.00  0.00    +0.101 C 
ATOM     27  N   UNL     1      -0.040  -3.551   5.716  0.00  0.00    -0.191 NA
ENDBRANCH   9  26
BRANCH   1  28
ATOM     28  C   UNL     1      -1.394  -0.475   0.055  0.00  0.00    +0.055 C 
BRANCH  28  30
ATOM     29  C   UNL     1       0.038   1.571   0.111  0.00  0.00    +0.004 C 
ATOM     30  C   UNL     1       0.046   0.042   0.069  0.00  0.00    +0.003 C 
ENDBRANCH  28  30
ENDBRANCH   1  28
TORSDOF 6
