REMARK  Name = ZINC31973118
REMARK  7 active torsions:
REMARK  status: ('A' for Active; 'I' for Inactive)
REMARK    1  A    between atoms: C_1  and  C_2
REMARK    2  A    between atoms: C_8  and  C_20
REMARK    3  A    between atoms: C_9  and  C_11
REMARK    4  A    between atoms: C_14  and  O_18
REMARK    5  A    between atoms: C_15  and  C_17
REMARK    6  A    between atoms: O_18  and  C_19
REMARK    7  A    between atoms: C_21  and  C_22
REMARK                            x       y       z     vdW  Elec       q    Type
REMARK                         _______ _______ _______ _____ _____    ______ ____
ROOT
ATOM      1  C   UNL     1       7.750   1.903   1.541  0.00  0.00    +0.064 C 
ATOM      2  C   UNL     1       7.071   2.946   0.691  0.00  0.00    +0.023 A 
ATOM      3  C   UNL     1       7.764   4.034   0.285  0.00  0.00    +0.021 A 
ATOM      4  C   UNL     1       7.143   5.010  -0.506  0.00  0.00    +0.005 A 
ATOM      5  C   UNL     1       5.837   4.856  -0.864  0.00  0.00    +0.045 A 
ATOM      6  C   UNL     1       5.131   3.717  -0.433  0.00  0.00    +0.116 A 
ATOM      7  N   UNL     1       5.767   2.783   0.339  0.00  0.00    -0.298 N 
ATOM      8  C   UNL     1       4.846   1.789   0.617  0.00  0.00    +0.072 A 
ATOM      9  C   UNL     1       3.657   2.166  -0.023  0.00  0.00    +0.072 A 
ATOM     10  N   UNL     1       3.875   3.328  -0.635  0.00  0.00    -0.339 N 
ATOM     11  H   UNL     1       3.197   3.951  -1.237  0.00  0.00    +0.167 HD
ENDROOT
BRANCH   9  12
ATOM     12  C   UNL     1       2.384   1.410  -0.013  0.00  0.00    +0.001 A 
ATOM     13  C   UNL     1       2.399   0.015  -0.022  0.00  0.00    +0.013 A 
ATOM     14  C   UNL     1       1.212  -0.685  -0.014  0.00  0.00    +0.046 A 
ATOM     15  C   UNL     1       0.002  -0.004   0.002  0.00  0.00    +0.123 A 
ATOM     16  C   UNL     1      -0.017   1.385   0.010  0.00  0.00    -0.008 A 
ATOM     17  C   UNL     1       1.167   2.092   0.002  0.00  0.00    +0.017 A 
ATOM     18  C   UNL     1      -1.333   2.119   0.020  0.00  0.00    +0.047 C 
BRANCH  15  19
ATOM     19  O   UNL     1      -1.166  -0.698   0.009  0.00  0.00    -0.495 OA
ATOM     20  C   UNL     1      -1.074  -2.123   0.001  0.00  0.00    +0.277 C 
ENDBRANCH  15  19
ENDBRANCH   9  12
BRANCH   8  21
ATOM     21  C   UNL     1       5.061   0.632   1.384  0.00  0.00    +0.035 C 
ATOM     22  C   UNL     1       4.187   0.301   2.379  0.00  0.00    +0.098 C 
BRANCH  22  23
ATOM     23  C   UNL     1       4.401  -0.858   3.147  0.00  0.00    +0.380 C 
ATOM     24  O   UNL     1       5.367  -1.565   2.924  0.00  0.00    -0.241 OA
ATOM     25  O   UNL     1       3.536  -1.185   4.131  0.00  0.00    -0.241 OA
ENDBRANCH  22  23
ENDBRANCH   8  21
TORSDOF 4
