REMARK  Name = ZINC07813299
REMARK  6 active torsions:
REMARK  status: ('A' for Active; 'I' for Inactive)
REMARK    1  A    between atoms: C_1  and  C_2
REMARK    2  A    between atoms: C_2  and  C_4
REMARK    3  A    between atoms: C_2  and  N_13
REMARK    4  A    between atoms: C_4  and  C_7
REMARK    5  A    between atoms: N_5  and  O_6
REMARK    6  A    between atoms: C_16  and  O_19
REMARK                            x       y       z     vdW  Elec       q    Type
REMARK                         _______ _______ _______ _____ _____    ______ ____
ROOT
ATOM      1  C   UNL     1       0.731  -0.503   1.223  0.00  0.00    +0.106 C 
ATOM      2  N   UNL     1       0.158  -1.004   2.268  0.00  0.00    -0.090 NA
ENDROOT
BRANCH   1   3
ATOM      3  C   UNL     1       2.199  -0.569   1.083  0.00  0.00    +0.001 A 
ATOM      4  C   UNL     1       3.015  -0.495   2.214  0.00  0.00    +0.010 A 
ATOM      5  C   UNL     1       4.386  -0.557   2.077  0.00  0.00    +0.001 A 
ATOM      6  C   UNL     1       4.954  -0.693   0.822  0.00  0.00    +0.000 A 
ATOM      7  C   UNL     1       4.151  -0.766  -0.303  0.00  0.00    +0.001 A 
ATOM      8  C   UNL     1       2.778  -0.712  -0.179  0.00  0.00    +0.010 A 
ENDBRANCH   1   3
BRANCH   1  10
ATOM      9  C   UNL     1      -0.156   1.657   0.389  0.00  0.00    +0.033 C 
ATOM     10  C   UNL     1      -0.100   0.147   0.147  0.00  0.00    +0.134 C 
BRANCH  10  11
ATOM     11  N   UNL     1      -1.461  -0.404   0.178  0.00  0.00    -0.176 NA
ATOM     12  C   UNL     1      -2.291   0.162  -0.919  0.00  0.00    +0.120 C 
ATOM     13  C   UNL     1      -3.392  -0.920  -1.070  0.00  0.00    +0.080 C 
ATOM     14  C   UNL     1      -2.619  -2.227  -0.788  0.00  0.00    +0.270 C 
ATOM     15  O   UNL     1      -1.446  -1.857  -0.049  0.00  0.00    -0.265 OA
BRANCH  14  16
ATOM     16  O   UNL     1      -3.426  -3.116  -0.015  0.00  0.00    -0.366 OA
ATOM     17  H   UNL     1      -2.995  -3.956   0.195  0.00  0.00    +0.213 HD
ENDBRANCH  14  16
ENDBRANCH  10  11
ENDBRANCH   1  10
BRANCH   2  18
ATOM     18  O   UNL     1       0.920  -1.730   3.215  0.00  0.00    -0.409 OA
ATOM     19  H   UNL     1       0.405  -2.065   3.962  0.00  0.00    +0.328 HD
ENDBRANCH   2  18
TORSDOF 5
