REMARK  Name = ZINC53799667
REMARK  11 active torsions:
REMARK  status: ('A' for Active; 'I' for Inactive)
REMARK    1  A    between atoms: C_1  and  C_2
REMARK    2  A    between atoms: C_2  and  C_3
REMARK    3  A    between atoms: N_5  and  C_6
REMARK    4  A    between atoms: C_9  and  O_28
REMARK    5  A    between atoms: C_10  and  C_12
REMARK    6  A    between atoms: N_14  and  C_15
REMARK    7  A    between atoms: C_18  and  O_21
REMARK    8  A    between atoms: O_21  and  C_22
REMARK    9  A    between atoms: C_22  and  C_23
REMARK   10  A    between atoms: N_25  and  C_26
REMARK   11  A    between atoms: C_26  and  C_27
REMARK                            x       y       z     vdW  Elec       q    Type
REMARK                         _______ _______ _______ _____ _____    ______ ____
ROOT
ATOM      1  C   UNL     1      -4.574  -5.753   0.576  0.00  0.00    +0.252 C 
ATOM      2  O   UNL     1      -5.671  -6.217   0.818  0.00  0.00    -0.270 OA
ATOM      3  N   UNL     1      -3.519  -6.573   0.402  0.00  0.00    -0.281 N 
ATOM      4  H   UNL     1      -2.630  -6.202   0.282  0.00  0.00    +0.155 HD
ENDROOT
BRANCH   1   9
ATOM      5  C   UNL     1      -2.979  -2.384   0.101  0.00  0.00    +0.034 A 
ATOM      6  C   UNL     1      -4.071  -1.540   0.281  0.00  0.00    +0.027 A 
ATOM      7  C   UNL     1      -5.318  -2.063   0.556  0.00  0.00    +0.048 A 
ATOM      8  C   UNL     1      -5.492  -3.436   0.654  0.00  0.00    +0.129 A 
ATOM      9  C   UNL     1      -4.397  -4.292   0.473  0.00  0.00    +0.080 A 
ATOM     10  C   UNL     1      -3.139  -3.755   0.190  0.00  0.00    +0.040 A 
BRANCH   5  13
ATOM     11  C   UNL     1      -1.342  -0.679   0.389  0.00  0.00    +0.217 C 
ATOM     12  O   UNL     1      -2.128  -0.057   1.073  0.00  0.00    -0.275 OA
ATOM     13  N   UNL     1      -1.717  -1.843  -0.177  0.00  0.00    -0.285 N 
ATOM     14  H   UNL     1      -1.112  -2.307  -0.778  0.00  0.00    +0.155 HD
BRANCH  11  16
ATOM     15  C   UNL     1       0.216   1.175   0.919  0.00  0.00    +0.013 C 
ATOM     16  C   UNL     1       0.052  -0.150   0.173  0.00  0.00    +0.093 C 
ENDBRANCH  11  16
ENDBRANCH   5  13
BRANCH   8  17
ATOM     17  O   UNL     1      -6.719  -3.949   0.924  0.00  0.00    -0.506 OA
ATOM     18  H   UNL     1      -7.248  -4.137   0.137  0.00  0.00    +0.292 HD
ENDBRANCH   8  17
ENDBRANCH   1   9
BRANCH   3  19
ATOM     19  C   UNL     1      -3.705  -7.961   0.393  0.00  0.00    +0.034 A 
ATOM     20  C   UNL     1      -2.721  -8.797   0.903  0.00  0.00    +0.027 A 
ATOM     21  C   UNL     1      -2.905 -10.166   0.894  0.00  0.00    +0.047 A 
ATOM     22  C   UNL     1      -4.073 -10.705   0.375  0.00  0.00    +0.121 A 
ATOM     23  C   UNL     1      -5.057  -9.870  -0.135  0.00  0.00    +0.047 A 
ATOM     24  C   UNL     1      -4.876  -8.502  -0.121  0.00  0.00    +0.027 A 
BRANCH  22  25
ATOM     25  O   UNL     1      -4.254 -12.053   0.366  0.00  0.00    -0.483 OA
BRANCH  25  26
ATOM     26  C   UNL     1      -5.480 -12.539  -0.183  0.00  0.00    +0.324 C 
BRANCH  26  27
ATOM     27  C   UNL     1      -5.502 -14.044  -0.108  0.00  0.00    +0.251 C 
ATOM     28  O   UNL     1      -4.560 -14.642   0.369  0.00  0.00    -0.272 OA
ATOM     29  N   UNL     1      -6.568 -14.727  -0.571  0.00  0.00    -0.313 N 
ATOM     30  H   UNL     1      -7.322 -14.249  -0.952  0.00  0.00    +0.149 HD
BRANCH  29  31
ATOM     31  C   UNL     1      -6.590 -16.190  -0.498  0.00  0.00    +0.101 C 
ATOM     32  C   UNL     1      -7.902 -16.711  -1.086  0.00  0.00    +0.024 C 
ENDBRANCH  29  31
ENDBRANCH  26  27
ENDBRANCH  25  26
ENDBRANCH  22  25
ENDBRANCH   3  19
TORSDOF 9
