REMARK  Name = ZINC11610746
REMARK  9 active torsions:
REMARK  status: ('A' for Active; 'I' for Inactive)
REMARK    1  A    between atoms: C_1  and  C_2
REMARK    2  A    between atoms: C_7  and  C_13
REMARK    3  A    between atoms: C_13  and  N_14
REMARK    4  A    between atoms: C_17  and  C_21
REMARK    5  A    between atoms: C_17  and  C_22
REMARK    6  A    between atoms: C_25  and  C_28
REMARK    7  A    between atoms: C_28  and  C_29
REMARK    8  A    between atoms: C_28  and  C_30
REMARK    9  A    between atoms: C_28  and  C_31
REMARK                            x       y       z     vdW  Elec       q    Type
REMARK                         _______ _______ _______ _____ _____    ______ ____
ROOT
ATOM      1  N   UNL     1       0.015   3.349   2.506  0.00  0.00    -0.218 N 
ATOM      2  C   UNL     1      -0.654   3.090   1.365  0.00  0.00    +0.251 C 
ATOM      3  O   UNL     1      -1.103   3.898   0.580  0.00  0.00    -0.272 OA
ATOM      4  C   UNL     1      -0.729   1.579   1.267  0.00  0.00    +0.135 C 
ATOM      5  N   UNL     1      -0.026   1.119   2.477  0.00  0.00    -0.281 N 
ATOM      6  C   UNL     1       0.371   2.223   3.135  0.00  0.00    +0.310 C 
ATOM      7  O   UNL     1       0.984   2.200   4.184  0.00  0.00    -0.252 OA
ATOM      8  C   UNL     1      -0.013   1.086   0.008  0.00  0.00    +0.047 C 
ATOM      9  H   UNL     1       0.121   0.199   2.747  0.00  0.00    +0.152 HD
ENDROOT
BRANCH   4  10
ATOM     10  C   UNL     1      -2.162   1.114   1.276  0.00  0.00    -0.015 A 
ATOM     11  C   UNL     1      -3.150   1.906   0.722  0.00  0.00    +0.006 A 
ATOM     12  C   UNL     1      -4.464   1.477   0.726  0.00  0.00    +0.004 A 
ATOM     13  C   UNL     1      -4.792   0.261   1.294  0.00  0.00    -0.042 A 
ATOM     14  C   UNL     1      -3.805  -0.529   1.854  0.00  0.00    +0.004 A 
ATOM     15  C   UNL     1      -2.490  -0.103   1.845  0.00  0.00    +0.006 A 
BRANCH  13  16
ATOM     16  C   UNL     1      -6.225  -0.204   1.305  0.00  0.00    -0.013 C 
ATOM     17  C   UNL     1      -6.686  -0.404   2.750  0.00  0.00    +0.015 C 
ATOM     18  C   UNL     1      -7.107   0.847   0.629  0.00  0.00    +0.015 C 
ATOM     19  C   UNL     1      -6.338  -1.528   0.546  0.00  0.00    +0.015 C 
ENDBRANCH  13  16
ENDBRANCH   4  10
BRANCH   1  20
ATOM     20  C   UNL     1       0.318   4.696   2.995  0.00  0.00    +0.173 C 
BRANCH  20  27
ATOM     21  C   UNL     1       7.740   6.079   0.827  0.00  0.00    +0.045 C 
ATOM     22  C   UNL     1       6.399   5.649   1.363  0.00  0.00    -0.034 A 
ATOM     23  C   UNL     1       6.314   4.564   2.247  0.00  0.00    +0.008 A 
ATOM     24  C   UNL     1       5.098   4.181   2.728  0.00  0.00    +0.047 A 
ATOM     25  C   UNL     1       3.945   4.882   2.329  0.00  0.00    +0.141 A 
ATOM     26  N   UNL     1       2.755   4.510   2.798  0.00  0.00    -0.232 NA
ATOM     27  C   UNL     1       1.647   5.143   2.446  0.00  0.00    +0.067 A 
ATOM     28  C   UNL     1       1.709   6.211   1.571  0.00  0.00    +0.095 A 
ATOM     29  C   UNL     1       2.956   6.612   1.079  0.00  0.00    +0.259 A 
ATOM     30  O   UNL     1       3.045   7.554   0.309  0.00  0.00    -0.267 OA
ATOM     31  N   UNL     1       4.060   5.936   1.466  0.00  0.00    -0.268 N 
ATOM     32  C   UNL     1       5.280   6.310   0.991  0.00  0.00    +0.099 A 
ENDBRANCH  20  27
ENDBRANCH   1  20
TORSDOF 4
