REMARK  Name = ZINC64775511
REMARK  5 active torsions:
REMARK  status: ('A' for Active; 'I' for Inactive)
REMARK    1  A    between atoms: C_1  and  C_2
REMARK    2  A    between atoms: C_3  and  N_9
REMARK    3  A    between atoms: C_10  and  C_12
REMARK    4  A    between atoms: C_21  and  C_25
REMARK    5  A    between atoms: C_21  and  C_26
REMARK                            x       y       z     vdW  Elec       q    Type
REMARK                         _______ _______ _______ _____ _____    ______ ____
ROOT
ATOM      1  C   UNL     1       0.189   0.091  -4.846  0.00  0.00    +0.102 A 
ATOM      2  C   UNL     1       0.189  -0.571  -6.066  0.00  0.00    +0.031 A 
ATOM      3  C   UNL     1       0.279   0.186  -7.253  0.00  0.00    +0.038 A 
ATOM      4  C   UNL     1       0.361   1.568  -7.205  0.00  0.00    +0.030 A 
ATOM      5  N   UNL     1       0.367   2.212  -6.021  0.00  0.00    -0.325 N 
ATOM      6  H   UNL     1       0.432   3.180  -6.012  0.00  0.00    +0.169 HD
ATOM      7  C   UNL     1       0.279   1.554  -4.853  0.00  0.00    +0.261 A 
ATOM      8  O   UNL     1       0.280   2.171  -3.803  0.00  0.00    -0.267 OA
ATOM      9  C   UNL     1       0.437   2.394  -8.463  0.00  0.00    +0.060 C 
ATOM     10  C   UNL     1       0.977   1.577  -9.633  0.00  0.00    -0.023 C 
ATOM     11  C   UNL     1       0.123   0.313  -9.804  0.00  0.00    +0.086 C 
ATOM     12  C   UNL     1       0.291  -0.516  -8.548  0.00  0.00    +0.165 C 
ATOM     13  O   UNL     1       0.431  -1.719  -8.606  0.00  0.00    -0.292 OA
ATOM     14  C   UNL     1       0.915   2.413 -10.913  0.00  0.00    +0.011 C 
ATOM     15  C   UNL     1       2.428   1.179  -9.351  0.00  0.00    +0.011 C 
ENDROOT
BRANCH   1  17
ATOM     16  N   UNL     1      -0.024   0.010  -2.414  0.00  0.00    -0.281 N 
ATOM     17  C   UNL     1       0.095  -0.654  -3.581  0.00  0.00    +0.254 C 
ATOM     18  O   UNL     1       0.125  -1.870  -3.588  0.00  0.00    -0.270 OA
ATOM     19  H   UNL     1      -0.116   0.976  -2.413  0.00  0.00    +0.155 HD
BRANCH  16  22
ATOM     20  C   UNL     1       0.956   1.339  -0.096  0.00  0.00    +0.047 C 
ATOM     21  C   UNL     1       0.455  -0.082  -0.049  0.00  0.00    -0.011 A 
ATOM     22  C   UNL     1      -0.015  -0.692  -1.205  0.00  0.00    +0.038 A 
ATOM     23  C   UNL     1      -0.475  -2.002  -1.158  0.00  0.00    +0.023 A 
ATOM     24  C   UNL     1      -0.466  -2.693   0.038  0.00  0.00    +0.003 A 
ATOM     25  C   UNL     1       0.001  -2.084   1.187  0.00  0.00    +0.020 A 
ATOM     26  C   UNL     1       0.467  -0.781   1.143  0.00  0.00    +0.046 A 
ATOM     27 CL   UNL     1       1.059  -0.022   2.587  0.00  0.00    -0.083 Cl
ENDBRANCH  16  22
ENDBRANCH   1  17
TORSDOF 2
