REMARK  Name = ZINC24448909
REMARK  6 active torsions:
REMARK  status: ('A' for Active; 'I' for Inactive)
REMARK    1  A    between atoms: C_1  and  C_2
REMARK    2  A    between atoms: C_6  and  N_9
REMARK    3  A    between atoms: C_7  and  C_8
REMARK    4  A    between atoms: C_15  and  C_21
REMARK    5  A    between atoms: N_23  and  C_24
REMARK    6  A    between atoms: C_24  and  C_25
REMARK                            x       y       z     vdW  Elec       q    Type
REMARK                         _______ _______ _______ _____ _____    ______ ____
ROOT
ATOM      1  N   UNL     1      -7.239  -0.589   0.030  0.00  0.00    -0.255 N 
ATOM      2  C   UNL     1      -6.098  -1.317   0.022  0.00  0.00    +0.267 A 
ATOM      3  O   UNL     1      -6.127  -2.534   0.015  0.00  0.00    -0.267 OA
ATOM      4  C   UNL     1      -4.822  -0.585   0.021  0.00  0.00    +0.065 A 
ATOM      5  C   UNL     1      -3.597  -1.250   0.012  0.00  0.00    +0.016 A 
ATOM      6  C   UNL     1      -2.434  -0.534   0.005  0.00  0.00    +0.014 A 
ATOM      7  C   UNL     1      -2.459   0.866   0.018  0.00  0.00    +0.039 A 
ATOM      8  C   UNL     1      -3.668   1.549   0.028  0.00  0.00    +0.041 A 
ATOM      9  C   UNL     1      -4.865   0.828   0.029  0.00  0.00    +0.080 A 
ATOM     10  N   UNL     1      -6.067   1.452   0.038  0.00  0.00    -0.222 NA
ATOM     11  C   UNL     1      -7.190   0.778   0.039  0.00  0.00    +0.188 A 
ATOM     12  S   UNL     1      -8.707   1.673   0.050  0.00  0.00    -0.011 S 
ENDROOT
BRANCH   1  18
ATOM     13  C   UNL     1     -10.977  -2.573   2.536  0.00  0.00    +0.044 C 
ATOM     14  C   UNL     1     -10.313  -2.213   1.232  0.00  0.00    -0.046 A 
ATOM     15  C   UNL     1     -10.928  -2.527   0.034  0.00  0.00    +0.004 A 
ATOM     16  C   UNL     1     -10.323  -2.199  -1.165  0.00  0.00    +0.002 A 
ATOM     17  C   UNL     1      -9.100  -1.556  -1.169  0.00  0.00    +0.026 A 
ATOM     18  C   UNL     1      -8.479  -1.240   0.032  0.00  0.00    +0.055 A 
ATOM     19  C   UNL     1      -9.088  -1.576   1.234  0.00  0.00    -0.024 A 
ATOM     20  C   UNL     1      -8.415  -1.240   2.540  0.00  0.00    +0.046 C 
ENDBRANCH   1  18
BRANCH   7  21
ATOM     21  C   UNL     1      -1.187   1.624   0.017  0.00  0.00    +0.244 C 
ATOM     22  O   UNL     1      -1.204   2.839   0.023  0.00  0.00    -0.270 OA
ATOM     23  N   UNL     1      -0.011   0.966   0.007  0.00  0.00    -0.308 N 
ATOM     24  H   UNL     1       0.004  -0.134   0.006  0.00  0.00    +0.149 HD
BRANCH  23  25
ATOM     25  C   UNL     1       1.248   1.716  -0.001  0.00  0.00    +0.131 C 
BRANCH  25  26
ATOM     26  C   UNL     1       2.406   0.752  -0.017  0.00  0.00    -0.016 C 
ATOM     27  C   UNL     1       3.317   0.838  -0.955  0.00  0.00    +0.005 C 
ENDBRANCH  25  26
ENDBRANCH  23  25
ENDBRANCH   7  21
TORSDOF 4
