REMARK  Name = ZINC38751917
REMARK  8 active torsions:
REMARK  status: ('A' for Active; 'I' for Inactive)
REMARK    1  A    between atoms: C_6  and  C_7
REMARK    2  A    between atoms: C_9  and  C_13
REMARK    3  A    between atoms: C_17  and  S_21
REMARK    4  A    between atoms: N_19  and  N_20
REMARK    5  A    between atoms: S_21  and  C_22
REMARK    6  A    between atoms: C_22  and  C_23
REMARK    7  A    between atoms: C_23  and  C_25
REMARK    8  A    between atoms: C_28  and  N_31
REMARK                            x       y       z     vdW  Elec       q    Type
REMARK                         _______ _______ _______ _____ _____    ______ ____
ROOT
ATOM      1  C   UNL     1      -3.263  -3.141   1.279  0.00  0.00    +0.185 C 
ATOM      2  N   UNL     1      -3.100  -2.288   2.486  0.00  0.00    -0.234 NA
ATOM      3  N   UNL     1      -4.028  -2.897   3.451  0.00  0.00    -0.228 NA
ATOM      4  C   UNL     1      -5.197  -3.301   2.637  0.00  0.00    +0.214 C 
ATOM      5  N   UNL     1      -4.709  -3.461   1.249  0.00  0.00    -0.197 NA
ATOM      6  H   UNL     1      -2.151  -2.321   2.826  0.00  0.00    +0.143 HD
ATOM      7  H   UNL     1      -4.295  -2.234   4.163  0.00  0.00    +0.143 HD
ENDROOT
BRANCH   1  10
ATOM      8  C   UNL     1      -1.271  -0.765   0.011  0.00  0.00    +0.091 C 
ATOM      9  C   UNL     1      -1.363  -2.109   0.010  0.00  0.00    +0.034 C 
ATOM     10  C   UNL     1      -2.859  -2.372   0.020  0.00  0.00    +0.187 C 
ATOM     11  N   UNL     1      -3.437  -1.018   0.026  0.00  0.00    -0.176 NA
ATOM     12  N   UNL     1      -2.509  -0.205   0.026  0.00  0.00    -0.154 NA
BRANCH   8  18
ATOM     13  C   UNL     1      -0.017   1.389   0.010  0.00  0.00    +0.013 A 
ATOM     14  C   UNL     1       1.170   2.094   0.002  0.00  0.00    +0.039 A 
ATOM     15  C   UNL     1       2.379   1.417  -0.013  0.00  0.00    +0.123 A 
ATOM     16  C   UNL     1       2.402   0.032  -0.022  0.00  0.00    +0.039 A 
ATOM     17  C   UNL     1       1.221  -0.680  -0.014  0.00  0.00    +0.013 A 
ATOM     18  C   UNL     1       0.002  -0.004   0.002  0.00  0.00    +0.002 A 
ATOM     19  F   UNL     1       3.538   2.110  -0.021  0.00  0.00    -0.205 F 
ENDBRANCH   8  18
ENDBRANCH   1  10
BRANCH   5  20
ATOM     20  N   UNL     1      -5.420  -2.575   0.342  0.00  0.00    -0.264 NA
ATOM     21  H   UNL     1      -6.405  -2.793   0.321  0.00  0.00    +0.137 HD
ATOM     22  H   UNL     1      -5.269  -1.608   0.588  0.00  0.00    +0.137 HD
ENDBRANCH   5  20
BRANCH   4  23
ATOM     23  S   UNL     1      -5.865  -4.874   3.245  0.00  0.00    -0.116 S 
BRANCH  23  24
ATOM     24  C   UNL     1      -4.470  -6.025   3.109  0.00  0.00    +0.151 C 
BRANCH  24  25
ATOM     25  C   UNL     1      -4.895  -7.389   3.588  0.00  0.00    +0.173 C 
ATOM     26  O   UNL     1      -6.027  -7.566   3.983  0.00  0.00    -0.291 OA
BRANCH  25  27
ATOM     27  C   UNL     1      -3.936  -8.505   3.577  0.00  0.00    +0.018 A 
ATOM     28  C   UNL     1      -2.627  -8.302   3.128  0.00  0.00    +0.013 A 
ATOM     29  C   UNL     1      -1.734  -9.353   3.120  0.00  0.00    +0.033 A 
ATOM     30  C   UNL     1      -2.130 -10.606   3.556  0.00  0.00    +0.126 A 
ATOM     31  C   UNL     1      -3.424 -10.814   4.002  0.00  0.00    +0.033 A 
ATOM     32  C   UNL     1      -4.327  -9.772   4.022  0.00  0.00    +0.013 A 
BRANCH  30  33
ATOM     33  N   UNL     1      -1.166 -11.728   3.544  0.00  0.00    +0.056 N 
ATOM     34  O   UNL     1      -0.035 -11.550   3.154  0.00  0.00    -0.126 OA
ATOM     35  O   UNL     1      -1.509 -12.824   3.924  0.00  0.00    -0.126 OA
ENDBRANCH  30  33
ENDBRANCH  25  27
ENDBRANCH  24  25
ENDBRANCH  23  24
ENDBRANCH   4  23
TORSDOF 8
