REMARK  Name = ZINC66106409
REMARK  5 active torsions:
REMARK  status: ('A' for Active; 'I' for Inactive)
REMARK    1  A    between atoms: C_1  and  C_2
REMARK    2  A    between atoms: C_5  and  C_23
REMARK    3  A    between atoms: C_6  and  N_8
REMARK    4  A    between atoms: C_12  and  C_15
REMARK    5  A    between atoms: C_17  and  C_20
REMARK                            x       y       z     vdW  Elec       q    Type
REMARK                         _______ _______ _______ _____ _____    ______ ____
ROOT
ATOM      1  N   UNL     1       0.050  -2.791   2.363  0.00  0.00    -0.225 NA
ATOM      2  C   UNL     1       0.146  -2.147   3.505  0.00  0.00    +0.174 C 
ATOM      3  N   UNL     1       0.129  -0.761   3.584  0.00  0.00    -0.215 N 
ATOM      4  N   UNL     1       0.918  -0.118   4.533  0.00  0.00    -0.181 NA
ATOM      5  C   UNL     1       1.595  -0.635   5.481  0.00  0.00    +0.111 C 
ATOM      6  C   UNL     1       1.727  -2.101   5.790  0.00  0.00    +0.138 C 
ATOM      7  S   UNL     1       0.302  -2.984   5.064  0.00  0.00    -0.083 S 
ATOM      8  H   UNL     1      -0.430  -0.244   2.983  0.00  0.00    +0.176 HD
ENDROOT
BRANCH   1  14
ATOM      9  C   UNL     1       2.037   0.617  -0.537  0.00  0.00    +0.044 C 
ATOM     10  C   UNL     1       0.988  -0.429  -0.261  0.00  0.00    -0.048 A 
ATOM     11  C   UNL     1       0.006  -0.688  -1.201  0.00  0.00    +0.004 A 
ATOM     12  C   UNL     1      -0.961  -1.646  -0.955  0.00  0.00    +0.006 A 
ATOM     13  C   UNL     1      -0.952  -2.351   0.231  0.00  0.00    -0.025 A 
ATOM     14  C   UNL     1       0.036  -2.095   1.184  0.00  0.00    +0.070 A 
ATOM     15  C   UNL     1       1.012  -1.130   0.927  0.00  0.00    +0.031 A 
ATOM     16  C   UNL     1      -2.007  -3.393   0.497  0.00  0.00    +0.046 C 
ENDBRANCH   1  14
BRANCH   5  17
ATOM     17  C   UNL     1       2.316   0.292   6.360  0.00  0.00    +0.152 A 
ATOM     18  C   UNL     1       2.321   1.648   6.252  0.00  0.00    +0.064 A 
ATOM     19  C   UNL     1       3.144   2.135   7.303  0.00  0.00    +0.075 A 
ATOM     20  C   UNL     1       3.591   1.041   7.987  0.00  0.00    +0.208 A 
ATOM     21  O   UNL     1       3.083  -0.056   7.413  0.00  0.00    -0.461 OA
BRANCH  19  22
ATOM     22  C   UNL     1       3.455   3.546   7.597  0.00  0.00    +0.245 C 
ATOM     23  O   UNL     1       2.988   4.429   6.904  0.00  0.00    -0.270 OA
ATOM     24  N   UNL     1       4.258   3.857   8.634  0.00  0.00    -0.325 N 
ATOM     25  H   UNL     1       4.631   3.152   9.187  0.00  0.00    +0.145 HD
ATOM     26  H   UNL     1       4.463   4.785   8.828  0.00  0.00    +0.145 HD
ENDBRANCH  19  22
ENDBRANCH   5  17
TORSDOF 3
