REMARK  Name = ZINC67019253
REMARK  3 active torsions:
REMARK  status: ('A' for Active; 'I' for Inactive)
REMARK    1  A    between atoms: C_3  and  C_12
REMARK    2  A    between atoms: N_14  and  C_15
REMARK    3  A    between atoms: C_16  and  C_24
REMARK                            x       y       z     vdW  Elec       q    Type
REMARK                         _______ _______ _______ _____ _____    ______ ____
ROOT
ATOM      1  C   UNL     1       3.652   2.184  -0.022  0.00  0.00    +0.252 C 
ATOM      2  O   UNL     1       4.716   1.595  -0.035  0.00  0.00    -0.270 OA
ATOM      3  N   UNL     1       3.628   3.531  -0.015  0.00  0.00    -0.275 N 
ATOM      4  H   UNL     1       2.779   4.001  -0.004  0.00  0.00    +0.156 HD
ENDROOT
BRANCH   1   7
ATOM      5  C   UNL     1      -0.017   1.381   0.010  0.00  0.00    +0.003 A 
ATOM      6  C   UNL     1       1.162   2.095   0.002  0.00  0.00    +0.017 A 
ATOM      7  C   UNL     1       2.389   1.423  -0.013  0.00  0.00    +0.080 A 
ATOM      8  C   UNL     1       2.409   0.025  -0.021  0.00  0.00    +0.154 A 
ATOM      9  C   UNL     1       1.208  -0.683  -0.013  0.00  0.00    +0.076 A 
ATOM     10  C   UNL     1       0.002  -0.004   0.002  0.00  0.00    +0.027 A 
ATOM     11  N   UNL     1       1.240  -2.086  -0.023  0.00  0.00    -0.280 N 
ATOM     12  C   UNL     1       2.397  -2.716   0.276  0.00  0.00    +0.255 C 
ATOM     13  O   UNL     1       2.457  -3.927   0.244  0.00  0.00    -0.272 OA
ATOM     14  C   UNL     1       3.614  -1.907   0.650  0.00  0.00    +0.325 C 
ATOM     15  O   UNL     1       3.585  -0.652  -0.035  0.00  0.00    -0.480 OA
ATOM     16  H   UNL     1       0.444  -2.595  -0.242  0.00  0.00    +0.155 HD
ENDBRANCH   1   7
BRANCH   3  17
ATOM     17  C   UNL     1       4.816   4.247  -0.023  0.00  0.00    +0.090 A 
ATOM     18  C   UNL     1       4.982   5.622  -0.012  0.00  0.00    +0.084 A 
ATOM     19  C   UNL     1       6.343   6.127  -0.024  0.00  0.00    -0.018 A 
ATOM     20  C   UNL     1       7.290   5.163  -0.044  0.00  0.00    -0.004 A 
ATOM     21  S   UNL     1       6.383   3.645  -0.041  0.00  0.00    -0.077 S 
ATOM     22  C   UNL     1       8.774   5.361  -0.062  0.00  0.00    +0.043 C 
ATOM     23  C   UNL     1       9.062   6.823  -0.434  0.00  0.00    +0.005 C 
ATOM     24  C   UNL     1       8.178   7.735   0.422  0.00  0.00    +0.005 C 
ATOM     25  C   UNL     1       6.717   7.602  -0.013  0.00  0.00    +0.037 C 
BRANCH  18  26
ATOM     26  C   UNL     1       3.857   6.509   0.009  0.00  0.00    +0.102 C 
ATOM     27  N   UNL     1       2.966   7.213   0.026  0.00  0.00    -0.191 NA
ENDBRANCH  18  26
ENDBRANCH   3  17
TORSDOF 3
