REMARK  Name = ZINC39722549
REMARK  9 active torsions:
REMARK  status: ('A' for Active; 'I' for Inactive)
REMARK    1  A    between atoms: C_1  and  O_2
REMARK    2  A    between atoms: O_2  and  C_3
REMARK    3  A    between atoms: C_8  and  C_9
REMARK    4  A    between atoms: C_13  and  S_19
REMARK    5  A    between atoms: N_15  and  C_16
REMARK    6  A    between atoms: C_16  and  C_17
REMARK    7  A    between atoms: S_19  and  C_20
REMARK    8  A    between atoms: C_20  and  C_21
REMARK    9  A    between atoms: C_29  and  C_33
REMARK                            x       y       z     vdW  Elec       q    Type
REMARK                         _______ _______ _______ _____ _____    ______ ____
ROOT
ATOM      1  C   UNL     1       0.051  -2.828  -0.033  0.00  0.00    +0.053 C 
ATOM      2  N   UNL     1      -1.128  -2.137   0.537  0.00  0.00    -0.266 NA
ATOM      3  N   UNL     1      -2.275  -2.711  -0.185  0.00  0.00    -0.262 NA
ATOM      4  C   UNL     1      -1.897  -4.141  -0.332  0.00  0.00    +0.078 C 
ATOM      5  N   UNL     1      -0.438  -4.108  -0.587  0.00  0.00    +0.413 N 
ATOM      6  H   UNL     1      -1.203  -2.308   1.528  0.00  0.00    +0.139 HD
ATOM      7  H   UNL     1      -3.124  -2.614   0.351  0.00  0.00    +0.140 HD
ATOM      8  H   UNL     1      -0.258  -4.148  -1.579  0.00  0.00    -0.075 HD
ENDROOT
BRANCH   1  14
ATOM      9  C   UNL     1       1.990  -2.171  -1.480  0.00  0.00    +0.123 A 
ATOM     10  C   UNL     1       2.548  -1.403  -2.492  0.00  0.00    +0.046 A 
ATOM     11  C   UNL     1       1.779  -0.457  -3.142  0.00  0.00    +0.004 A 
ATOM     12  C   UNL     1       0.456  -0.276  -2.785  0.00  0.00    +0.000 A 
ATOM     13  C   UNL     1      -0.102  -1.040  -1.777  0.00  0.00    +0.007 A 
ATOM     14  C   UNL     1       0.661  -1.991  -1.128  0.00  0.00    -0.004 A 
BRANCH   9  16
ATOM     15  C   UNL     1       4.105  -3.234  -1.255  0.00  0.00    +0.277 C 
ATOM     16  O   UNL     1       2.744  -3.103  -0.839  0.00  0.00    -0.495 OA
ENDBRANCH   9  16
ENDBRANCH   1  14
BRANCH   5  17
ATOM     17  C   UNL     1       0.219  -5.234   0.091  0.00  0.00    -0.045 C 
BRANCH  17  18
ATOM     18  C   UNL     1      -0.195  -6.526  -0.564  0.00  0.00    -0.053 C 
ATOM     19  C   UNL     1       0.715  -7.353  -1.016  0.00  0.00    +0.002 C 
ENDBRANCH  17  18
ENDBRANCH   5  17
BRANCH   4  20
ATOM     20  S   UNL     1      -2.773  -4.887  -1.735  0.00  0.00    -0.152 S 
BRANCH  20  21
ATOM     21  C   UNL     1      -2.273  -3.874  -3.154  0.00  0.00    +0.143 C 
BRANCH  21  22
ATOM     22  C   UNL     1      -2.939  -4.394  -4.402  0.00  0.00    +0.120 A 
ATOM     23  N   UNL     1      -2.682  -3.766  -5.579  0.00  0.00    -0.310 N 
ATOM     24  H   UNL     1      -2.083  -3.003  -5.596  0.00  0.00    +0.170 HD
ATOM     25  C   UNL     1      -3.255  -4.194  -6.728  0.00  0.00    +0.259 A 
ATOM     26  O   UNL     1      -3.034  -3.640  -7.789  0.00  0.00    -0.267 OA
ATOM     27  C   UNL     1      -4.156  -5.356  -6.644  0.00  0.00    +0.065 A 
ATOM     28  C   UNL     1      -4.794  -5.873  -7.770  0.00  0.00    +0.016 A 
ATOM     29  C   UNL     1      -5.622  -6.953  -7.648  0.00  0.00    +0.016 A 
ATOM     30  C   UNL     1      -5.836  -7.548  -6.397  0.00  0.00    +0.065 A 
ATOM     31  C   UNL     1      -5.210  -7.047  -5.261  0.00  0.00    +0.043 A 
ATOM     32  C   UNL     1      -4.362  -5.944  -5.376  0.00  0.00    +0.079 A 
ATOM     33  N   UNL     1      -3.724  -5.423  -4.298  0.00  0.00    -0.233 NA
BRANCH  30  34
ATOM     34  C   UNL     1      -6.736  -8.716  -6.285  0.00  0.00    +0.387 C 
ATOM     35  O   UNL     1      -7.289  -9.159  -7.281  0.00  0.00    -0.241 OA
ATOM     36  O   UNL     1      -6.926  -9.238  -5.196  0.00  0.00    -0.241 OA
ENDBRANCH  30  34
ENDBRANCH  21  22
ENDBRANCH  20  21
ENDBRANCH   4  20
TORSDOF 8
