REMARK  Name = ZINC44258251
REMARK  6 active torsions:
REMARK  status: ('A' for Active; 'I' for Inactive)
REMARK    1  A    between atoms: C_1  and  C_2
REMARK    2  A    between atoms: N_7  and  S_8
REMARK    3  A    between atoms: S_8  and  C_11
REMARK    4  A    between atoms: C_13  and  C_17
REMARK    5  A    between atoms: C_18  and  C_19
REMARK    6  A    between atoms: C_19  and  N_20
REMARK                            x       y       z     vdW  Elec       q    Type
REMARK                         _______ _______ _______ _____ _____    ______ ____
ROOT
ATOM      1  C   UNL     1       0.094  -5.388   3.361  0.00  0.00    +0.132 A 
ATOM      2  C   UNL     1       1.295  -5.697   3.974  0.00  0.00    +0.049 A 
ATOM      3  C   UNL     1       1.260  -6.360   5.206  0.00  0.00    +0.045 A 
ATOM      4  C   UNL     1       0.022  -6.681   5.764  0.00  0.00    +0.127 A 
ATOM      5  N   UNL     1      -1.095  -6.366   5.141  0.00  0.00    -0.260 NA
ATOM      6  C   UNL     1      -1.092  -5.735   3.982  0.00  0.00    +0.139 A 
ENDROOT
BRANCH   1   7
ATOM      7  S   UNL     1       0.075  -4.553   1.809  0.00  0.00    +0.103 S 
ATOM      8  O   UNL     1      -1.169  -4.864   1.196  0.00  0.00    -0.146 OA
ATOM      9  O   UNL     1       1.321  -4.829   1.185  0.00  0.00    -0.146 OA
BRANCH   7  16
ATOM     10  C   UNL     1      -0.018   1.503   0.010  0.00  0.00    +0.064 C 
ATOM     11  C   UNL     1       0.002  -0.004   0.002  0.00  0.00    +0.022 A 
ATOM     12  C   UNL     1       0.006  -0.662  -1.157  0.00  0.00    +0.069 A 
ATOM     13  S   UNL     1       0.032  -2.365  -0.622  0.00  0.00    -0.057 S 
ATOM     14  C   UNL     1       0.036  -2.068   1.139  0.00  0.00    +0.192 A 
ATOM     15  N   UNL     1       0.023  -0.690   1.181  0.00  0.00    -0.336 N 
ATOM     16  N   UNL     1       0.053  -2.928   2.127  0.00  0.00    -0.103 NA
ATOM     17  H   UNL     1       0.024  -0.220   2.029  0.00  0.00    +0.168 HD
ENDBRANCH   7  16
ENDBRANCH   1   7
BRANCH   3  18
ATOM     18  C   UNL     1       2.475  -6.703   5.883  0.00  0.00    -0.067 C 
ATOM     19  C   UNL     1       3.470  -6.985   6.438  0.00  0.00    -0.117 C 
BRANCH  19  20
ATOM     20  C   UNL     1       4.718  -7.338   7.133  0.00  0.00    +0.005 C 
BRANCH  20  21
ATOM     21  N   UNL     1       4.400  -8.021   8.394  0.00  0.00    +0.385 N 
ATOM     22  H   UNL     1       5.256  -8.264   8.871  0.00  0.00    -0.089 HD
ATOM     23  H   UNL     1       3.851  -7.410   8.979  0.00  0.00    -0.089 HD
ATOM     24  H   UNL     1       3.875  -8.861   8.198  0.00  0.00    -0.089 HD
ENDBRANCH  20  21
ENDBRANCH  19  20
ENDBRANCH   3  18
TORSDOF 5
