REMARK  Name = ZINC22033155
REMARK  8 active torsions:
REMARK  status: ('A' for Active; 'I' for Inactive)
REMARK    1  A    between atoms: C_1  and  C_2
REMARK    2  A    between atoms: C_8  and  N_10
REMARK    3  A    between atoms: C_11  and  C_13
REMARK    4  A    between atoms: C_13  and  C_15
REMARK    5  A    between atoms: C_13  and  S_16
REMARK    6  A    between atoms: S_16  and  C_17
REMARK    7  A    between atoms: C_20  and  C_24
REMARK    8  A    between atoms: C_21  and  N_23
REMARK                            x       y       z     vdW  Elec       q    Type
REMARK                         _______ _______ _______ _____ _____    ______ ____
ROOT
ATOM      1  C   UNL     1       1.712   6.207   0.019  0.00  0.00    +0.137 C 
ATOM      2  C   UNL     1       2.336   5.693   1.318  0.00  0.00    +0.029 C 
ENDROOT
BRANCH   1   4
ATOM      3  N   UNL     1       3.100   8.150  -0.624  0.00  0.00    -0.311 N 
ATOM      4  C   UNL     1       1.947   7.691  -0.099  0.00  0.00    +0.226 C 
ATOM      5  O   UNL     1       1.099   8.471   0.278  0.00  0.00    -0.275 OA
ATOM      6  H   UNL     1       3.870   7.442  -0.965  0.00  0.00    +0.149 HD
BRANCH   3  13
ATOM      7  C   UNL     1       5.458   9.357   0.547  0.00  0.00    +0.009 C 
ATOM      8  C   UNL     1       4.833   9.871  -0.751  0.00  0.00    +0.006 C 
ATOM      9  C   UNL     1       5.474   9.156  -1.943  0.00  0.00    +0.005 C 
ATOM     10  C   UNL     1       4.849   9.670  -3.242  0.00  0.00    +0.000 C 
ATOM     11  C   UNL     1       3.345   9.392  -3.229  0.00  0.00    +0.002 C 
ATOM     12  C   UNL     1       2.704  10.106  -2.037  0.00  0.00    +0.022 C 
ATOM     13  C   UNL     1       3.329   9.593  -0.738  0.00  0.00    +0.076 C 
ENDBRANCH   3  13
ENDBRANCH   1   4
BRANCH   1  14
ATOM     14  S   UNL     1      -0.068   5.878   0.034  0.00  0.00    -0.074 S 
BRANCH  14  15
ATOM     15  C   UNL     1      -0.054   4.116   0.025  0.00  0.00    +0.191 A 
ATOM     16  N   UNL     1       1.113   3.482   0.010  0.00  0.00    -0.229 NA
ATOM     17  C   UNL     1       1.173   2.163   0.003  0.00  0.00    +0.136 A 
ATOM     18  C   UNL     1      -0.017   1.428   0.010  0.00  0.00    +0.109 A 
ATOM     19  C   UNL     1      -1.238   2.137   0.019  0.00  0.00    +0.138 A 
ATOM     20  N   UNL     1      -1.208   3.464   0.032  0.00  0.00    -0.206 NA
BRANCH  19  21
ATOM     21  N   UNL     1      -2.442   1.462   0.021  0.00  0.00    -0.342 N 
ATOM     22  H   UNL     1      -3.388   2.024   0.029  0.00  0.00    +0.144 HD
ATOM     23  H   UNL     1      -2.456   0.362   0.015  0.00  0.00    +0.144 HD
ENDBRANCH  19  21
BRANCH  18  24
ATOM     24  C   UNL     1       0.002  -0.004   0.002  0.00  0.00    +0.104 C 
ATOM     25  N   UNL     1       0.018  -1.140  -0.004  0.00  0.00    -0.191 NA
ENDBRANCH  18  24
ENDBRANCH  14  15
ENDBRANCH   1  14
TORSDOF 6
