REMARK  Name = ZINC09166471
REMARK  11 active torsions:
REMARK  status: ('A' for Active; 'I' for Inactive)
REMARK    1  A    between atoms: C_1  and  C_2
REMARK    2  A    between atoms: C_2  and  N_3
REMARK    3  A    between atoms: C_7  and  N_17
REMARK    4  A    between atoms: C_12  and  C_15
REMARK    5  A    between atoms: C_12  and  C_16
REMARK    6  A    between atoms: N_17  and  S_18
REMARK    7  A    between atoms: S_18  and  C_21
REMARK    8  A    between atoms: C_23  and  C_32
REMARK    9  A    between atoms: C_24  and  N_28
REMARK   10  A    between atoms: C_25  and  C_27
REMARK   11  A    between atoms: C_29  and  C_31
REMARK                            x       y       z     vdW  Elec       q    Type
REMARK                         _______ _______ _______ _____ _____    ______ ____
ROOT
ATOM      1  N   UNL     1      -2.172  -2.353  -1.097  0.00  0.00    -0.216 N 
ATOM      2  H   UNL     1      -2.714  -3.140  -0.926  0.00  0.00    +0.174 HD
ENDROOT
BRANCH   1   7
ATOM      3  N   UNL     1       3.015  -2.063   0.919  0.00  0.00    -0.268 N 
ATOM      4  C   UNL     1       1.708  -2.125   0.410  0.00  0.00    +0.078 A 
ATOM      5  C   UNL     1       0.858  -1.036   0.519  0.00  0.00    +0.029 A 
ATOM      6  C   UNL     1      -0.428  -1.113   0.019  0.00  0.00    +0.026 A 
ATOM      7  C   UNL     1      -0.870  -2.279  -0.593  0.00  0.00    +0.052 A 
ATOM      8  C   UNL     1      -0.019  -3.371  -0.705  0.00  0.00    +0.072 A 
ATOM      9  C   UNL     1       1.270  -3.295  -0.207  0.00  0.00    +0.144 A 
ATOM     10  O   UNL     1       2.115  -4.354  -0.320  0.00  0.00    -0.489 OA
ATOM     11  C   UNL     1       3.140  -4.266  -1.306  0.00  0.00    +0.244 C 
ATOM     12  C   UNL     1       3.790  -2.885  -1.280  0.00  0.00    +0.076 C 
ATOM     13  C   UNL     1       4.047  -2.461   0.143  0.00  0.00    +0.229 C 
ATOM     14  O   UNL     1       5.175  -2.477   0.589  0.00  0.00    -0.275 OA
ATOM     15  C   UNL     1       2.858  -1.873  -1.951  0.00  0.00    +0.024 C 
ATOM     16  C   UNL     1       5.116  -2.936  -2.042  0.00  0.00    +0.024 C 
BRANCH   3  18
ATOM     17  C   UNL     1       3.206  -2.746   3.260  0.00  0.00    +0.025 C 
ATOM     18  C   UNL     1       3.257  -1.573   2.279  0.00  0.00    +0.110 C 
ENDBRANCH   3  18
ENDBRANCH   1   7
BRANCH   1  19
ATOM     19  S   UNL     1      -2.789  -1.100  -1.985  0.00  0.00    +0.072 S 
ATOM     20  O   UNL     1      -4.102  -1.482  -2.371  0.00  0.00    -0.150 OA
ATOM     21  O   UNL     1      -2.527   0.087  -1.250  0.00  0.00    -0.150 OA
BRANCH  19  22
ATOM     22  C   UNL     1      -1.840  -0.994  -3.466  0.00  0.00    +0.109 A 
ATOM     23  C   UNL     1      -0.714  -0.193  -3.509  0.00  0.00    +0.034 A 
ATOM     24  C   UNL     1       0.035  -0.112  -4.666  0.00  0.00    -0.027 A 
ATOM     25  C   UNL     1      -0.351  -0.829  -5.792  0.00  0.00    +0.039 A 
ATOM     26  C   UNL     1      -1.486  -1.628  -5.748  0.00  0.00    -0.027 A 
ATOM     27  C   UNL     1      -2.227  -1.708  -4.586  0.00  0.00    +0.034 A 
ATOM     28  C   UNL     1      -1.907  -2.407  -6.967  0.00  0.00    +0.046 C 
ATOM     29  C   UNL     1       1.265   0.756  -4.710  0.00  0.00    +0.046 C 
BRANCH  25  30
ATOM     30  N   UNL     1       0.403  -0.745  -6.968  0.00  0.00    -0.285 N 
ATOM     31  C   UNL     1       0.627   0.454  -7.542  0.00  0.00    +0.214 C 
ATOM     32  O   UNL     1       0.260   1.468  -6.988  0.00  0.00    -0.276 OA
ATOM     33  C   UNL     1       1.333   0.533  -8.871  0.00  0.00    +0.109 C 
ATOM     34  H   UNL     1       0.764  -1.550  -7.370  0.00  0.00    +0.155 HD
ENDBRANCH  25  30
ENDBRANCH  19  22
ENDBRANCH   1  19
TORSDOF 5
