REMARK  Name = ZINC07183763
REMARK  4 active torsions:
REMARK  status: ('A' for Active; 'I' for Inactive)
REMARK    1  A    between atoms: C_5  and  C_7
REMARK    2  A    between atoms: C_11  and  S_13
REMARK    3  A    between atoms: S_13  and  C_14
REMARK    4  A    between atoms: C_14  and  C_15
REMARK                            x       y       z     vdW  Elec       q    Type
REMARK                         _______ _______ _______ _____ _____    ______ ____
ROOT
ATOM      1  S   UNL     1      -0.512  -5.628  -0.034  0.00  0.00    -0.079 S 
ENDROOT
BRANCH   1   6
ATOM      2  C   UNL     1       1.245  -2.166  -0.022  0.00  0.00    +0.185 A 
ATOM      3  N   UNL     1       2.327  -2.911  -0.032  0.00  0.00    -0.151 NA
ATOM      4  H   UNL     1       2.468  -5.037  -0.044  0.00  0.00    +0.191 HD
ATOM      5  N   UNL     1       1.903  -4.249  -0.037  0.00  0.00    -0.253 N 
ATOM      6  C   UNL     1       0.551  -4.223  -0.031  0.00  0.00    +0.185 A 
ATOM      7  N   UNL     1       0.168  -2.965  -0.016  0.00  0.00    -0.201 NA
BRANCH   2  12
ATOM      8  C   UNL     1      -0.017   1.376   0.010  0.00  0.00    +0.001 A 
ATOM      9  C   UNL     1       1.170   2.087   0.002  0.00  0.00    +0.003 A 
ATOM     10  C   UNL     1       2.382   1.422  -0.013  0.00  0.00    +0.039 A 
ATOM     11  C   UNL     1       2.413   0.040  -0.021  0.00  0.00    +0.134 A 
ATOM     12  C   UNL     1       1.219  -0.682  -0.013  0.00  0.00    +0.056 A 
ATOM     13  C   UNL     1       0.002  -0.004   0.002  0.00  0.00    +0.014 A 
ATOM     14  F   UNL     1       3.598  -0.611  -0.037  0.00  0.00    -0.205 F 
ENDBRANCH   2  12
ENDBRANCH   1   6
BRANCH   1  15
ATOM     15  C   UNL     1      -2.180  -4.916  -0.022  0.00  0.00    +0.153 C 
BRANCH  15  16
ATOM     16  C   UNL     1      -3.200  -6.026  -0.023  0.00  0.00    +0.146 A 
ATOM     17  N   UNL     1      -3.647  -6.509  -1.169  0.00  0.00    -0.199 NA
ATOM     18  C   UNL     1      -4.547  -7.489  -1.175  0.00  0.00    +0.217 A 
ATOM     19  N   UNL     1      -4.996  -7.983  -0.026  0.00  0.00    -0.181 NA
ATOM     20  C   UNL     1      -4.544  -7.495   1.124  0.00  0.00    +0.217 A 
ATOM     21  N   UNL     1      -3.640  -6.518   1.122  0.00  0.00    -0.199 NA
ATOM     22  N   UNL     1      -5.007  -8.005   2.320  0.00  0.00    -0.327 N 
ATOM     23  N   UNL     1      -5.014  -7.992  -2.372  0.00  0.00    -0.327 N 
ATOM     24  H   UNL     1      -5.663  -8.720   2.322  0.00  0.00    +0.145 HD
ATOM     25  H   UNL     1      -4.676  -7.649   3.160  0.00  0.00    +0.145 HD
ATOM     26  H   UNL     1      -4.686  -7.631  -3.210  0.00  0.00    +0.145 HD
ATOM     27  H   UNL     1      -5.670  -8.707  -2.375  0.00  0.00    +0.145 HD
ENDBRANCH  15  16
ENDBRANCH   1  15
TORSDOF 4
