REMARK  Name = ZINC41006443
REMARK  11 active torsions:
REMARK  status: ('A' for Active; 'I' for Inactive)
REMARK    1  A    between atoms: C_1  and  C_2
REMARK    2  A    between atoms: C_7  and  N_8
REMARK    3  A    between atoms: C_9  and  C_11
REMARK    4  A    between atoms: C_13  and  C_33
REMARK    5  A    between atoms: C_15  and  C_23
REMARK    6  A    between atoms: C_17  and  C_21
REMARK    7  A    between atoms: C_17  and  O_22
REMARK    8  A    between atoms: N_25  and  C_26
REMARK    9  A    between atoms: C_31  and  C_32
REMARK   10  A    between atoms: C_38  and  O_39
REMARK   11  A    between atoms: O_39  and  C_40
REMARK                            x       y       z     vdW  Elec       q    Type
REMARK                         _______ _______ _______ _____ _____    ______ ____
ROOT
ATOM      1  C   UNL     1       0.262   0.801   5.162  0.00  0.00    +0.150 C 
ATOM      2  C   UNL     1       0.178  -0.426   6.076  0.00  0.00    +0.056 C 
ATOM      3  C   UNL     1      -0.116   0.026   7.507  0.00  0.00    +0.116 C 
ATOM      4  C   UNL     1       1.043   0.877   8.031  0.00  0.00    +0.082 C 
ATOM      5  C   UNL     1       1.159   2.152   7.190  0.00  0.00    +0.110 C 
ATOM      6  C   UNL     1       1.280   1.763   5.733  0.00  0.00    +0.148 C 
ATOM      7  O   UNL     1       2.168   2.205   5.045  0.00  0.00    -0.296 OA
ATOM      8  C   UNL     1       0.782   1.250   9.492  0.00  0.00    +0.042 C 
ENDROOT
BRANCH   2   9
ATOM      9  C   UNL     1      -0.925  -1.334   5.599  0.00  0.00    -0.001 A 
ATOM     10  C   UNL     1      -2.200  -0.834   5.410  0.00  0.00    +0.007 A 
ATOM     11  C   UNL     1      -3.212  -1.667   4.973  0.00  0.00    +0.001 A 
ATOM     12  C   UNL     1      -2.954  -3.002   4.723  0.00  0.00    +0.004 A 
ATOM     13  C   UNL     1      -1.681  -3.507   4.909  0.00  0.00    +0.046 A 
ATOM     14  C   UNL     1      -0.662  -2.672   5.343  0.00  0.00    +0.124 A 
BRANCH  14  15
ATOM     15  O   UNL     1       0.592  -3.165   5.522  0.00  0.00    -0.495 OA
ATOM     16  C   UNL     1       0.790  -4.551   5.240  0.00  0.00    +0.277 C 
ENDBRANCH  14  15
ENDBRANCH   2   9
BRANCH   1  18
ATOM     17  N   UNL     1       0.835   1.295   2.807  0.00  0.00    -0.285 N 
ATOM     18  C   UNL     1       0.687   0.375   3.780  0.00  0.00    +0.228 C 
ATOM     19  O   UNL     1       0.897  -0.796   3.545  0.00  0.00    -0.275 OA
ATOM     20  H   UNL     1       0.731   2.238   3.010  0.00  0.00    +0.155 HD
BRANCH  17  27
ATOM     21  C   UNL     1      -0.217   2.820   0.647  0.00  0.00    +0.045 C 
ATOM     22  C   UNL     1       0.646   1.606   0.419  0.00  0.00    -0.029 A 
ATOM     23  C   UNL     1       0.953   1.208  -0.867  0.00  0.00    +0.005 A 
ATOM     24  C   UNL     1       1.745   0.094  -1.077  0.00  0.00    +0.000 A 
ATOM     25  C   UNL     1       2.233  -0.624  -0.001  0.00  0.00    +0.002 A 
ATOM     26  C   UNL     1       1.931  -0.230   1.288  0.00  0.00    +0.023 A 
ATOM     27  C   UNL     1       1.139   0.891   1.502  0.00  0.00    +0.036 A 
ENDBRANCH  17  27
ENDBRANCH   1  18
BRANCH   3  28
ATOM     28  C   UNL     1      -1.382   0.843   7.524  0.00  0.00    +0.224 C 
ATOM     29  O   UNL     1      -1.440   1.886   6.907  0.00  0.00    -0.275 OA
ATOM     30  N   UNL     1      -2.451   0.415   8.226  0.00  0.00    -0.285 N 
ATOM     31  H   UNL     1      -2.384  -0.383   8.773  0.00  0.00    +0.155 HD
BRANCH  30  32
ATOM     32  C   UNL     1      -3.657   1.122   8.163  0.00  0.00    +0.036 A 
ATOM     33  C   UNL     1      -3.897   1.998   7.113  0.00  0.00    +0.023 A 
ATOM     34  C   UNL     1      -5.089   2.693   7.054  0.00  0.00    +0.002 A 
ATOM     35  C   UNL     1      -6.042   2.519   8.041  0.00  0.00    +0.000 A 
ATOM     36  C   UNL     1      -5.806   1.648   9.089  0.00  0.00    +0.005 A 
ATOM     37  C   UNL     1      -4.619   0.944   9.149  0.00  0.00    -0.029 A 
ATOM     38  C   UNL     1      -4.365  -0.010  10.288  0.00  0.00    +0.045 C 
ENDBRANCH  30  32
ENDBRANCH   3  28
BRANCH   4  39
ATOM     39  O   UNL     1       2.259   0.133   7.939  0.00  0.00    -0.388 OA
ATOM     40  H   UNL     1       3.038   0.612   8.254  0.00  0.00    +0.210 HD
ENDBRANCH   4  39
TORSDOF 7
