REMARK  Name = ZINC09739152
REMARK  7 active torsions:
REMARK  status: ('A' for Active; 'I' for Inactive)
REMARK    1  A    between atoms: C_1  and  C_2
REMARK    2  A    between atoms: C_5  and  N_9
REMARK    3  A    between atoms: C_7  and  C_8
REMARK    4  A    between atoms: C_12  and  C_25
REMARK    5  A    between atoms: C_14  and  C_16
REMARK    6  A    between atoms: C_21  and  O_22
REMARK    7  A    between atoms: O_22  and  C_23
REMARK                            x       y       z     vdW  Elec       q    Type
REMARK                         _______ _______ _______ _____ _____    ______ ____
ROOT
ATOM      1  N   UNL     1      -6.107  -0.546   0.085  0.00  0.00    -0.245 N 
ATOM      2  C   UNL     1      -4.794  -0.107   0.069  0.00  0.00    +0.170 A 
ATOM      3  C   UNL     1      -4.840   1.299   0.076  0.00  0.00    +0.117 A 
ATOM      4  C   UNL     1      -3.637   2.005   0.063  0.00  0.00    +0.154 A 
ATOM      5  N   UNL     1      -2.493   1.319   0.044  0.00  0.00    -0.220 NA
ATOM      6  C   UNL     1      -2.494  -0.005   0.037  0.00  0.00    +0.166 A 
ATOM      7  N   UNL     1      -3.620  -0.712   0.044  0.00  0.00    -0.207 NA
ATOM      8  N   UNL     1      -6.176   1.657   0.096  0.00  0.00    -0.303 N 
ATOM      9  H   UNL     1      -6.521   2.564   0.106  0.00  0.00    +0.171 HD
ATOM     10  C   UNL     1      -6.915   0.531   0.101  0.00  0.00    +0.333 A 
ATOM     11  O   UNL     1      -8.131   0.493   0.117  0.00  0.00    -0.246 OA
ENDROOT
BRANCH   1  16
ATOM     12  C   UNL     1      -7.796  -5.963   0.083  0.00  0.00    +0.044 C 
ATOM     13  C   UNL     1      -7.348  -4.525   0.083  0.00  0.00    -0.047 A 
ATOM     14  C   UNL     1      -5.998  -4.223   0.065  0.00  0.00    +0.005 A 
ATOM     15  C   UNL     1      -5.584  -2.905   0.065  0.00  0.00    +0.026 A 
ATOM     16  C   UNL     1      -6.524  -1.883   0.084  0.00  0.00    +0.053 A 
ATOM     17  C   UNL     1      -7.878  -2.190   0.107  0.00  0.00    +0.030 A 
ATOM     18  C   UNL     1      -8.286  -3.510   0.102  0.00  0.00    -0.046 A 
ATOM     19  C   UNL     1      -9.756  -3.843   0.122  0.00  0.00    +0.044 C 
ENDBRANCH   1  16
BRANCH   6  20
ATOM     20  C   UNL     1      -1.198  -0.722   0.015  0.00  0.00    +0.062 A 
ATOM     21  C   UNL     1      -1.169  -2.116   0.003  0.00  0.00    +0.030 A 
ATOM     22  C   UNL     1       0.042  -2.779  -0.012  0.00  0.00    +0.019 A 
ATOM     23  C   UNL     1       1.228  -2.064  -0.020  0.00  0.00    +0.019 A 
ATOM     24  C   UNL     1       1.210  -0.683  -0.013  0.00  0.00    +0.047 A 
ATOM     25  C   UNL     1       0.002  -0.004   0.002  0.00  0.00    +0.131 A 
ATOM     26 BR   UNL     1       0.080  -4.669  -0.022  0.00  0.00    -0.050 Br
BRANCH  25  27
ATOM     27  O   UNL     1      -0.016   1.354   0.009  0.00  0.00    -0.494 OA
ATOM     28  C   UNL     1       1.248   2.020   0.001  0.00  0.00    +0.277 C 
ENDBRANCH  25  27
ENDBRANCH   6  20
BRANCH   4  29
ATOM     29  C   UNL     1      -3.629   3.486   0.071  0.00  0.00    +0.262 C 
ATOM     30  O   UNL     1      -4.678   4.099   0.088  0.00  0.00    -0.269 OA
ATOM     31  N   UNL     1      -2.459   4.155   0.058  0.00  0.00    -0.324 N 
ATOM     32  H   UNL     1      -1.621   3.665   0.044  0.00  0.00    +0.145 HD
ATOM     33  H   UNL     1      -2.454   5.125   0.064  0.00  0.00    +0.145 HD
ENDBRANCH   4  29
TORSDOF 4
