REMARK  Name = ZINC45352764
REMARK  11 active torsions:
REMARK  status: ('A' for Active; 'I' for Inactive)
REMARK    1  A    between atoms: C_1  and  C_2
REMARK    2  A    between atoms: C_2  and  C_3
REMARK    3  A    between atoms: C_2  and  C_4
REMARK    4  A    between atoms: C_4  and  C_6
REMARK    5  A    between atoms: C_4  and  N_27
REMARK    6  A    between atoms: C_6  and  O_8
REMARK    7  A    between atoms: O_8  and  C_9
REMARK    8  A    between atoms: C_9  and  C_10
REMARK    9  A    between atoms: C_14  and  C_23
REMARK   10  A    between atoms: N_25  and  C_26
REMARK   11  A    between atoms: C_28  and  C_30
REMARK                            x       y       z     vdW  Elec       q    Type
REMARK                         _______ _______ _______ _____ _____    ______ ____
ROOT
ATOM      1  O   UNL     1      -1.748  -0.183   2.437  0.00  0.00    -0.454 OA
ENDROOT
BRANCH   1   2
ATOM      2  C   UNL     1      -2.195   0.029   1.189  0.00  0.00    +0.328 C 
ATOM      3  O   UNL     1      -3.192   0.687   1.008  0.00  0.00    -0.249 OA
BRANCH   2   4
ATOM      4  C   UNL     1      -1.452  -0.553   0.014  0.00  0.00    +0.185 C 
BRANCH   4   5
ATOM      5  N   UNL     1      -2.135  -0.181  -1.228  0.00  0.00    -0.298 N 
ATOM      6  C   UNL     1      -1.997  -0.947  -2.328  0.00  0.00    +0.250 C 
ATOM      7  O   UNL     1      -1.306  -1.947  -2.291  0.00  0.00    -0.270 OA
ATOM      8  H   UNL     1      -2.687   0.616  -1.258  0.00  0.00    +0.150 HD
BRANCH   6   9
ATOM      9  C   UNL     1      -2.685  -0.573  -3.579  0.00  0.00    +0.107 A 
ATOM     10  C   UNL     1      -2.049   0.254  -4.511  0.00  0.00    +0.138 A 
ATOM     11  C   UNL     1      -2.700   0.599  -5.680  0.00  0.00    +0.039 A 
ATOM     12  C   UNL     1      -3.978   0.130  -5.929  0.00  0.00    +0.006 A 
ATOM     13  C   UNL     1      -4.614  -0.687  -5.013  0.00  0.00    +0.039 A 
ATOM     14  C   UNL     1      -3.975  -1.047  -3.841  0.00  0.00    +0.138 A 
ATOM     15  F   UNL     1      -4.596  -1.850  -2.950  0.00  0.00    -0.205 F 
ATOM     16  F   UNL     1      -0.802   0.713  -4.270  0.00  0.00    -0.205 F 
ENDBRANCH   6   9
ENDBRANCH   4   5
BRANCH   4  18
ATOM     17  C   UNL     1      -0.061   1.522  -0.007  0.00  0.00    +0.009 C 
ATOM     18  C   UNL     1      -0.023  -0.007  -0.007  0.00  0.00    +0.014 C 
ATOM     19  C   UNL     1       0.729  -0.500   1.230  0.00  0.00    +0.009 C 
ENDBRANCH   4  18
ENDBRANCH   2   4
ENDBRANCH   1   2
BRANCH   1  20
ATOM     20  C   UNL     1      -2.501   0.398   3.503  0.00  0.00    +0.328 C 
BRANCH  20  21
ATOM     21  C   UNL     1      -1.854   0.056   4.820  0.00  0.00    +0.258 C 
ATOM     22  O   UNL     1      -0.900  -0.693   4.851  0.00  0.00    -0.272 OA
ATOM     23  N   UNL     1      -2.334   0.582   5.964  0.00  0.00    -0.261 N 
ATOM     24  C   UNL     1      -3.549   1.415   5.969  0.00  0.00    +0.168 C 
ATOM     25  C   UNL     1      -3.295   2.601   6.910  0.00  0.00    +0.276 C 
ATOM     26  O   UNL     1      -2.980   2.098   8.211  0.00  0.00    -0.476 OA
ATOM     27  C   UNL     1      -2.032   1.128   8.302  0.00  0.00    +0.143 A 
ATOM     28  C   UNL     1      -1.697   0.350   7.195  0.00  0.00    +0.078 A 
ATOM     29  C   UNL     1      -0.737  -0.643   7.304  0.00  0.00    +0.027 A 
ATOM     30  C   UNL     1      -0.111  -0.865   8.517  0.00  0.00    +0.002 A 
ATOM     31  C   UNL     1      -0.442  -0.098   9.618  0.00  0.00    +0.004 A 
ATOM     32  C   UNL     1      -1.395   0.903   9.513  0.00  0.00    +0.047 A 
BRANCH  25  33
ATOM     33  C   UNL     1      -4.529   3.462   6.984  0.00  0.00    +0.255 C 
ATOM     34  O   UNL     1      -5.135   3.566   8.030  0.00  0.00    -0.272 OA
ATOM     35  N   UNL     1      -4.961   4.115   5.887  0.00  0.00    -0.315 N 
ATOM     36  C   UNL     1      -6.162   4.952   5.959  0.00  0.00    +0.128 C 
ATOM     37  H   UNL     1      -4.477   4.032   5.051  0.00  0.00    +0.148 HD
ENDBRANCH  25  33
ENDBRANCH  20  21
ENDBRANCH   1  20
TORSDOF 8
