REMARK  Name = ZINC65266421
REMARK  5 active torsions:
REMARK  status: ('A' for Active; 'I' for Inactive)
REMARK    1  A    between atoms: C_1  and  C_2
REMARK    2  A    between atoms: C_2  and  C_3
REMARK    3  A    between atoms: C_2  and  C_4
REMARK    4  A    between atoms: C_2  and  N_5
REMARK    5  A    between atoms: C_20  and  C_22
REMARK                            x       y       z     vdW  Elec       q    Type
REMARK                         _______ _______ _______ _____ _____    ______ ____
ROOT
ATOM      1  N   UNL     1       0.751  -0.407  -1.256  0.00  0.00    -0.370 N 
ATOM      2  C   UNL     1       1.989  -0.089  -1.454  0.00  0.00    +0.099 C 
ATOM      3  N   UNL     1       2.732   0.581  -0.495  0.00  0.00    -0.286 N 
ATOM      4  C   UNL     1       3.659   1.534  -0.935  0.00  0.00    +0.145 A 
ATOM      5  C   UNL     1       4.007   1.607  -2.286  0.00  0.00    +0.069 A 
ATOM      6  C   UNL     1       4.938   2.548  -2.699  0.00  0.00    +0.028 A 
ATOM      7  C   UNL     1       5.487   3.394  -1.744  0.00  0.00    +0.022 A 
ATOM      8  C   UNL     1       5.094   3.271  -0.427  0.00  0.00    +0.113 A 
ATOM      9  N   UNL     1       4.208   2.363  -0.061  0.00  0.00    -0.238 NA
ATOM     10  N   UNL     1       3.414   0.748  -3.224  0.00  0.00    -0.328 N 
ATOM     11  C   UNL     1       2.700  -0.433  -2.735  0.00  0.00    +0.103 C 
ATOM     12  C   UNL     1       1.709  -0.960  -3.789  0.00  0.00    +0.054 C 
ATOM     13  C   UNL     1       2.597  -1.867  -4.670  0.00  0.00    +0.111 C 
ATOM     14  N   UNL     1       3.776  -2.236  -3.871  0.00  0.00    -0.294 N 
ATOM     15  C   UNL     1       3.653  -1.623  -2.534  0.00  0.00    +0.141 C 
ATOM     16  C   UNL     1       4.798  -3.007  -4.291  0.00  0.00    +0.266 C 
ATOM     17  O   UNL     1       5.725  -3.248  -3.542  0.00  0.00    -0.268 OA
ATOM     18  H   UNL     1       0.231  -0.799  -1.975  0.00  0.00    +0.161 HD
ATOM     19  H   UNL     1       3.478   0.932  -4.174  0.00  0.00    +0.147 HD
ATOM     20  H   UNL     1       2.613   0.398   0.450  0.00  0.00    +0.155 HD
ENDROOT
BRANCH  16  21
ATOM     21  C   UNL     1       4.793  -3.560  -5.663  0.00  0.00    +0.133 A 
ATOM     22  C   UNL     1       5.917  -4.268  -6.148  0.00  0.00    +0.013 A 
ATOM     23  C   UNL     1       7.061  -4.474  -5.365  0.00  0.00    +0.011 A 
ATOM     24  C   UNL     1       8.114  -5.165  -5.885  0.00  0.00    +0.001 A 
ATOM     25  C   UNL     1       8.073  -5.671  -7.183  0.00  0.00    +0.001 A 
ATOM     26  C   UNL     1       6.978  -5.490  -7.972  0.00  0.00    +0.008 A 
ATOM     27  C   UNL     1       5.875  -4.784  -7.469  0.00  0.00    -0.014 A 
ATOM     28  C   UNL     1       4.715  -4.564  -8.232  0.00  0.00    +0.028 A 
ATOM     29  C   UNL     1       3.681  -3.866  -7.674  0.00  0.00    +0.112 A 
ATOM     30  N   UNL     1       3.736  -3.399  -6.440  0.00  0.00    -0.250 NA
ENDBRANCH  16  21
BRANCH   1  32
ATOM     31  C   UNL     1       0.296   1.296   0.439  0.00  0.00    +0.033 C 
ATOM     32  C   UNL     1       0.135  -0.176   0.053  0.00  0.00    +0.031 C 
ATOM     33  C   UNL     1       0.820  -1.055   1.101  0.00  0.00    +0.033 C 
ATOM     34  C   UNL     1      -1.352  -0.526  -0.014  0.00  0.00    +0.033 C 
ENDBRANCH   1  32
TORSDOF 2
