REMARK  Name = ZINC64255125
REMARK  7 active torsions:
REMARK  status: ('A' for Active; 'I' for Inactive)
REMARK    1  A    between atoms: C_4  and  O_22
REMARK    2  A    between atoms: C_5  and  C_7
REMARK    3  A    between atoms: C_7  and  N_8
REMARK    4  A    between atoms: N_11  and  C_12
REMARK    5  A    between atoms: N_15  and  C_18
REMARK    6  A    between atoms: C_18  and  C_19
REMARK    7  A    between atoms: O_22  and  C_23
REMARK                            x       y       z     vdW  Elec       q    Type
REMARK                         _______ _______ _______ _____ _____    ______ ____
ROOT
ATOM      1  N   UNL     1       2.099  -2.263   1.998  0.00  0.00    -0.295 N 
ATOM      2  C   UNL     1       2.033  -3.474   2.586  0.00  0.00    +0.300 C 
ATOM      3  O   UNL     1       1.944  -4.477   1.903  0.00  0.00    -0.253 OA
ATOM      4  N   UNL     1       2.067  -3.574   3.929  0.00  0.00    -0.297 N 
ATOM      5  H   UNL     1       2.170  -1.463   2.542  0.00  0.00    +0.151 HD
ATOM      6  H   UNL     1       2.138  -2.774   4.473  0.00  0.00    +0.151 HD
ENDROOT
BRANCH   4   7
ATOM      7  C   UNL     1       1.996  -4.891   4.568  0.00  0.00    +0.071 C 
ATOM      8  C   UNL     1       0.530  -5.303   4.730  0.00  0.00    +0.004 C 
ATOM      9  C   UNL     1       0.460  -6.641   5.468  0.00  0.00    -0.077 C 
ATOM     10  N   UNL     1       1.081  -6.507   6.791  0.00  0.00    +0.383 N 
ATOM     11  C   UNL     1       2.505  -6.182   6.643  0.00  0.00    -0.077 C 
ATOM     12  C   UNL     1       2.653  -4.826   5.949  0.00  0.00    +0.004 C 
ATOM     13  H   UNL     1       0.621  -5.770   7.304  0.00  0.00    -0.082 HD
BRANCH  10  14
ATOM     14  C   UNL     1       0.943  -7.771   7.526  0.00  0.00    -0.006 C 
BRANCH  14  15
ATOM     15  C   UNL     1      -0.532  -8.013   7.852  0.00  0.00    +0.325 C 
ATOM     16  F   UNL     1      -1.054  -6.894   8.508  0.00  0.00    -0.211 F 
ATOM     17  F   UNL     1      -1.242  -8.232   6.666  0.00  0.00    -0.211 F 
ENDBRANCH  14  15
ENDBRANCH  10  14
ENDBRANCH   4   7
BRANCH   1  18
ATOM     18  C   UNL     1       2.063  -2.154   0.538  0.00  0.00    +0.144 C 
BRANCH  18  23
ATOM     19  C   UNL     1       1.086   1.319  -0.575  0.00  0.00    +0.001 A 
ATOM     20  C   UNL     1       2.311   1.962  -0.593  0.00  0.00    +0.004 A 
ATOM     21  C   UNL     1       3.457   1.274  -0.246  0.00  0.00    +0.046 A 
ATOM     22  C   UNL     1       3.380  -0.061   0.122  0.00  0.00    +0.126 A 
ATOM     23  C   UNL     1       2.150  -0.703   0.140  0.00  0.00    +0.011 A 
ATOM     24  C   UNL     1       1.006  -0.012  -0.209  0.00  0.00    +0.009 A 
BRANCH  22  25
ATOM     25  O   UNL     1       4.507  -0.740   0.463  0.00  0.00    -0.488 OA
BRANCH  25  26
ATOM     26  C   UNL     1       5.718   0.013   0.542  0.00  0.00    +0.173 C 
ATOM     27  C   UNL     1       6.390   0.081  -0.845  0.00  0.00    +0.044 C 
ATOM     28  C   UNL     1       7.906  -0.008  -0.537  0.00  0.00    +0.004 C 
ATOM     29  C   UNL     1       7.959  -1.025   0.630  0.00  0.00    +0.004 C 
ATOM     30  C   UNL     1       6.716  -0.690   1.480  0.00  0.00    +0.044 C 
ENDBRANCH  25  26
ENDBRANCH  22  25
ENDBRANCH  18  23
ENDBRANCH   1  18
TORSDOF 7
