REMARK  Name = ZINC01096821
REMARK  4 active torsions:
REMARK  status: ('A' for Active; 'I' for Inactive)
REMARK    1  A    between atoms: C_1  and  C_2
REMARK    2  A    between atoms: C_4  and  N_24
REMARK    3  A    between atoms: C_10  and  C_17
REMARK    4  A    between atoms: C_12  and  C_13
REMARK                            x       y       z     vdW  Elec       q    Type
REMARK                         _______ _______ _______ _____ _____    ______ ____
ROOT
ATOM      1  C   UNL     1      -1.869   5.784   0.043  0.00  0.00    +0.066 C 
ATOM      2  C   UNL     1      -2.053   4.288   0.036  0.00  0.00    +0.045 A 
ATOM      3  C   UNL     1      -3.322   3.741   0.039  0.00  0.00    +0.066 A 
ATOM      4  C   UNL     1      -3.447   2.350   0.032  0.00  0.00    +0.122 A 
ATOM      5  N   UNL     1      -2.346   1.605   0.017  0.00  0.00    -0.197 NA
ATOM      6  C   UNL     1      -1.150   2.168   0.019  0.00  0.00    +0.238 A 
ATOM      7  N   UNL     1      -1.001   3.483   0.026  0.00  0.00    -0.217 NA
ATOM      8  N   UNL     1      -0.016   1.357   0.009  0.00  0.00    -0.264 N 
ATOM      9  C   UNL     1       1.287   1.780  -0.001  0.00  0.00    +0.124 A 
ATOM     10  C   UNL     1       2.060   0.664  -0.014  0.00  0.00    +0.090 A 
ATOM     11  N   UNL     1       1.241  -0.408  -0.012  0.00  0.00    -0.224 NA
ATOM     12  C   UNL     1       0.002  -0.004   0.002  0.00  0.00    +0.222 A 
ENDROOT
BRANCH  10  13
ATOM     13  C   UNL     1       3.543   0.629  -0.029  0.00  0.00    +0.002 A 
ATOM     14  C   UNL     1       4.270   1.818  -0.036  0.00  0.00    +0.011 A 
ATOM     15  C   UNL     1       5.650   1.780  -0.045  0.00  0.00    +0.020 A 
ATOM     16  C   UNL     1       6.311   0.564  -0.058  0.00  0.00    +0.041 A 
ATOM     17  C   UNL     1       5.593  -0.620  -0.056  0.00  0.00    +0.020 A 
ATOM     18  C   UNL     1       4.214  -0.593  -0.042  0.00  0.00    +0.011 A 
ATOM     19 CL   UNL     1       8.046   0.523  -0.077  0.00  0.00    -0.084 Cl
ENDBRANCH  10  13
BRANCH  12  20
ATOM     20  C   UNL     1      -1.212  -0.897   0.008  0.00  0.00    +0.451 C 
ATOM     21  F   UNL     1      -0.829  -2.202   0.339  0.00  0.00    -0.163 F 
ATOM     22  F   UNL     1      -2.131  -0.428   0.952  0.00  0.00    -0.163 F 
ATOM     23  F   UNL     1      -1.801  -0.892  -1.260  0.00  0.00    -0.163 F 
ENDBRANCH  12  20
BRANCH   4  24
ATOM     24  N   UNL     1      -4.699   1.757   0.035  0.00  0.00    -0.343 N 
ATOM     25  H   UNL     1      -5.497   2.308   0.042  0.00  0.00    +0.144 HD
ATOM     26  H   UNL     1      -4.777   0.790   0.030  0.00  0.00    +0.144 HD
ENDBRANCH   4  24
TORSDOF 3
