REMARK  Name = ZINC16905878
REMARK  5 active torsions:
REMARK  status: ('A' for Active; 'I' for Inactive)
REMARK    1  A    between atoms: C_1  and  C_2
REMARK    2  A    between atoms: C_2  and  C_4
REMARK    3  A    between atoms: C_2  and  N_10
REMARK    4  A    between atoms: C_14  and  C_15
REMARK    5  A    between atoms: C_20  and  C_21
REMARK                            x       y       z     vdW  Elec       q    Type
REMARK                         _______ _______ _______ _____ _____    ______ ____
ROOT
ATOM      1  N   UNL     1       2.960   2.015   1.375  0.00  0.00    -0.248 N 
ATOM      2  C   UNL     1       3.732   1.354   2.221  0.00  0.00    +0.259 C 
ATOM      3  O   UNL     1       3.463   0.225   2.585  0.00  0.00    -0.269 OA
ATOM      4  C   UNL     1       4.944   2.059   2.699  0.00  0.00    +0.077 C 
ATOM      5  C   UNL     1       5.909   1.638   3.554  0.00  0.00    +0.029 C 
ATOM      6  S   UNL     1       4.781   3.620   1.843  0.00  0.00    -0.061 S 
ATOM      7  C   UNL     1       3.259   3.268   0.978  0.00  0.00    +0.121 C 
ATOM      8  S   UNL     1       2.388   4.279  -0.095  0.00  0.00    -0.027 S 
ENDROOT
BRANCH   5   9
ATOM      9  C   UNL     1       5.917   0.248   4.025  0.00  0.00    -0.010 A 
ATOM     10  C   UNL     1       5.586  -0.793   3.153  0.00  0.00    +0.009 A 
ATOM     11  C   UNL     1       5.599  -2.098   3.601  0.00  0.00    +0.001 A 
ATOM     12  C   UNL     1       5.930  -2.386   4.916  0.00  0.00    +0.001 A 
ATOM     13  C   UNL     1       6.255  -1.374   5.795  0.00  0.00    +0.016 A 
ATOM     14  C   UNL     1       6.252  -0.048   5.364  0.00  0.00    +0.070 A 
BRANCH  14  15
ATOM     15  C   UNL     1       6.599   1.038   6.300  0.00  0.00    +0.387 C 
ATOM     16  O   UNL     1       6.496   2.197   5.950  0.00  0.00    -0.241 OA
ATOM     17  O   UNL     1       7.029   0.745   7.543  0.00  0.00    -0.241 OA
ENDBRANCH  14  15
ENDBRANCH   5   9
BRANCH   1  19
ATOM     18  C   UNL     1       1.880   1.169  -0.651  0.00  0.00    +0.033 C 
ATOM     19  C   UNL     1       1.748   1.372   0.860  0.00  0.00    +0.110 C 
BRANCH  19  20
ATOM     20  C   UNL     1       0.555   2.246   1.147  0.00  0.00    -0.027 A 
ATOM     21  C   UNL     1      -0.446   2.382   0.203  0.00  0.00    +0.005 A 
ATOM     22  C   UNL     1      -1.538   3.188   0.465  0.00  0.00    +0.000 A 
ATOM     23  C   UNL     1      -1.634   3.851   1.674  0.00  0.00    +0.000 A 
ATOM     24  C   UNL     1      -0.634   3.714   2.618  0.00  0.00    +0.000 A 
ATOM     25  C   UNL     1       0.460   2.912   2.355  0.00  0.00    +0.005 A 
ENDBRANCH  19  20
ENDBRANCH   1  19
TORSDOF 4
