REMARK  Name = ZINC34785981
REMARK  8 active torsions:
REMARK  status: ('A' for Active; 'I' for Inactive)
REMARK    1  A    between atoms: C_1  and  C_2
REMARK    2  A    between atoms: C_2  and  C_3
REMARK    3  A    between atoms: C_3  and  C_4
REMARK    4  A    between atoms: C_4  and  N_5
REMARK    5  A    between atoms: N_13  and  C_14
REMARK    6  A    between atoms: C_15  and  C_21
REMARK    7  A    between atoms: C_16  and  C_20
REMARK    8  A    between atoms: C_17  and  C_19
REMARK                            x       y       z     vdW  Elec       q    Type
REMARK                         _______ _______ _______ _____ _____    ______ ____
ROOT
ATOM      1  N   UNL     1       1.431  -2.502  -2.466  0.00  0.00    +0.382 N 
ATOM      2  C   UNL     1       2.838  -2.084  -2.425  0.00  0.00    -0.059 C 
ATOM      3  C   UNL     1       3.524  -2.477  -3.737  0.00  0.00    +0.091 C 
ATOM      4  N   UNL     1       3.325  -3.918  -3.955  0.00  0.00    -0.289 N 
ATOM      5  C   UNL     1       1.958  -4.453  -3.851  0.00  0.00    +0.091 C 
ATOM      6  C   UNL     1       1.345  -3.966  -2.533  0.00  0.00    -0.059 C 
ATOM      7  C   UNL     1       4.365  -4.726  -4.242  0.00  0.00    +0.307 C 
ATOM      8  O   UNL     1       5.472  -4.255  -4.413  0.00  0.00    -0.252 OA
ATOM      9  N   UNL     1       4.177  -6.058  -4.338  0.00  0.00    -0.263 N 
ATOM     10  H   UNL     1       3.282  -6.427  -4.275  0.00  0.00    +0.157 HD
ATOM     11  H   UNL     1       0.987  -2.103  -3.279  0.00  0.00    -0.082 HD
ENDROOT
BRANCH   9  12
ATOM     12  C   UNL     1       5.263  -6.899  -4.527  0.00  0.00    +0.086 A 
ATOM     13  C   UNL     1       5.260  -8.280  -4.652  0.00  0.00    +0.068 A 
ATOM     14  C   UNL     1       6.544  -8.915  -4.843  0.00  0.00    -0.027 A 
ATOM     15  C   UNL     1       7.607  -8.090  -4.877  0.00  0.00    -0.008 A 
ATOM     16  S   UNL     1       6.882  -6.479  -4.663  0.00  0.00    -0.078 S 
ATOM     17  C   UNL     1       9.060  -8.444  -5.059  0.00  0.00    +0.052 C 
ATOM     18  C   UNL     1       6.685 -10.408  -4.993  0.00  0.00    +0.045 C 
BRANCH  13  19
ATOM     19  C   UNL     1       4.018  -9.057  -4.595  0.00  0.00    +0.244 C 
ATOM     20  O   UNL     1       3.394  -9.284  -5.615  0.00  0.00    -0.270 OA
ATOM     21  N   UNL     1       3.566  -9.519  -3.412  0.00  0.00    -0.325 N 
ATOM     22  H   UNL     1       4.063  -9.338  -2.599  0.00  0.00    +0.145 HD
ATOM     23  H   UNL     1       2.744 -10.033  -3.374  0.00  0.00    +0.145 HD
ENDBRANCH  13  19
ENDBRANCH   9  12
BRANCH   1  24
ATOM     24  C   UNL     1       0.746  -2.029  -1.255  0.00  0.00    -0.079 C 
BRANCH  24  25
ATOM     25  C   UNL     1       0.725  -0.499  -1.246  0.00  0.00    -0.019 C 
BRANCH  25  27
ATOM     26  C   UNL     1      -0.009   1.524   0.023  0.00  0.00    +0.004 C 
ATOM     27  C   UNL     1       0.012  -0.006   0.014  0.00  0.00    -0.005 C 
ENDBRANCH  25  27
ENDBRANCH  24  25
ENDBRANCH   1  24
TORSDOF 5
