REMARK  Name = ZINC67614672
REMARK  9 active torsions:
REMARK  status: ('A' for Active; 'I' for Inactive)
REMARK    1  A    between atoms: C_1  and  C_2
REMARK    2  A    between atoms: C_2  and  C_4
REMARK    3  A    between atoms: C_2  and  N_11
REMARK    4  A    between atoms: C_8  and  O_10
REMARK    5  A    between atoms: N_11  and  C_12
REMARK    6  A    between atoms: N_15  and  C_16
REMARK    7  A    between atoms: C_16  and  C_17
REMARK    8  A    between atoms: C_17  and  N_18
REMARK    9  A    between atoms: C_19  and  C_21
REMARK                            x       y       z     vdW  Elec       q    Type
REMARK                         _______ _______ _______ _____ _____    ______ ____
ROOT
ATOM      1  N   UNL     1       0.821  -0.440  -1.214  0.00  0.00    -0.282 N 
ATOM      2  C   UNL     1       0.546   0.072  -2.559  0.00  0.00    +0.134 C 
ATOM      3  C   UNL     1       1.830  -1.312  -1.019  0.00  0.00    +0.302 C 
ATOM      4  O   UNL     1       2.059  -1.738   0.097  0.00  0.00    -0.253 OA
ATOM      5  N   UNL     1       2.586  -1.713  -2.061  0.00  0.00    -0.298 N 
ATOM      6  H   UNL     1       2.403  -1.374  -2.951  0.00  0.00    +0.150 HD
ENDROOT
BRANCH   1   8
ATOM      7  C   UNL     1       0.007   1.524  -0.005  0.00  0.00    +0.033 C 
ATOM      8  C   UNL     1       0.000  -0.005  -0.082  0.00  0.00    +0.104 C 
BRANCH   8   9
ATOM      9  C   UNL     1      -1.413  -0.492  -0.269  0.00  0.00    -0.024 A 
ATOM     10  C   UNL     1      -1.653  -1.671  -0.950  0.00  0.00    +0.006 A 
ATOM     11  C   UNL     1      -2.948  -2.122  -1.124  0.00  0.00    +0.004 A 
ATOM     12  C   UNL     1      -4.008  -1.393  -0.617  0.00  0.00    +0.045 A 
ATOM     13  C   UNL     1      -3.770  -0.210   0.067  0.00  0.00    +0.117 A 
ATOM     14  C   UNL     1      -2.468   0.236   0.245  0.00  0.00    +0.050 A 
BRANCH  13  15
ATOM     15  O   UNL     1      -4.810   0.508   0.566  0.00  0.00    -0.507 OA
ATOM     16  H   UNL     1      -5.057   0.267   1.469  0.00  0.00    +0.292 HD
ENDBRANCH  13  15
ENDBRANCH   8   9
ENDBRANCH   1   8
BRANCH   5  17
ATOM     17  C   UNL     1       3.682  -2.661  -1.848  0.00  0.00    +0.124 C 
BRANCH  17  18
ATOM     18  C   UNL     1       4.374  -2.948  -3.183  0.00  0.00    +0.123 C 
BRANCH  18  19
ATOM     19  N   UNL     1       5.471  -3.896  -2.970  0.00  0.00    -0.307 N 
ATOM     20  C   UNL     1       6.226  -4.297  -4.012  0.00  0.00    +0.279 C 
ATOM     21  O   UNL     1       5.997  -3.871  -5.129  0.00  0.00    -0.267 OA
ATOM     22  H   UNL     1       5.653  -4.235  -2.080  0.00  0.00    +0.149 HD
BRANCH  20  23
ATOM     23  C   UNL     1       7.324  -5.246  -3.800  0.00  0.00    +0.189 A 
ATOM     24  C   UNL     1       8.165  -5.728  -4.761  0.00  0.00    +0.054 A 
ATOM     25  C   UNL     1       9.056  -6.600  -4.117  0.00  0.00    +0.042 A 
ATOM     26  C   UNL     1       8.724  -6.612  -2.807  0.00  0.00    +0.196 A 
ATOM     27  O   UNL     1       7.683  -5.791  -2.619  0.00  0.00    -0.458 OA
ENDBRANCH  20  23
ENDBRANCH  18  19
ENDBRANCH  17  18
ENDBRANCH   5  17
TORSDOF 7
