REMARK  Name = ZINC20175701
REMARK  10 active torsions:
REMARK  status: ('A' for Active; 'I' for Inactive)
REMARK    1  A    between atoms: C_1  and  C_2
REMARK    2  A    between atoms: C_2  and  O_3
REMARK    3  A    between atoms: O_3  and  C_4
REMARK    4  A    between atoms: C_6  and  C_19
REMARK    5  A    between atoms: C_9  and  O_10
REMARK    6  A    between atoms: O_10  and  C_11
REMARK    7  A    between atoms: C_11  and  C_12
REMARK    8  A    between atoms: C_22  and  C_33
REMARK    9  A    between atoms: C_28  and  N_32
REMARK   10  A    between atoms: C_29  and  C_30
REMARK                            x       y       z     vdW  Elec       q    Type
REMARK                         _______ _______ _______ _____ _____    ______ ____
ROOT
ATOM      1  C   UNL     1       5.303  -2.977  -1.684  0.00  0.00    +0.163 A 
ATOM      2  C   UNL     1       6.503  -3.643  -1.881  0.00  0.00    +0.054 A 
ATOM      3  C   UNL     1       7.682  -2.928  -1.979  0.00  0.00    -0.030 A 
ATOM      4  C   UNL     1       7.668  -1.549  -1.881  0.00  0.00    +0.023 A 
ATOM      5  C   UNL     1       6.474  -0.878  -1.690  0.00  0.00    +0.063 A 
ATOM      6  C   UNL     1       5.288  -1.590  -1.585  0.00  0.00    +0.176 A 
ATOM      7 BR   UNL     1       6.458   1.009  -1.563  0.00  0.00    -0.046 Br
ENDROOT
BRANCH   3   8
ATOM      8  C   UNL     1       8.985  -3.653  -2.194  0.00  0.00    +0.101 C 
ATOM      9  C   UNL     1       9.617  -3.193  -3.482  0.00  0.00    +0.049 A 
ATOM     10  C   UNL     1       9.241  -3.462  -4.792  0.00  0.00    +0.068 A 
ATOM     11  N   UNL     1      10.082  -2.850  -5.591  0.00  0.00    -0.176 NA
ATOM     12  N   UNL     1      11.024  -2.168  -4.805  0.00  0.00    -0.246 N 
ATOM     13  H   UNL     1      11.824  -1.585  -5.287  0.00  0.00    +0.192 HD
ATOM     14  C   UNL     1      10.723  -2.390  -3.516  0.00  0.00    +0.222 A 
ATOM     15  O   UNL     1      11.342  -1.948  -2.393  0.00  0.00    -0.423 OA
ATOM     16  C   UNL     1      11.011  -2.537  -1.225  0.00  0.00    +0.200 C 
ATOM     17  C   UNL     1       9.935  -3.339  -1.065  0.00  0.00    +0.098 C 
ATOM     18  C   UNL     1       8.072  -4.311  -5.220  0.00  0.00    +0.068 C 
BRANCH  16  19
ATOM     19  N   UNL     1      11.813  -2.307  -0.135  0.00  0.00    -0.328 N 
ATOM     20  H   UNL     1      11.572  -2.771   0.833  0.00  0.00    +0.145 HD
ATOM     21  H   UNL     1      12.697  -1.659  -0.230  0.00  0.00    +0.145 HD
ENDBRANCH  16  19
BRANCH  17  22
ATOM     22  C   UNL     1       9.687  -3.911   0.224  0.00  0.00    +0.101 C 
ATOM     23  N   UNL     1       9.490  -4.365   1.246  0.00  0.00    -0.191 NA
ENDBRANCH  17  22
ENDBRANCH   3   8
BRANCH   1  24
ATOM     24  O   UNL     1       4.142  -3.679  -1.586  0.00  0.00    -0.489 OA
BRANCH  24  26
ATOM     25  C   UNL     1       2.837  -5.713  -1.564  0.00  0.00    +0.048 C 
ATOM     26  C   UNL     1       4.233  -5.101  -1.697  0.00  0.00    +0.226 C 
ENDBRANCH  24  26
ENDBRANCH   1  24
BRANCH   6  27
ATOM     27  O   UNL     1       4.113  -0.932  -1.391  0.00  0.00    -0.483 OA
BRANCH  27  28
ATOM     28  C   UNL     1       3.711  -0.707  -0.039  0.00  0.00    +0.264 C 
BRANCH  28  29
ATOM     29  C   UNL     1       2.396   0.029  -0.022  0.00  0.00    -0.010 A 
ATOM     30  C   UNL     1       1.208  -0.679  -0.014  0.00  0.00    +0.007 A 
ATOM     31  C   UNL     1       0.002  -0.004   0.002  0.00  0.00    +0.000 A 
ATOM     32  C   UNL     1      -0.017   1.378   0.010  0.00  0.00    +0.000 A 
ATOM     33  C   UNL     1       1.171   2.086   0.002  0.00  0.00    +0.000 A 
ATOM     34  C   UNL     1       2.377   1.411  -0.014  0.00  0.00    +0.007 A 
ENDBRANCH  28  29
ENDBRANCH  27  28
ENDBRANCH   6  27
TORSDOF 8
