REMARK  Name = ZINC12549556
REMARK  3 active torsions:
REMARK  status: ('A' for Active; 'I' for Inactive)
REMARK    1  A    between atoms: C_3  and  O_28
REMARK    2  A    between atoms: C_4  and  C_8
REMARK    3  A    between atoms: O_28  and  C_29
REMARK                            x       y       z     vdW  Elec       q    Type
REMARK                         _______ _______ _______ _____ _____    ______ ____
ROOT
ATOM      1  C   UNL     1       3.711  -0.716  -0.038  0.00  0.00    +0.212 C 
ATOM      2  N   UNL     1       3.512  -2.110   0.399  0.00  0.00    -0.294 N 
ATOM      3  C   UNL     1       3.065  -3.047  -0.495  0.00  0.00    +0.160 C 
ATOM      4  N   UNL     1       3.340  -2.956  -1.784  0.00  0.00    -0.302 N 
ATOM      5  C   UNL     1       4.028  -1.874  -2.221  0.00  0.00    +0.213 A 
ATOM      6  N   UNL     1       4.236  -0.775  -1.406  0.00  0.00    -0.286 N 
ATOM      7  C   UNL     1       4.972   0.144  -2.117  0.00  0.00    +0.076 A 
ATOM      8  C   UNL     1       5.489   1.402  -1.832  0.00  0.00    +0.077 A 
ATOM      9  C   UNL     1       6.207   2.085  -2.795  0.00  0.00    +0.164 A 
ATOM     10  C   UNL     1       6.417   1.522  -4.050  0.00  0.00    +0.164 A 
ATOM     11  C   UNL     1       5.909   0.276  -4.351  0.00  0.00    +0.079 A 
ATOM     12  C   UNL     1       5.180  -0.427  -3.387  0.00  0.00    +0.095 A 
ATOM     13  N   UNL     1       4.569  -1.651  -3.390  0.00  0.00    -0.212 NA
ATOM     14  O   UNL     1       7.132   2.213  -4.987  0.00  0.00    -0.488 OA
ATOM     15  C   UNL     1       6.511   3.391  -5.504  0.00  0.00    +0.232 C 
ATOM     16  C   UNL     1       6.770   4.581  -4.593  0.00  0.00    +0.082 C 
ATOM     17  C   UNL     1       6.127   4.413  -3.225  0.00  0.00    +0.232 C 
ATOM     18  O   UNL     1       6.717   3.321  -2.518  0.00  0.00    -0.488 OA
ATOM     19  N   UNL     1       2.318  -4.101  -0.042  0.00  0.00    -0.332 N 
ATOM     20  H   UNL     1       2.111  -4.178   0.902  0.00  0.00    +0.145 HD
ATOM     21  H   UNL     1       1.996  -4.771  -0.666  0.00  0.00    +0.145 HD
ATOM     22  H   UNL     1       3.697  -2.363   1.317  0.00  0.00    +0.151 HD
ATOM     23  H   UNL     1       3.056  -3.647  -2.403  0.00  0.00    +0.171 HD
ENDROOT
BRANCH   1  27
ATOM     24  C   UNL     1      -0.017   1.379   0.010  0.00  0.00    +0.019 A 
ATOM     25  C   UNL     1       1.170   2.087   0.002  0.00  0.00    +0.047 A 
ATOM     26  C   UNL     1       2.380   1.410  -0.013  0.00  0.00    +0.134 A 
ATOM     27  C   UNL     1       2.397   0.022  -0.021  0.00  0.00    +0.036 A 
ATOM     28  C   UNL     1       1.208  -0.681  -0.013  0.00  0.00    +0.026 A 
ATOM     29  C   UNL     1       0.002  -0.004   0.002  0.00  0.00    +0.018 A 
ATOM     30 BR   UNL     1      -1.623  -0.971   0.012  0.00  0.00    -0.050 Br
BRANCH  26  31
ATOM     31  O   UNL     1       3.548   2.104  -0.021  0.00  0.00    -0.434 OA
BRANCH  31  32
ATOM     32  C   UNL     1       3.455   3.530  -0.013  0.00  0.00    +0.541 C 
ATOM     33  F   UNL     1       2.756   3.959  -1.146  0.00  0.00    -0.166 F 
ATOM     34  F   UNL     1       2.778   3.947   1.138  0.00  0.00    -0.166 F 
ENDBRANCH  31  32
ENDBRANCH  26  31
ENDBRANCH   1  27
TORSDOF 3
