REMARK  Name = ZINC63020721
REMARK  9 active torsions:
REMARK  status: ('A' for Active; 'I' for Inactive)
REMARK    1  A    between atoms: C_1  and  C_2
REMARK    2  A    between atoms: C_5  and  C_18
REMARK    3  A    between atoms: C_6  and  S_9
REMARK    4  A    between atoms: S_9  and  N_12
REMARK    5  A    between atoms: N_12  and  C_13
REMARK    6  A    between atoms: C_13  and  C_14
REMARK    7  A    between atoms: C_13  and  C_15
REMARK    8  A    between atoms: C_13  and  C_16
REMARK    9  A    between atoms: C_16  and  N_17
REMARK                            x       y       z     vdW  Elec       q    Type
REMARK                         _______ _______ _______ _____ _____    ______ ____
ROOT
ATOM      1  S   UNL     1      -0.238  -2.876   2.752  0.00  0.00    +0.061 S 
ATOM      2  O   UNL     1      -0.765  -2.279   3.929  0.00  0.00    -0.153 OA
ATOM      3  O   UNL     1      -0.701  -4.125   2.258  0.00  0.00    -0.153 OA
ENDROOT
BRANCH   1   9
ATOM      4  C   UNL     1      -1.589  -1.666  -2.153  0.00  0.00    +0.045 C 
ATOM      5  C   UNL     1      -1.092  -1.209  -0.805  0.00  0.00    -0.029 A 
ATOM      6  C   UNL     1      -0.811   0.127  -0.589  0.00  0.00    +0.025 A 
ATOM      7  C   UNL     1      -0.356   0.546   0.648  0.00  0.00    +0.046 A 
ATOM      8  C   UNL     1      -0.181  -0.371   1.668  0.00  0.00    -0.004 A 
ATOM      9  C   UNL     1      -0.462  -1.707   1.452  0.00  0.00    +0.128 A 
ATOM     10  C   UNL     1      -0.923  -2.126   0.217  0.00  0.00    +0.070 A 
ATOM     11 CL   UNL     1      -1.283  -3.803  -0.053  0.00  0.00    -0.081 Cl
ATOM     12  C   UNL     1       0.316   0.086   3.016  0.00  0.00    +0.047 C 
ATOM     13 CL   UNL     1      -0.002   2.224   0.919  0.00  0.00    -0.083 Cl
ENDBRANCH   1   9
BRANCH   1  14
ATOM     14  N   UNL     1       1.392  -3.036   2.991  0.00  0.00    -0.186 NA
ATOM     15  H   UNL     1       1.796  -2.712   3.811  0.00  0.00    +0.149 HD
BRANCH  14  16
ATOM     16  C   UNL     1       2.225  -3.668   1.964  0.00  0.00    +0.019 C 
ATOM     17  C   UNL     1       1.772  -5.116   1.761  0.00  0.00    +0.027 C 
ATOM     18  C   UNL     1       2.084  -2.900   0.649  0.00  0.00    +0.027 C 
BRANCH  16  19
ATOM     19  C   UNL     1       3.688  -3.650   2.412  0.00  0.00    -0.063 C 
BRANCH  19  20
ATOM     20  N   UNL     1       3.823  -4.388   3.675  0.00  0.00    +0.379 N 
ATOM     21  H   UNL     1       3.250  -3.953   4.382  0.00  0.00    -0.090 HD
ATOM     22  H   UNL     1       3.524  -5.342   3.540  0.00  0.00    -0.090 HD
ATOM     23  H   UNL     1       4.788  -4.376   3.969  0.00  0.00    -0.090 HD
ENDBRANCH  19  20
ENDBRANCH  16  19
ENDBRANCH  14  16
ENDBRANCH   1  14
TORSDOF 5
