REMARK  Name = ZINC48985452
REMARK  6 active torsions:
REMARK  status: ('A' for Active; 'I' for Inactive)
REMARK    1  A    between atoms: C_1  and  C_2
REMARK    2  A    between atoms: C_4  and  C_7
REMARK    3  A    between atoms: C_7  and  N_8
REMARK    4  A    between atoms: C_9  and  C_11
REMARK    5  A    between atoms: C_11  and  S_12
REMARK    6  A    between atoms: S_12  and  C_13
REMARK                            x       y       z     vdW  Elec       q    Type
REMARK                         _______ _______ _______ _____ _____    ______ ____
ROOT
ATOM      1  N   UNL     1      -1.691  -3.832  -1.387  0.00  0.00    -0.309 N 
ATOM      2  C   UNL     1      -2.442  -4.923  -1.635  0.00  0.00    +0.224 C 
ATOM      3  O   UNL     1      -2.959  -5.524  -0.717  0.00  0.00    -0.275 OA
ATOM      4  H   UNL     1      -1.278  -3.351  -2.121  0.00  0.00    +0.149 HD
ENDROOT
BRANCH   1   5
ATOM      5  C   UNL     1      -1.500  -3.372  -0.010  0.00  0.00    +0.163 C 
BRANCH   5   9
ATOM      6  C   UNL     1      -0.018   1.503   0.010  0.00  0.00    +0.089 C 
ATOM      7  C   UNL     1       0.002  -0.004   0.002  0.00  0.00    +0.135 A 
ATOM      8  C   UNL     1      -1.077  -0.810   0.003  0.00  0.00    +0.072 A 
ATOM      9  C   UNL     1      -0.627  -2.143  -0.007  0.00  0.00    +0.101 A 
ATOM     10  N   UNL     1       0.676  -2.130  -0.013  0.00  0.00    -0.081 NA
ATOM     11  O   UNL     1       1.098  -0.778  -0.013  0.00  0.00    -0.360 OA
ENDBRANCH   5   9
ENDBRANCH   1   5
BRANCH   2  12
ATOM     12  C   UNL     1      -2.639  -5.396  -3.052  0.00  0.00    +0.174 C 
BRANCH  12  13
ATOM     13  S   UNL     1      -3.690  -6.875  -3.055  0.00  0.00    -0.058 S 
BRANCH  13  14
ATOM     14  C   UNL     1      -3.824  -7.300  -4.760  0.00  0.00    +0.258 A 
ATOM     15  N   UNL     1      -3.256  -6.646  -5.743  0.00  0.00    -0.203 NA
ATOM     16  C   UNL     1      -3.577  -7.258  -6.915  0.00  0.00    +0.110 A 
ATOM     17  C   UNL     1      -3.262  -7.005  -8.251  0.00  0.00    +0.031 A 
ATOM     18  C   UNL     1      -3.755  -7.831  -9.238  0.00  0.00    +0.002 A 
ATOM     19  C   UNL     1      -4.562  -8.910  -8.911  0.00  0.00    +0.004 A 
ATOM     20  C   UNL     1      -4.882  -9.171  -7.593  0.00  0.00    +0.048 A 
ATOM     21  C   UNL     1      -4.394  -8.351  -6.589  0.00  0.00    +0.156 A 
ATOM     22  O   UNL     1      -4.519  -8.345  -5.242  0.00  0.00    -0.431 OA
ENDBRANCH  13  14
ENDBRANCH  12  13
ENDBRANCH   2  12
TORSDOF 5
