REMARK  Name = ZINC03259094
REMARK  9 active torsions:
REMARK  status: ('A' for Active; 'I' for Inactive)
REMARK    1  A    between atoms: C_3  and  S_21
REMARK    2  A    between atoms: C_6  and  N_7
REMARK    3  A    between atoms: N_7  and  C_8
REMARK    4  A    between atoms: C_8  and  N_10
REMARK    5  A    between atoms: N_10  and  N_11
REMARK    6  A    between atoms: C_12  and  C_13
REMARK    7  A    between atoms: C_16  and  O_20
REMARK    8  A    between atoms: C_18  and  O_19
REMARK    9  A    between atoms: S_21  and  N_24
REMARK                            x       y       z     vdW  Elec       q    Type
REMARK                         _______ _______ _______ _____ _____    ______ ____
ROOT
ATOM      1  N   UNL     1       5.956   2.045  -0.042  0.00  0.00    -0.296 N 
ATOM      2  H   UNL     1       5.791   2.800  -0.627  0.00  0.00    +0.154 HD
ENDROOT
BRANCH   1   8
ATOM      3  C   UNL     1       8.361   2.244   0.058  0.00  0.00    +0.025 A 
ATOM      4  C   UNL     1       9.609   1.655   0.100  0.00  0.00    +0.030 A 
ATOM      5  C   UNL     1       9.727   0.278   0.065  0.00  0.00    +0.106 A 
ATOM      6  C   UNL     1       8.596  -0.514  -0.004  0.00  0.00    +0.030 A 
ATOM      7  C   UNL     1       7.344   0.068  -0.040  0.00  0.00    +0.025 A 
ATOM      8  C   UNL     1       7.222   1.451  -0.006  0.00  0.00    +0.033 A 
BRANCH   5   9
ATOM      9  S   UNL     1      11.322  -0.469   0.111  0.00  0.00    +0.061 S 
ATOM     10  O   UNL     1      12.194   0.470   0.725  0.00  0.00    -0.153 OA
ATOM     11  O   UNL     1      11.141  -1.784   0.617  0.00  0.00    -0.153 OA
BRANCH   9  12
ATOM     12  N   UNL     1      11.832  -0.632  -1.457  0.00  0.00    -0.172 NA
ATOM     13  C   UNL     1      11.537  -1.851  -2.226  0.00  0.00    +0.137 C 
ATOM     14  C   UNL     1      10.921  -1.431  -3.571  0.00  0.00    +0.177 C 
ATOM     15  O   UNL     1      11.777  -0.475  -4.200  0.00  0.00    -0.377 OA
ATOM     16  C   UNL     1      11.935   0.742  -3.467  0.00  0.00    +0.177 C 
ATOM     17  C   UNL     1      12.598   0.436  -2.119  0.00  0.00    +0.137 C 
ENDBRANCH   9  12
ENDBRANCH   5   9
ENDBRANCH   1   8
BRANCH   1  18
ATOM     18  C   UNL     1       4.966   1.566   0.737  0.00  0.00    +0.154 C 
ATOM     19  S   UNL     1       5.225   0.167   1.688  0.00  0.00    -0.017 S 
BRANCH  18  20
ATOM     20  N   UNL     1       3.771   2.189   0.766  0.00  0.00    -0.218 N 
ATOM     21  H   UNL     1       3.058   1.845   1.327  0.00  0.00    +0.176 HD
BRANCH  20  22
ATOM     22  N   UNL     1       3.559   3.335  -0.012  0.00  0.00    -0.188 NA
ATOM     23  C   UNL     1       2.408   3.935   0.016  0.00  0.00    +0.141 C 
BRANCH  23  24
ATOM     24  C   UNL     1       2.185   5.139  -0.803  0.00  0.00    +0.036 A 
ATOM     25  C   UNL     1       0.948   5.787  -0.775  0.00  0.00    +0.016 A 
ATOM     26  C   UNL     1       0.743   6.913  -1.542  0.00  0.00    +0.046 A 
ATOM     27  C   UNL     1       1.766   7.410  -2.341  0.00  0.00    +0.120 A 
ATOM     28  C   UNL     1       2.996   6.771  -2.381  0.00  0.00    +0.091 A 
ATOM     29  C   UNL     1       3.214   5.639  -1.614  0.00  0.00    +0.129 A 
BRANCH  29  30
ATOM     30  O   UNL     1       4.419   5.015  -1.648  0.00  0.00    -0.506 OA
ATOM     31  H   UNL     1       5.049   5.340  -0.990  0.00  0.00    +0.292 HD
ENDBRANCH  29  30
BRANCH  27  32
ATOM     32  O   UNL     1       1.558   8.524  -3.091  0.00  0.00    -0.507 OA
ATOM     33  H   UNL     1       1.215   8.343  -3.977  0.00  0.00    +0.292 HD
ENDBRANCH  27  32
ENDBRANCH  23  24
ENDBRANCH  20  22
ENDBRANCH  18  20
ENDBRANCH   1  18
TORSDOF 9
