REMARK  Name = ZINC42142382
REMARK  8 active torsions:
REMARK  status: ('A' for Active; 'I' for Inactive)
REMARK    1  A    between atoms: C_1  and  C_2
REMARK    2  A    between atoms: C_2  and  C_4
REMARK    3  A    between atoms: C_2  and  S_10
REMARK    4  A    between atoms: N_6  and  C_7
REMARK    5  A    between atoms: C_7  and  C_8
REMARK    6  A    between atoms: C_7  and  C_9
REMARK    7  A    between atoms: S_10  and  C_11
REMARK    8  A    between atoms: C_16  and  N_21
REMARK                            x       y       z     vdW  Elec       q    Type
REMARK                         _______ _______ _______ _____ _____    ______ ____
ROOT
ATOM      1  C   UNL     1       2.533  -0.042   1.241  0.00  0.00    +0.168 A 
ATOM      2  N   UNL     1       3.568  -0.267   2.106  0.00  0.00    -0.333 N 
ATOM      3  H   UNL     1       3.522  -0.756   2.942  0.00  0.00    +0.168 HD
ATOM      4  C   UNL     1       4.693   0.334   1.566  0.00  0.00    +0.069 A 
ATOM      5  C   UNL     1       6.013   0.444   1.976  0.00  0.00    +0.050 A 
ATOM      6  C   UNL     1       6.923   1.130   1.189  0.00  0.00    +0.027 A 
ATOM      7  C   UNL     1       6.518   1.710  -0.011  0.00  0.00    +0.025 A 
ATOM      8  C   UNL     1       5.210   1.607  -0.428  0.00  0.00    +0.032 A 
ATOM      9  C   UNL     1       4.282   0.918   0.356  0.00  0.00    +0.090 A 
ATOM     10  N   UNL     1       2.956   0.649   0.212  0.00  0.00    -0.222 NA
ENDROOT
BRANCH   6  11
ATOM     11  N   UNL     1       8.256   1.242   1.602  0.00  0.00    -0.358 N 
ATOM     12  H   UNL     1       8.540   0.839   2.437  0.00  0.00    +0.142 HD
ATOM     13  H   UNL     1       8.895   1.722   1.052  0.00  0.00    +0.142 HD
ENDBRANCH   6  11
BRANCH   1  14
ATOM     14  S   UNL     1       0.879  -0.605   1.472  0.00  0.00    -0.075 S 
BRANCH  14  16
ATOM     15  C   UNL     1      -0.019   1.526   0.010  0.00  0.00    +0.029 C 
ATOM     16  C   UNL     1       0.002  -0.004   0.002  0.00  0.00    +0.137 C 
BRANCH  16  17
ATOM     17  C   UNL     1      -1.412  -0.526   0.013  0.00  0.00    +0.226 C 
ATOM     18  O   UNL     1      -1.939  -0.827   1.062  0.00  0.00    -0.275 OA
ATOM     19  N   UNL     1      -2.090  -0.657  -1.144  0.00  0.00    -0.312 N 
ATOM     20  H   UNL     1      -1.669  -0.416  -1.984  0.00  0.00    +0.149 HD
BRANCH  19  21
ATOM     21  C   UNL     1      -3.465  -1.164  -1.134  0.00  0.00    +0.067 C 
ATOM     22  C   UNL     1      -4.205  -0.657  -2.373  0.00  0.00    +0.027 C 
ATOM     23  C   UNL     1      -3.444  -2.694  -1.142  0.00  0.00    +0.027 C 
ENDBRANCH  19  21
ENDBRANCH  16  17
ENDBRANCH  14  16
ENDBRANCH   1  14
TORSDOF 5
