REMARK  Name = ZINC60370764
REMARK  6 active torsions:
REMARK  status: ('A' for Active; 'I' for Inactive)
REMARK    1  A    between atoms: C_1  and  C_2
REMARK    2  A    between atoms: C_4  and  C_26
REMARK    3  A    between atoms: N_5  and  C_7
REMARK    4  A    between atoms: C_12  and  N_13
REMARK    5  A    between atoms: N_16  and  C_17
REMARK    6  A    between atoms: C_23  and  O_25
REMARK                            x       y       z     vdW  Elec       q    Type
REMARK                         _______ _______ _______ _____ _____    ______ ____
ROOT
ATOM      1  N   UNL     1      -0.127  -1.792   3.305  0.00  0.00    -0.268 N 
ATOM      2  C   UNL     1      -0.117  -1.600   4.639  0.00  0.00    +0.304 C 
ATOM      3  O   UNL     1      -0.106  -2.556   5.390  0.00  0.00    -0.252 OA
ATOM      4  N   UNL     1      -0.120  -0.349   5.140  0.00  0.00    -0.294 N 
ATOM      5  H   UNL     1      -0.199  -1.032   2.706  0.00  0.00    +0.156 HD
ATOM      6  H   UNL     1      -0.129   0.413   4.540  0.00  0.00    +0.151 HD
ENDROOT
BRANCH   1  12
ATOM      7  C   UNL     1       0.645  -3.312   1.586  0.00  0.00    +0.087 A 
ATOM      8  C   UNL     1       0.740  -4.599   1.077  0.00  0.00    +0.029 A 
ATOM      9  C   UNL     1       0.158  -5.654   1.754  0.00  0.00    +0.002 A 
ATOM     10  C   UNL     1      -0.519  -5.431   2.939  0.00  0.00    +0.002 A 
ATOM     11  C   UNL     1      -0.618  -4.152   3.453  0.00  0.00    +0.025 A 
ATOM     12  C   UNL     1      -0.033  -3.088   2.783  0.00  0.00    +0.060 A 
BRANCH   7  17
ATOM     13  C   UNL     1       3.329   0.758   0.668  0.00  0.00    +0.067 C 
ATOM     14  C   UNL     1       2.427  -0.438   0.507  0.00  0.00    +0.061 A 
ATOM     15  C   UNL     1       1.816  -0.850  -0.682  0.00  0.00    +0.047 A 
ATOM     16  C   UNL     1       1.089  -1.960  -0.415  0.00  0.00    +0.042 A 
ATOM     17  N   UNL     1       1.235  -2.240   0.900  0.00  0.00    -0.235 N 
ATOM     18  N   UNL     1       2.083  -1.273   1.454  0.00  0.00    -0.171 NA
ATOM     19  C   UNL     1       0.265  -2.742  -1.404  0.00  0.00    +0.066 C 
ENDBRANCH   7  17
ENDBRANCH   1  12
BRANCH   4  20
ATOM     20  C   UNL     1      -0.109  -0.141   6.590  0.00  0.00    +0.103 C 
ATOM     21  C   UNL     1      -1.542  -0.200   7.124  0.00  0.00    +0.025 C 
ATOM     22  C   UNL     1      -1.531   0.017   8.638  0.00  0.00    +0.002 C 
ATOM     23  C   UNL     1      -0.926   1.387   8.952  0.00  0.00    +0.003 C 
ATOM     24  C   UNL     1       0.506   1.447   8.418  0.00  0.00    +0.033 C 
ATOM     25  C   UNL     1       0.496   1.229   6.904  0.00  0.00    +0.135 C 
BRANCH  25  26
ATOM     26  O   UNL     1       1.833   1.285   6.405  0.00  0.00    -0.390 OA
ATOM     27  H   UNL     1       2.280   2.127   6.569  0.00  0.00    +0.210 HD
ENDBRANCH  25  26
ENDBRANCH   4  20
TORSDOF 4
