REMARK  Name = ZINC09553384
REMARK  3 active torsions:
REMARK  status: ('A' for Active; 'I' for Inactive)
REMARK    1  A    between atoms: C_4  and  O_16
REMARK    2  A    between atoms: C_5  and  N_7
REMARK    3  A    between atoms: N_7  and  C_8
REMARK                            x       y       z     vdW  Elec       q    Type
REMARK                         _______ _______ _______ _____ _____    ______ ____
ROOT
ATOM      1  N   UNL     1       1.235  -2.080  -0.022  0.00  0.00    -0.317 N 
ATOM      2  H   UNL     1       2.083  -2.552  -0.034  0.00  0.00    +0.152 HD
ENDROOT
BRANCH   1   3
ATOM      3  C   UNL     1       0.066  -2.780  -0.015  0.00  0.00    +0.079 C 
ATOM      4  C   UNL     1       0.087  -4.136  -0.023  0.00  0.00    +0.009 C 
ATOM      5  C   UNL     1       1.417  -4.834  -0.035  0.00  0.00    +0.040 C 
ATOM      6  C   UNL     1       1.246  -6.295   0.388  0.00  0.00    +0.005 C 
ATOM      7  C   UNL     1       0.128  -6.923  -0.451  0.00  0.00    +0.008 C 
ATOM      8  C   UNL     1      -1.210  -6.321  -0.019  0.00  0.00    +0.079 C 
ATOM      9  C   UNL     1      -1.124  -4.821  -0.015  0.00  0.00    +0.160 C 
ATOM     10  O   UNL     1      -2.156  -4.179  -0.008  0.00  0.00    -0.292 OA
ENDBRANCH   1   3
BRANCH   1  15
ATOM     11  C   UNL     1      -0.017   1.378   0.010  0.00  0.00    +0.002 A 
ATOM     12  C   UNL     1       1.169   2.089   0.002  0.00  0.00    +0.004 A 
ATOM     13  C   UNL     1       2.380   1.421  -0.013  0.00  0.00    +0.047 A 
ATOM     14  C   UNL     1       2.408   0.036  -0.022  0.00  0.00    +0.138 A 
ATOM     15  C   UNL     1       1.213  -0.681  -0.014  0.00  0.00    +0.073 A 
ATOM     16  C   UNL     1       0.002  -0.004   0.002  0.00  0.00    +0.027 A 
BRANCH  14  17
ATOM     17  O   UNL     1       3.598  -0.621  -0.038  0.00  0.00    -0.505 OA
ATOM     18  H   UNL     1       3.951  -0.817   0.841  0.00  0.00    +0.292 HD
ENDBRANCH  14  17
ENDBRANCH   1  15
TORSDOF 3
