REMARK  Name = ZINC04312117
REMARK  7 active torsions:
REMARK  status: ('A' for Active; 'I' for Inactive)
REMARK    1  A    between atoms: C_1  and  C_2
REMARK    2  A    between atoms: C_2  and  C_3
REMARK    3  A    between atoms: C_2  and  C_4
REMARK    4  A    between atoms: C_2  and  C_5
REMARK    5  A    between atoms: C_12  and  N_26
REMARK    6  A    between atoms: C_13  and  C_24
REMARK    7  A    between atoms: C_14  and  C_16
REMARK                            x       y       z     vdW  Elec       q    Type
REMARK                         _______ _______ _______ _____ _____    ______ ____
ROOT
ATOM      1  C   UNL     1       0.754  -0.436  -1.987  0.00  0.00    +0.049 A 
ATOM      2  C   UNL     1       0.846  -1.716  -2.378  0.00  0.00    +0.050 A 
ATOM      3  C   UNL     1       1.545  -1.751  -3.605  0.00  0.00    +0.245 A 
ATOM      4  N   UNL     1       1.855  -0.529  -3.927  0.00  0.00    -0.135 NA
ATOM      5  N   UNL     1       1.364   0.325  -2.926  0.00  0.00    -0.277 N 
ATOM      6  H   UNL     1       1.449   1.291  -2.909  0.00  0.00    +0.189 HD
ATOM      7  O   UNL     1       1.800  -2.917  -4.256  0.00  0.00    -0.421 OA
ATOM      8  C   UNL     1       1.609  -4.064  -3.574  0.00  0.00    +0.201 C 
ATOM      9  C   UNL     1       0.948  -4.155  -2.401  0.00  0.00    +0.098 C 
ATOM     10  C   UNL     1       0.332  -2.965  -1.709  0.00  0.00    +0.104 C 
ENDROOT
BRANCH  10  11
ATOM     11  C   UNL     1      -1.169  -3.027  -1.831  0.00  0.00    +0.001 A 
ATOM     12  C   UNL     1      -1.768  -2.886  -3.069  0.00  0.00    +0.010 A 
ATOM     13  C   UNL     1      -3.144  -2.944  -3.182  0.00  0.00    +0.039 A 
ATOM     14  C   UNL     1      -3.924  -3.142  -2.055  0.00  0.00    +0.126 A 
ATOM     15  C   UNL     1      -3.325  -3.283  -0.815  0.00  0.00    +0.077 A 
ATOM     16  C   UNL     1      -1.946  -3.231  -0.704  0.00  0.00    +0.130 A 
ATOM     17  F   UNL     1      -1.360  -3.374   0.505  0.00  0.00    -0.205 F 
ATOM     18  F   UNL     1      -5.270  -3.197  -2.166  0.00  0.00    -0.205 F 
ENDBRANCH  10  11
BRANCH   1  20
ATOM     19  C   UNL     1       0.345   1.566  -0.583  0.00  0.00    +0.017 C 
ATOM     20  C   UNL     1       0.088   0.065  -0.732  0.00  0.00    +0.004 C 
ATOM     21  C   UNL     1       0.661  -0.673   0.479  0.00  0.00    +0.017 C 
ATOM     22  C   UNL     1      -1.418  -0.189  -0.818  0.00  0.00    +0.017 C 
ENDBRANCH   1  20
BRANCH   8  23
ATOM     23  N   UNL     1       2.123  -5.219  -4.109  0.00  0.00    -0.328 N 
ATOM     24  H   UNL     1       2.604  -5.191  -4.950  0.00  0.00    +0.145 HD
ATOM     25  H   UNL     1       2.004  -6.063  -3.645  0.00  0.00    +0.145 HD
ENDBRANCH   8  23
BRANCH   9  26
ATOM     26  C   UNL     1       0.825  -5.442  -1.785  0.00  0.00    +0.101 C 
ATOM     27  N   UNL     1       0.727  -6.463  -1.296  0.00  0.00    -0.191 NA
ENDBRANCH   9  26
TORSDOF 4
