REMARK  Name = ZINC39612891
REMARK  9 active torsions:
REMARK  status: ('A' for Active; 'I' for Inactive)
REMARK    1  A    between atoms: C_1  and  C_2
REMARK    2  A    between atoms: C_2  and  C_3
REMARK    3  A    between atoms: C_3  and  C_5
REMARK    4  A    between atoms: C_3  and  N_6
REMARK    5  A    between atoms: N_6  and  C_7
REMARK    6  A    between atoms: C_15  and  C_17
REMARK    7  A    between atoms: C_17  and  S_18
REMARK    8  A    between atoms: S_18  and  C_19
REMARK    9  A    between atoms: C_23  and  C_25
REMARK                            x       y       z     vdW  Elec       q    Type
REMARK                         _______ _______ _______ _____ _____    ______ ____
ROOT
ATOM      1  S   UNL     1       3.426  -2.054   2.158  0.00  0.00    -0.087 S 
ENDROOT
BRANCH   1   2
ATOM      2  C   UNL     1       2.474  -3.041   3.346  0.00  0.00    +0.339 C 
ATOM      3  N   UNL     1       1.857  -4.198   2.675  0.00  0.00    -0.219 N 
ATOM      4  N   UNL     1       0.474  -4.032   2.835  0.00  0.00    -0.145 NA
ATOM      5  C   UNL     1       0.227  -2.938   3.505  0.00  0.00    +0.238 C 
ATOM      6  O   UNL     1       1.365  -2.284   3.851  0.00  0.00    -0.443 OA
ATOM      7  H   UNL     1       2.313  -4.923   2.219  0.00  0.00    +0.173 HD
BRANCH   5   8
ATOM      8  C   UNL     1      -1.062  -2.492   3.829  0.00  0.00    +0.043 C 
ATOM      9  C   UNL     1      -2.273  -3.111   3.515  0.00  0.00    +0.008 A 
ATOM     10  C   UNL     1      -2.584  -4.299   2.821  0.00  0.00    +0.010 A 
ATOM     11  C   UNL     1      -3.882  -4.666   2.662  0.00  0.00    +0.001 A 
ATOM     12  C   UNL     1      -4.928  -3.893   3.170  0.00  0.00    +0.002 A 
ATOM     13  C   UNL     1      -4.702  -2.740   3.847  0.00  0.00    +0.026 A 
ATOM     14  C   UNL     1      -3.372  -2.292   4.053  0.00  0.00    +0.043 A 
ATOM     15  N   UNL     1      -2.896  -1.226   4.667  0.00  0.00    -0.380 N 
ATOM     16  C   UNL     1      -1.431  -1.242   4.597  0.00  0.00    +0.154 C 
ATOM     17  H   UNL     1      -3.430  -0.542   5.099  0.00  0.00    +0.160 HD
ENDBRANCH   5   8
ENDBRANCH   1   2
BRANCH   1  18
ATOM     18  C   UNL     1       2.206  -1.584   0.901  0.00  0.00    +0.170 C 
BRANCH  18  20
ATOM     19  N   UNL     1       2.141  -0.199  -1.148  0.00  0.00    -0.293 N 
ATOM     20  C   UNL     1       2.875  -0.749  -0.161  0.00  0.00    +0.226 C 
ATOM     21  O   UNL     1       4.074  -0.572  -0.126  0.00  0.00    -0.275 OA
BRANCH  19  22
ATOM     22  C   UNL     1       2.772   0.703  -2.115  0.00  0.00    +0.099 C 
ATOM     23  C   UNL     1       3.375   1.907  -1.371  0.00  0.00    +0.046 C 
ATOM     24  C   UNL     1       4.296   2.675  -2.361  0.00  0.00    +0.168 C 
ATOM     25  S   UNL     1       5.112   1.266  -3.224  0.00  0.00    -0.029 S 
ATOM     26  O   UNL     1       6.327   0.955  -2.556  0.00  0.00    -0.174 OA
ATOM     27  O   UNL     1       5.130   1.528  -4.621  0.00  0.00    -0.174 OA
ATOM     28  C   UNL     1       3.884  -0.057  -2.877  0.00  0.00    +0.188 C 
ENDBRANCH  19  22
BRANCH  19  29
ATOM     29  C   UNL     1       0.712  -0.503  -1.254  0.00  0.00    +0.073 C 
ATOM     30  C   UNL     1      -0.090   0.800  -1.244  0.00  0.00    +0.028 C 
BRANCH  29  32
ATOM     31  C   UNL     1       1.135  -2.620  -2.513  0.00  0.00    +0.005 C 
ATOM     32  C   UNL     1       0.446  -1.254  -2.561  0.00  0.00    +0.019 C 
ENDBRANCH  29  32
ENDBRANCH  19  29
ENDBRANCH  18  20
ENDBRANCH   1  18
TORSDOF 7
