REMARK  Name = ZINC04197595
REMARK  8 active torsions:
REMARK  status: ('A' for Active; 'I' for Inactive)
REMARK    1  A    between atoms: C_1  and  C_2
REMARK    2  A    between atoms: C_2  and  C_25
REMARK    3  A    between atoms: N_5  and  C_9
REMARK    4  A    between atoms: C_9  and  C_10
REMARK    5  A    between atoms: C_10  and  C_12
REMARK    6  A    between atoms: C_10  and  O_24
REMARK    7  A    between atoms: C_12  and  N_13
REMARK    8  A    between atoms: N_13  and  C_14
REMARK                            x       y       z     vdW  Elec       q    Type
REMARK                         _______ _______ _______ _____ _____    ______ ____
ROOT
ATOM      1  C   UNL     1       4.015  -0.936  -1.700  0.00  0.00    +0.115 C 
ENDROOT
BRANCH   1   2
ATOM      2  O   UNL     1       3.540   0.207  -2.415  0.00  0.00    -0.392 OA
ATOM      3  H   UNL     1       3.148  -0.002  -3.274  0.00  0.00    +0.210 HD
ENDBRANCH   1   2
BRANCH   1   4
ATOM      4  C   UNL     1       2.853  -1.896  -1.443  0.00  0.00    +0.147 C 
BRANCH   4   9
ATOM      5  C   UNL     1      -0.019   1.526   0.010  0.00  0.00    +0.041 C 
ATOM      6  C   UNL     1       0.002  -0.004   0.002  0.00  0.00    +0.107 C 
ATOM      7  C   UNL     1       0.799  -0.520  -1.180  0.00  0.00    +0.246 C 
ATOM      8  O   UNL     1       0.564  -0.342  -2.356  0.00  0.00    -0.273 OA
ATOM      9  N   UNL     1       1.824  -1.217  -0.651  0.00  0.00    -0.222 N 
ATOM     10  C   UNL     1       1.786  -1.214   0.686  0.00  0.00    +0.309 C 
ATOM     11  O   UNL     1       2.604  -1.776   1.387  0.00  0.00    -0.252 OA
ATOM     12  N   UNL     1       0.740  -0.519   1.169  0.00  0.00    -0.285 N 
ATOM     13  C   UNL     1      -1.423  -0.560  -0.022  0.00  0.00    +0.041 C 
ATOM     14  H   UNL     1       0.515  -0.383   2.102  0.00  0.00    +0.151 HD
ENDBRANCH   4   9
ENDBRANCH   1   4
BRANCH   1  15
ATOM     15  C   UNL     1       5.090  -1.645  -2.527  0.00  0.00    -0.049 C 
BRANCH  15  16
ATOM     16  N   UNL     1       6.256  -0.764  -2.672  0.00  0.00    +0.384 N 
ATOM     17  H   UNL     1       5.980   0.087  -3.139  0.00  0.00    -0.085 HD
ATOM     18  H   UNL     1       6.626  -0.542  -1.760  0.00  0.00    -0.085 HD
BRANCH  16  19
ATOM     19  C   UNL     1       7.288  -1.445  -3.466  0.00  0.00    -0.067 C 
ATOM     20  C   UNL     1       6.727  -1.781  -4.850  0.00  0.00    -0.009 C 
ATOM     21  C   UNL     1       7.801  -2.490  -5.677  0.00  0.00    -0.012 C 
ATOM     22  C   UNL     1       9.017  -1.573  -5.828  0.00  0.00    +0.007 C 
ATOM     23  C   UNL     1       9.577  -1.237  -4.445  0.00  0.00    -0.012 C 
ATOM     24  C   UNL     1       8.503  -0.528  -3.618  0.00  0.00    -0.009 C 
ATOM     25  C   UNL     1       9.997  -2.527  -3.737  0.00  0.00    +0.007 C 
ATOM     26  C   UNL     1       8.782  -3.444  -3.586  0.00  0.00    -0.012 C 
ATOM     27  C   UNL     1       8.221  -3.780  -4.970  0.00  0.00    +0.007 C 
ATOM     28  C   UNL     1       7.707  -2.735  -2.759  0.00  0.00    -0.009 C 
ENDBRANCH  16  19
ENDBRANCH  15  16
ENDBRANCH   1  15
TORSDOF 6
