REMARK  Name = ZINC43212180
REMARK  12 active torsions:
REMARK  status: ('A' for Active; 'I' for Inactive)
REMARK    1  A    between atoms: C_1  and  C_2
REMARK    2  A    between atoms: C_2  and  C_3
REMARK    3  A    between atoms: C_2  and  C_4
REMARK    4  A    between atoms: C_2  and  N_5
REMARK    5  A    between atoms: C_10  and  C_30
REMARK    6  A    between atoms: C_13  and  C_18
REMARK    7  A    between atoms: C_13  and  C_27
REMARK    8  A    between atoms: C_18  and  O_19
REMARK    9  A    between atoms: O_19  and  C_20
REMARK   10  A    between atoms: C_20  and  C_21
REMARK   11  A    between atoms: C_32  and  O_37
REMARK   12  A    between atoms: C_34  and  O_36
REMARK                            x       y       z     vdW  Elec       q    Type
REMARK                         _______ _______ _______ _____ _____    ______ ____
ROOT
ATOM      1  N   UNL     1       0.903  -0.187  -1.074  0.00  0.00    -0.236 N 
ATOM      2  C   UNL     1       0.190  -0.960  -1.956  0.00  0.00    +0.225 C 
ATOM      3  O   UNL     1      -1.012  -1.114  -2.003  0.00  0.00    -0.275 OA
ATOM      4  C   UNL     1       1.190  -1.548  -2.816  0.00  0.00    +0.077 C 
ATOM      5  C   UNL     1       1.306  -2.200  -4.128  0.00  0.00    -0.026 C 
ATOM      6  N   UNL     1       2.764  -2.093  -4.468  0.00  0.00    +0.397 N 
ATOM      7  C   UNL     1       3.417  -1.272  -3.396  0.00  0.00    +0.072 C 
ATOM      8  C   UNL     1       2.251  -0.381  -2.918  0.00  0.00    +0.088 C 
ATOM      9  C   UNL     1       2.199   0.002  -1.464  0.00  0.00    +0.225 C 
ATOM     10  O   UNL     1       3.119   0.395  -0.779  0.00  0.00    -0.275 OA
ATOM     11  H   UNL     1       3.178  -3.012  -4.495  0.00  0.00    -0.083 HD
ATOM     12  H   UNL     1       2.874  -1.639  -5.362  0.00  0.00    -0.083 HD
ENDROOT
BRANCH   5  13
ATOM     13  C   UNL     1       0.469  -1.478  -5.152  0.00  0.00    -0.054 A 
ATOM     14  C   UNL     1       0.946  -0.323  -5.742  0.00  0.00    +0.047 A 
ATOM     15  C   UNL     1       0.177   0.344  -6.685  0.00  0.00    +0.121 A 
ATOM     16  C   UNL     1      -1.070  -0.149  -7.035  0.00  0.00    +0.090 A 
ATOM     17  C   UNL     1      -1.546  -1.308  -6.442  0.00  0.00    +0.121 A 
ATOM     18  C   UNL     1      -0.771  -1.975  -5.504  0.00  0.00    +0.047 A 
BRANCH  17  19
ATOM     19  O   UNL     1      -2.769  -1.794  -6.783  0.00  0.00    -0.507 OA
ATOM     20  H   UNL     1      -2.752  -2.416  -7.524  0.00  0.00    +0.292 HD
ENDBRANCH  17  19
BRANCH  15  21
ATOM     21  O   UNL     1       0.646   1.480  -7.265  0.00  0.00    -0.507 OA
ATOM     22  H   UNL     1       1.153   1.329  -8.074  0.00  0.00    +0.292 HD
ENDBRANCH  15  21
ENDBRANCH   5  13
BRANCH   1  24
ATOM     23  C   UNL     1       0.433   1.906   0.101  0.00  0.00    +0.031 C 
ATOM     24  C   UNL     1       0.335   0.380   0.152  0.00  0.00    +0.036 C 
ATOM     25  C   UNL     1       1.111  -0.141   1.363  0.00  0.00    +0.031 C 
ATOM     26  C   UNL     1      -1.134  -0.033   0.271  0.00  0.00    +0.031 C 
ENDBRANCH   1  24
BRANCH   7  27
ATOM     27  C   UNL     1       4.523  -0.426  -3.972  0.00  0.00    +0.348 C 
ATOM     28  O   UNL     1       4.791  -0.497  -5.159  0.00  0.00    -0.248 OA
ATOM     29  O   UNL     1       5.152   0.330  -3.250  0.00  0.00    -0.248 OA
ENDBRANCH   7  27
BRANCH   7  30
ATOM     30  C   UNL     1       3.944  -2.167  -2.273  0.00  0.00    +0.160 C 
BRANCH  30  31
ATOM     31  O   UNL     1       4.925  -3.063  -2.799  0.00  0.00    -0.376 OA
BRANCH  31  32
ATOM     32  C   UNL     1       5.485  -3.948  -1.827  0.00  0.00    +0.195 C 
BRANCH  32  33
ATOM     33  C   UNL     1       6.501  -4.843  -2.488  0.00  0.00    -0.022 A 
ATOM     34  C   UNL     1       6.108  -6.052  -3.032  0.00  0.00    +0.006 A 
ATOM     35  C   UNL     1       7.041  -6.872  -3.638  0.00  0.00    +0.000 A 
ATOM     36  C   UNL     1       8.366  -6.484  -3.702  0.00  0.00    +0.000 A 
ATOM     37  C   UNL     1       8.758  -5.275  -3.159  0.00  0.00    +0.000 A 
ATOM     38  C   UNL     1       7.825  -4.452  -2.556  0.00  0.00    +0.006 A 
ENDBRANCH  32  33
ENDBRANCH  31  32
ENDBRANCH  30  31
ENDBRANCH   7  30
TORSDOF 9
