REMARK  Name = ZINC38971092
REMARK  4 active torsions:
REMARK  status: ('A' for Active; 'I' for Inactive)
REMARK    1  A    between atoms: C_2  and  C_3
REMARK    2  A    between atoms: C_3  and  N_4
REMARK    3  A    between atoms: C_11  and  O_26
REMARK    4  A    between atoms: C_13  and  C_17
REMARK                            x       y       z     vdW  Elec       q    Type
REMARK                         _______ _______ _______ _____ _____    ______ ____
ROOT
ATOM      1  N   UNL     1      -1.318  -1.700  -1.126  0.00  0.00    -0.267 N 
ATOM      2  C   UNL     1      -1.840  -1.275  -2.351  0.00  0.00    +0.042 A 
ATOM      3  C   UNL     1      -2.587  -0.105  -2.419  0.00  0.00    +0.024 A 
ATOM      4  C   UNL     1      -3.115   0.305  -3.626  0.00  0.00    +0.002 A 
ATOM      5  C   UNL     1      -2.903  -0.446  -4.768  0.00  0.00    +0.000 A 
ATOM      6  C   UNL     1      -2.156  -1.608  -4.705  0.00  0.00    +0.008 A 
ATOM      7  C   UNL     1      -1.618  -2.020  -3.500  0.00  0.00    +0.003 A 
ATOM      8  C   UNL     1      -0.775  -3.268  -3.441  0.00  0.00    +0.165 C 
ATOM      9  C   UNL     1      -0.970  -3.956  -2.089  0.00  0.00    +0.174 C 
ATOM     10  C   UNL     1      -0.833  -2.945  -0.981  0.00  0.00    +0.233 C 
ATOM     11  O   UNL     1      -0.284  -3.259   0.054  0.00  0.00    -0.274 OA
ENDROOT
BRANCH   9  12
ATOM     12  C   UNL     1      -2.341  -4.579  -2.037  0.00  0.00    +0.123 A 
ATOM     13  N   UNL     1      -2.607  -5.820  -2.326  0.00  0.00    -0.232 NA
ATOM     14  C   UNL     1      -3.937  -6.048  -2.175  0.00  0.00    +0.089 A 
ATOM     15  C   UNL     1      -4.746  -7.174  -2.346  0.00  0.00    +0.030 A 
ATOM     16  C   UNL     1      -6.089  -7.089  -2.108  0.00  0.00    +0.002 A 
ATOM     17  C   UNL     1      -6.661  -5.894  -1.696  0.00  0.00    +0.002 A 
ATOM     18  C   UNL     1      -5.881  -4.770  -1.521  0.00  0.00    +0.028 A 
ATOM     19  C   UNL     1      -4.515  -4.838  -1.758  0.00  0.00    +0.066 A 
ATOM     20  N   UNL     1      -3.479  -3.929  -1.674  0.00  0.00    -0.341 N 
ATOM     21  H   UNL     1      -3.550  -2.999  -1.409  0.00  0.00    +0.167 HD
ENDBRANCH   9  12
BRANCH   8  22
ATOM     22  O   UNL     1       0.601  -2.920  -3.603  0.00  0.00    -0.386 OA
ATOM     23  H   UNL     1       0.800  -2.482  -4.441  0.00  0.00    +0.210 HD
ENDBRANCH   8  22
BRANCH   1  24
ATOM     24  C   UNL     1      -1.293  -0.775   0.010  0.00  0.00    +0.140 C 
BRANCH  24  26
ATOM     25  C   UNL     1      -0.016   1.306   0.009  0.00  0.00    +0.005 C 
ATOM     26  C   UNL     1       0.002  -0.004   0.002  0.00  0.00    -0.015 C 
ENDBRANCH  24  26
ENDBRANCH   1  24
TORSDOF 4
