REMARK  Name = ZINC00828359
REMARK  5 active torsions:
REMARK  status: ('A' for Active; 'I' for Inactive)
REMARK    1  A    between atoms: C_1  and  C_2
REMARK    2  A    between atoms: C_5  and  C_8
REMARK    3  A    between atoms: C_17  and  N_23
REMARK    4  A    between atoms: C_20  and  C_22
REMARK    5  A    between atoms: N_23  and  C_24
REMARK                            x       y       z     vdW  Elec       q    Type
REMARK                         _______ _______ _______ _____ _____    ______ ____
ROOT
ATOM      1  C   UNL     1      -0.001   2.045   2.146  0.00  0.00    +0.251 C 
ATOM      2  O   UNL     1       1.083   1.496   2.196  0.00  0.00    -0.270 OA
ATOM      3  N   UNL     1      -0.571   2.305   0.952  0.00  0.00    -0.264 N 
ATOM      4  C   UNL     1      -1.417   3.410   0.792  0.00  0.00    +0.042 A 
ATOM      5  C   UNL     1      -1.888   4.071   1.921  0.00  0.00    +0.024 A 
ATOM      6  C   UNL     1      -2.719   5.164   1.785  0.00  0.00    +0.002 A 
ATOM      7  C   UNL     1      -3.082   5.602   0.524  0.00  0.00    +0.000 A 
ATOM      8  C   UNL     1      -2.617   4.945  -0.599  0.00  0.00    +0.007 A 
ATOM      9  C   UNL     1      -1.783   3.846  -0.471  0.00  0.00    -0.006 A 
ATOM     10  C   UNL     1      -1.300   3.150  -1.716  0.00  0.00    +0.104 C 
ATOM     11  C   UNL     1      -0.043   2.331  -1.418  0.00  0.00    +0.049 C 
ATOM     12  C   UNL     1      -0.314   1.433  -0.203  0.00  0.00    +0.081 C 
ATOM     13  C   UNL     1       0.906   0.553   0.073  0.00  0.00    +0.028 C 
ENDROOT
BRANCH   1  18
ATOM     14  C   UNL     1      -2.700   3.533   7.005  0.00  0.00    +0.044 C 
ATOM     15  C   UNL     1      -1.993   3.143   5.733  0.00  0.00    -0.050 A 
ATOM     16  C   UNL     1      -0.642   3.406   5.587  0.00  0.00    +0.004 A 
ATOM     17  C   UNL     1       0.011   3.052   4.424  0.00  0.00    +0.013 A 
ATOM     18  C   UNL     1      -0.694   2.427   3.394  0.00  0.00    +0.037 A 
ATOM     19  C   UNL     1      -2.058   2.170   3.546  0.00  0.00    +0.013 A 
ATOM     20  C   UNL     1      -2.698   2.524   4.715  0.00  0.00    +0.004 A 
ENDBRANCH   1  18
BRANCH  10  21
ATOM     21  N   UNL     1      -0.995   4.149  -2.742  0.00  0.00    -0.337 N 
ATOM     22  H   UNL     1      -0.086   4.473  -2.849  0.00  0.00    +0.147 HD
BRANCH  21  23
ATOM     23  C   UNL     1      -2.011   4.635  -3.568  0.00  0.00    +0.028 A 
ATOM     24  C   UNL     1      -3.311   4.168  -3.421  0.00  0.00    +0.023 A 
ATOM     25  C   UNL     1      -4.314   4.654  -4.236  0.00  0.00    +0.002 A 
ATOM     26  C   UNL     1      -4.024   5.598  -5.204  0.00  0.00    +0.000 A 
ATOM     27  C   UNL     1      -2.730   6.061  -5.357  0.00  0.00    +0.002 A 
ATOM     28  C   UNL     1      -1.723   5.583  -4.542  0.00  0.00    +0.023 A 
ENDBRANCH  21  23
ENDBRANCH  10  21
TORSDOF 3
