REMARK  Name = ZINC63743932
REMARK  6 active torsions:
REMARK  status: ('A' for Active; 'I' for Inactive)
REMARK    1  A    between atoms: C_1  and  C_2
REMARK    2  A    between atoms: C_2  and  O_3
REMARK    3  A    between atoms: O_3  and  C_4
REMARK    4  A    between atoms: C_9  and  N_10
REMARK    5  A    between atoms: N_13  and  C_14
REMARK    6  A    between atoms: C_17  and  C_20
REMARK                            x       y       z     vdW  Elec       q    Type
REMARK                         _______ _______ _______ _____ _____    ______ ____
ROOT
ATOM      1  C   UNL     1      -7.541  -1.746  -0.105  0.00  0.00    +0.035 A 
ATOM      2  C   UNL     1      -7.710  -3.125  -0.103  0.00  0.00    +0.024 A 
ATOM      3  C   UNL     1      -8.982  -3.663  -0.090  0.00  0.00    +0.008 A 
ATOM      4  C   UNL     1     -10.086  -2.831  -0.078  0.00  0.00    -0.021 A 
ATOM      5  C   UNL     1      -9.921  -1.458  -0.079  0.00  0.00    +0.008 A 
ATOM      6  C   UNL     1      -8.652  -0.913  -0.087  0.00  0.00    +0.024 A 
ENDROOT
BRANCH   4   7
ATOM      7  C   UNL     1     -11.472  -3.422  -0.063  0.00  0.00    +0.133 C 
ATOM      8  C   UNL     1     -12.086  -3.345  -1.443  0.00  0.00    +0.012 C 
ATOM      9  C   UNL     1     -13.196  -2.582  -1.318  0.00  0.00    -0.001 A 
ATOM     10  C   UNL     1     -14.212  -2.140  -2.280  0.00  0.00    +0.048 A 
ATOM     11  C   UNL     1     -15.232  -1.362  -1.847  0.00  0.00    +0.124 A 
ATOM     12  C   UNL     1     -15.341  -0.971  -0.503  0.00  0.00    +0.040 A 
ATOM     13  C   UNL     1     -14.447  -1.338   0.438  0.00  0.00    +0.029 A 
ATOM     14  C   UNL     1     -13.334  -2.155   0.093  0.00  0.00    +0.043 A 
ATOM     15  N   UNL     1     -12.348  -2.636   0.813  0.00  0.00    -0.374 N 
ATOM     16  F   UNL     1     -16.169  -0.953  -2.730  0.00  0.00    -0.205 F 
ATOM     17  H   UNL     1     -12.220  -2.497   1.764  0.00  0.00    +0.161 HD
ENDBRANCH   4   7
BRANCH   1  21
ATOM     18  N   UNL     1      -3.999  -1.357  -0.702  0.00  0.00    -0.266 N 
ATOM     19  C   UNL     1      -5.260  -1.826  -0.777  0.00  0.00    +0.308 C 
ATOM     20  O   UNL     1      -5.502  -2.816  -1.440  0.00  0.00    -0.252 OA
ATOM     21  N   UNL     1      -6.254  -1.197  -0.118  0.00  0.00    -0.269 N 
ATOM     22  H   UNL     1      -3.792  -0.616  -0.111  0.00  0.00    +0.156 HD
ATOM     23  H   UNL     1      -6.077  -0.365   0.346  0.00  0.00    +0.156 HD
BRANCH  18  29
ATOM     24  C   UNL     1      -1.651  -1.764  -1.125  0.00  0.00    +0.142 A 
ATOM     25  C   UNL     1      -0.654  -2.348  -1.891  0.00  0.00    +0.047 A 
ATOM     26  C   UNL     1      -0.987  -3.098  -3.004  0.00  0.00    +0.004 A 
ATOM     27  C   UNL     1      -2.313  -3.267  -3.357  0.00  0.00    +0.002 A 
ATOM     28  C   UNL     1      -3.313  -2.688  -2.598  0.00  0.00    +0.027 A 
ATOM     29  C   UNL     1      -2.987  -1.940  -1.476  0.00  0.00    +0.077 A 
BRANCH  24  30
ATOM     30  O   UNL     1      -1.325  -1.027  -0.030  0.00  0.00    -0.490 OA
BRANCH  30  32
ATOM     31  C   UNL     1       0.235  -0.033   1.526  0.00  0.00    +0.048 C 
ATOM     32  C   UNL     1       0.066  -0.890   0.269  0.00  0.00    +0.226 C 
ENDBRANCH  30  32
ENDBRANCH  24  30
ENDBRANCH  18  29
ENDBRANCH   1  21
TORSDOF 5
