REMARK  Name = ZINC19323229
REMARK  16 active torsions:
REMARK  status: ('A' for Active; 'I' for Inactive)
REMARK    1  A    between atoms: C_1  and  C_2
REMARK    2  A    between atoms: C_2  and  C_3
REMARK    3  A    between atoms: C_3  and  C_4
REMARK    4  A    between atoms: C_7  and  C_30
REMARK    5  A    between atoms: C_11  and  C_16
REMARK    6  A    between atoms: C_16  and  O_18
REMARK    7  A    between atoms: C_16  and  C_19
REMARK    8  A    between atoms: C_19  and  O_21
REMARK    9  A    between atoms: C_19  and  C_22
REMARK   10  A    between atoms: C_22  and  O_24
REMARK   11  A    between atoms: C_22  and  C_25
REMARK   12  A    between atoms: C_25  and  O_27
REMARK   13  A    between atoms: C_25  and  C_28
REMARK   14  A    between atoms: C_28  and  O_29
REMARK   15  A    between atoms: C_30  and  C_31
REMARK   16  A    between atoms: C_31  and  C_32
REMARK                            x       y       z     vdW  Elec       q    Type
REMARK                         _______ _______ _______ _____ _____    ______ ____
ROOT
ATOM      1  C   UNL     1       0.006  -1.900   1.647  0.00  0.00    +0.028 C 
ATOM      2  C   UNL     1       0.651  -2.195   0.297  0.00  0.00    +0.144 C 
ATOM      3  O   UNL     1       0.927  -1.335  -0.505  0.00  0.00    -0.296 OA
ATOM      4  C   UNL     1       0.916  -3.677   0.054  0.00  0.00    +0.028 C 
ATOM      5  C   UNL     1       1.811  -4.157   1.207  0.00  0.00    -0.061 C 
ATOM      6  N   UNL     1       1.152  -3.904   2.490  0.00  0.00    +0.393 N 
ATOM      7  C   UNL     1       0.960  -2.448   2.719  0.00  0.00    -0.061 C 
ATOM      8  C   UNL     1      -0.127  -4.617   2.554  0.00  0.00    +0.034 C 
ATOM      9  N   UNL     1      -1.016  -4.121   1.493  0.00  0.00    -0.311 NA
ATOM     10  C   UNL     1      -0.441  -4.390   0.169  0.00  0.00    +0.095 C 
ATOM     11  C   UNL     1      -1.307  -2.698   1.716  0.00  0.00    +0.095 C 
ATOM     12  H   UNL     1       1.742  -4.261   3.226  0.00  0.00    -0.079 HD
ENDROOT
BRANCH   1  13
ATOM     13  C   UNL     1      -0.242  -0.401   1.834  0.00  0.00    +0.013 C 
BRANCH  13  15
ATOM     14  C   UNL     1      -1.442   1.596   0.933  0.00  0.00    +0.004 C 
ATOM     15  C   UNL     1      -1.195   0.098   0.746  0.00  0.00    -0.002 C 
ENDBRANCH  13  15
ENDBRANCH   1  13
BRANCH   8  16
ATOM     16  C   UNL     1       0.114  -6.115   2.358  0.00  0.00    +0.146 C 
BRANCH  16  17
ATOM     17  O   UNL     1      -1.141  -6.798   2.313  0.00  0.00    -0.390 OA
ATOM     18  H   UNL     1      -1.713  -6.618   3.071  0.00  0.00    +0.210 HD
ENDBRANCH  16  17
BRANCH  16  19
ATOM     19  C   UNL     1       0.947  -6.654   3.523  0.00  0.00    +0.173 C 
BRANCH  19  20
ATOM     20  O   UNL     1       2.249  -6.068   3.490  0.00  0.00    -0.387 OA
ATOM     21  H   UNL     1       2.742  -6.252   2.678  0.00  0.00    +0.210 HD
ENDBRANCH  19  20
BRANCH  19  22
ATOM     22  C   UNL     1       1.068  -8.175   3.403  0.00  0.00    +0.176 C 
BRANCH  22  23
ATOM     23  O   UNL     1      -0.235  -8.761   3.437  0.00  0.00    -0.387 OA
ATOM     24  H   UNL     1      -0.727  -8.578   4.248  0.00  0.00    +0.210 HD
ENDBRANCH  22  23
BRANCH  22  25
ATOM     25  C   UNL     1       1.901  -8.714   4.568  0.00  0.00    +0.171 C 
BRANCH  25  26
ATOM     26  O   UNL     1       3.203  -8.127   4.534  0.00  0.00    -0.387 OA
ATOM     27  H   UNL     1       3.696  -8.311   3.723  0.00  0.00    +0.210 HD
ENDBRANCH  25  26
BRANCH  25  28
ATOM     28  C   UNL     1       2.022 -10.234   4.448  0.00  0.00    +0.189 C 
BRANCH  28  29
ATOM     29  O   UNL     1       2.699 -10.750   5.596  0.00  0.00    -0.392 OA
ATOM     30  H   UNL     1       2.812 -11.710   5.587  0.00  0.00    +0.210 HD
ENDBRANCH  28  29
ENDBRANCH  25  28
ENDBRANCH  22  25
ENDBRANCH  19  22
ENDBRANCH  16  19
ENDBRANCH   8  16
BRANCH   4  31
ATOM     31  C   UNL     1       1.558  -3.914  -1.315  0.00  0.00    +0.013 C 
BRANCH  31  32
ATOM     32  C   UNL     1       0.622  -3.403  -2.412  0.00  0.00    -0.002 C 
ATOM     33  C   UNL     1       1.264  -3.639  -3.780  0.00  0.00    +0.004 C 
ENDBRANCH  31  32
ENDBRANCH   4  31
TORSDOF 14
