REMARK  Name = ZINC11996029
REMARK  11 active torsions:
REMARK  status: ('A' for Active; 'I' for Inactive)
REMARK    1  A    between atoms: C_1  and  C_2
REMARK    2  A    between atoms: C_2  and  C_20
REMARK    3  A    between atoms: N_5  and  C_9
REMARK    4  A    between atoms: C_9  and  C_10
REMARK    5  A    between atoms: C_14  and  O_18
REMARK    6  A    between atoms: C_15  and  O_16
REMARK    7  A    between atoms: O_16  and  C_17
REMARK    8  A    between atoms: O_18  and  C_19
REMARK    9  A    between atoms: C_25  and  C_26
REMARK   10  A    between atoms: C_25  and  N_64
REMARK   11  A    between atoms: C_30  and  O_32
REMARK                            x       y       z     vdW  Elec       q    Type
REMARK                         _______ _______ _______ _____ _____    ______ ____
ROOT
ATOM      1  C   UNL     1      -4.072   6.458  -3.569  0.00  0.00    +0.042 C 
ATOM      2  C   UNL     1      -3.157   5.251  -3.351  0.00  0.00    +0.112 C 
ATOM      3  C   UNL     1      -2.514   5.315  -1.980  0.00  0.00    +0.247 C 
ATOM      4  O   UNL     1      -1.774   6.178  -1.558  0.00  0.00    -0.273 OA
ATOM      5  N   UNL     1      -2.933   4.212  -1.329  0.00  0.00    -0.220 N 
ATOM      6  C   UNL     1      -3.749   3.471  -2.088  0.00  0.00    +0.310 C 
ATOM      7  O   UNL     1      -4.258   2.432  -1.718  0.00  0.00    -0.252 OA
ATOM      8  N   UNL     1      -3.944   4.007  -3.307  0.00  0.00    -0.285 N 
ATOM      9  H   UNL     1      -4.494   3.643  -4.019  0.00  0.00    +0.151 HD
ENDROOT
BRANCH   2  10
ATOM     10  C   UNL     1      -2.092   5.176  -4.447  0.00  0.00    +0.018 C 
ATOM     11  C   UNL     1      -1.193   6.413  -4.372  0.00  0.00    -0.013 C 
ATOM     12  C   UNL     1      -0.169   6.363  -5.508  0.00  0.00    -0.078 C 
ATOM     13  C   UNL     1      -1.702   5.118  -6.913  0.00  0.00    -0.078 C 
ATOM     14  C   UNL     1      -2.772   5.132  -5.819  0.00  0.00    -0.013 C 
ATOM     15  N   UNL     1      -0.886   6.346  -6.801  0.00  0.00    +0.382 N 
ATOM     16  H   UNL     1      -1.506   7.163  -6.848  0.00  0.00    -0.081 HD
BRANCH  15  17
ATOM     17  C   UNL     1       0.082   6.413  -7.916  0.00  0.00    -0.043 C 
BRANCH  17  18
ATOM     18  C   UNL     1       1.076   7.512  -7.642  0.00  0.00    -0.061 A 
ATOM     19  C   UNL     1       2.250   7.229  -6.969  0.00  0.00    +0.002 A 
ATOM     20  C   UNL     1       3.164   8.235  -6.716  0.00  0.00    +0.004 A 
ATOM     21  C   UNL     1       2.906   9.526  -7.136  0.00  0.00    +0.045 A 
ATOM     22  C   UNL     1       1.729   9.812  -7.811  0.00  0.00    +0.117 A 
ATOM     23  C   UNL     1       0.816   8.799  -8.068  0.00  0.00    +0.047 A 
BRANCH  22  24
ATOM     24  O   UNL     1       1.473  11.081  -8.225  0.00  0.00    -0.507 OA
ATOM     25  H   UNL     1       1.799  11.278  -9.114  0.00  0.00    +0.292 HD
ENDBRANCH  22  24
ENDBRANCH  17  18
ENDBRANCH  15  17
ENDBRANCH   2  10
BRANCH   5  26
ATOM     26  C   UNL     1      -2.547   3.869   0.042  0.00  0.00    +0.157 C 
BRANCH  26  27
ATOM     27  C   UNL     1      -1.243   3.115   0.023  0.00  0.00    +0.016 A 
ATOM     28  C   UNL     1      -0.061   3.770   0.317  0.00  0.00    +0.009 A 
ATOM     29  C   UNL     1       1.138   3.083   0.295  0.00  0.00    +0.004 A 
ATOM     30  C   UNL     1       1.159   1.734  -0.010  0.00  0.00    +0.049 A 
ATOM     31  C   UNL     1      -0.021   1.070  -0.300  0.00  0.00    +0.162 A 
ATOM     32  C   UNL     1      -1.228   1.764  -0.283  0.00  0.00    +0.166 A 
BRANCH  32  33
ATOM     33  O   UNL     1      -2.390   1.117  -0.568  0.00  0.00    -0.491 OA
ATOM     34  C   UNL     1      -3.030   0.429   0.509  0.00  0.00    +0.277 C 
ENDBRANCH  32  33
BRANCH  31  35
ATOM     35  O   UNL     1      -0.001  -0.256  -0.600  0.00  0.00    -0.491 OA
ATOM     36  C   UNL     1       1.273  -0.902  -0.599  0.00  0.00    +0.277 C 
ENDBRANCH  31  35
ENDBRANCH  26  27
ENDBRANCH   5  26
TORSDOF 8
