REMARK  Name = ZINC00084243
REMARK  5 active torsions:
REMARK  status: ('A' for Active; 'I' for Inactive)
REMARK    1  A    between atoms: C_3  and  N_10
REMARK    2  A    between atoms: C_5  and  N_7
REMARK    3  A    between atoms: C_14  and  C_15
REMARK    4  A    between atoms: C_16  and  C_17
REMARK    5  A    between atoms: C_16  and  C_19
REMARK                            x       y       z     vdW  Elec       q    Type
REMARK                         _______ _______ _______ _____ _____    ______ ____
ROOT
ATOM      1  N   UNL     1      -0.087   5.253   0.043  0.00  0.00    -0.316 N 
ATOM      2  C   UNL     1       0.472   6.051   0.988  0.00  0.00    +0.092 A 
ATOM      3  C   UNL     1       0.148   7.343   0.723  0.00  0.00    +0.020 A 
ATOM      4  C   UNL     1      -0.641   7.363  -0.427  0.00  0.00    +0.027 A 
ATOM      5  C   UNL     1      -0.779   6.048  -0.850  0.00  0.00    +0.048 A 
ENDROOT
BRANCH   1   8
ATOM      6  C   UNL     1      -1.005   1.695  -0.123  0.00  0.00    +0.004 A 
ATOM      7  C   UNL     1      -1.118   3.070  -0.055  0.00  0.00    +0.026 A 
ATOM      8  C   UNL     1       0.024   3.858  -0.020  0.00  0.00    +0.049 A 
ATOM      9  C   UNL     1       1.278   3.261  -0.047  0.00  0.00    +0.058 A 
ATOM     10  C   UNL     1       1.384   1.885  -0.109  0.00  0.00    +0.128 A 
ATOM     11  C   UNL     1       0.244   1.103  -0.144  0.00  0.00    +0.033 A 
BRANCH  10  12
ATOM     12  N   UNL     1       2.720   1.248  -0.137  0.00  0.00    +0.056 N 
ATOM     13  O   UNL     1       2.814   0.035  -0.193  0.00  0.00    -0.126 OA
ATOM     14  O   UNL     1       3.724   1.936  -0.106  0.00  0.00    -0.126 OA
ENDBRANCH  10  12
ENDBRANCH   1   8
BRANCH   5  15
ATOM     15  C   UNL     1      -1.494   5.606  -1.978  0.00  0.00    +0.050 C 
ATOM     16  C   UNL     1      -2.018   6.527  -2.872  0.00  0.00    +0.115 C 
BRANCH  16  17
ATOM     17  C   UNL     1      -2.908   6.080  -3.951  0.00  0.00    +0.252 C 
ATOM     18  O   UNL     1      -3.187   4.900  -4.060  0.00  0.00    -0.270 OA
ATOM     19  N   UNL     1      -3.417   6.976  -4.820  0.00  0.00    -0.325 N 
ATOM     20  H   UNL     1      -3.195   7.916  -4.732  0.00  0.00    +0.145 HD
ATOM     21  H   UNL     1      -4.005   6.680  -5.532  0.00  0.00    +0.145 HD
ENDBRANCH  16  17
BRANCH  16  22
ATOM     22  C   UNL     1      -1.690   7.915  -2.744  0.00  0.00    +0.104 C 
ATOM     23  N   UNL     1      -1.430   9.016  -2.642  0.00  0.00    -0.191 NA
ENDBRANCH  16  22
ENDBRANCH   5  15
TORSDOF 5
