REMARK  Name = ZINC06190958
REMARK  14 active torsions:
REMARK  status: ('A' for Active; 'I' for Inactive)
REMARK    1  A    between atoms: C_1  and  C_2
REMARK    2  A    between atoms: C_2  and  C_38
REMARK    3  A    between atoms: N_5  and  C_9
REMARK    4  A    between atoms: C_9  and  C_10
REMARK    5  A    between atoms: C_10  and  C_12
REMARK    6  A    between atoms: C_10  and  O_37
REMARK    7  A    between atoms: C_12  and  N_13
REMARK    8  A    between atoms: N_20  and  C_23
REMARK    9  A    between atoms: C_23  and  C_24
REMARK   10  A    between atoms: C_24  and  C_26
REMARK   11  A    between atoms: C_24  and  O_36
REMARK   12  A    between atoms: C_26  and  N_27
REMARK   13  A    between atoms: C_30  and  C_34
REMARK   14  A    between atoms: C_30  and  C_35
REMARK                            x       y       z     vdW  Elec       q    Type
REMARK                         _______ _______ _______ _____ _____    ______ ____
ROOT
ATOM      1  N   UNL     1      -2.264   4.076   0.044  0.00  0.00    -0.289 N 
ATOM      2  C   UNL     1      -1.238   3.134   0.030  0.00  0.00    +0.070 A 
ATOM      3  C   UNL     1      -1.220   1.747   0.017  0.00  0.00    +0.028 A 
ATOM      4  C   UNL     1      -0.013   1.076   0.008  0.00  0.00    +0.002 A 
ATOM      5  C   UNL     1       1.179   1.781   0.000  0.00  0.00    +0.002 A 
ATOM      6  C   UNL     1       1.170   3.162   0.007  0.00  0.00    +0.028 A 
ATOM      7  C   UNL     1      -0.037   3.845   0.022  0.00  0.00    +0.070 A 
ATOM      8  N   UNL     1      -0.370   5.197   0.031  0.00  0.00    -0.289 N 
ATOM      9  C   UNL     1      -1.712   5.304   0.044  0.00  0.00    +0.330 A 
ATOM     10  O   UNL     1      -2.332   6.351   0.054  0.00  0.00    -0.246 OA
ENDROOT
BRANCH   1  11
ATOM     11  C   UNL     1      -3.699   3.781   0.056  0.00  0.00    +0.159 C 
BRANCH  11  12
ATOM     12  C   UNL     1      -4.184   3.672   1.503  0.00  0.00    +0.152 C 
BRANCH  12  13
ATOM     13  O   UNL     1      -4.054   4.941   2.146  0.00  0.00    -0.388 OA
ATOM     14  H   UNL     1      -4.563   5.649   1.726  0.00  0.00    +0.210 HD
ENDBRANCH  12  13
BRANCH  12  15
ATOM     15  C   UNL     1      -5.653   3.242   1.517  0.00  0.00    +0.151 C 
BRANCH  15  20
ATOM     16  C   UNL     1      -5.595   2.207   6.099  0.00  0.00    +0.041 C 
ATOM     17  C   UNL     1      -6.637   2.373   4.992  0.00  0.00    +0.107 C 
ATOM     18  C   UNL     1      -6.049   2.013   3.642  0.00  0.00    +0.246 C 
ATOM     19  O   UNL     1      -5.608   0.937   3.299  0.00  0.00    -0.273 OA
ATOM     20  N   UNL     1      -6.118   3.138   2.902  0.00  0.00    -0.222 N 
ATOM     21  C   UNL     1      -6.668   4.146   3.588  0.00  0.00    +0.309 C 
ATOM     22  O   UNL     1      -6.840   5.259   3.132  0.00  0.00    -0.252 OA
ATOM     23  N   UNL     1      -7.010   3.790   4.840  0.00  0.00    -0.285 N 
ATOM     24  C   UNL     1      -7.873   1.519   5.281  0.00  0.00    +0.041 C 
ATOM     25  H   UNL     1      -7.422   4.356   5.511  0.00  0.00    +0.151 HD
ENDBRANCH  15  20
ENDBRANCH  12  15
ENDBRANCH  11  12
ENDBRANCH   1  11
BRANCH   8  26
ATOM     26  C   UNL     1       0.579   6.314   0.027  0.00  0.00    +0.159 C 
BRANCH  26  27
ATOM     27  C   UNL     1       0.896   6.709  -1.416  0.00  0.00    +0.152 C 
BRANCH  27  28
ATOM     28  O   UNL     1      -0.285   7.214  -2.042  0.00  0.00    -0.388 OA
ATOM     29  H   UNL     1      -0.658   7.994  -1.608  0.00  0.00    +0.210 HD
ENDBRANCH  27  28
BRANCH  27  30
ATOM     30  C   UNL     1       1.979   7.790  -1.423  0.00  0.00    +0.151 C 
BRANCH  30  31
ATOM     31  N   UNL     1       2.282   8.168  -2.805  0.00  0.00    -0.222 N 
ATOM     32  C   UNL     1       3.230   7.579  -3.561  0.00  0.00    +0.246 C 
ATOM     33  O   UNL     1       3.964   6.670  -3.237  0.00  0.00    -0.273 OA
ATOM     34  C   UNL     1       3.186   8.287  -4.900  0.00  0.00    +0.107 C 
ATOM     35  N   UNL     1       2.124   9.293  -4.725  0.00  0.00    -0.285 N 
ATOM     36  C   UNL     1       1.657   9.146  -3.472  0.00  0.00    +0.309 C 
ATOM     37  O   UNL     1       0.768   9.825  -2.998  0.00  0.00    -0.252 OA
ATOM     38  C   UNL     1       2.822   7.310  -6.020  0.00  0.00    +0.041 C 
ATOM     39  C   UNL     1       4.526   8.965  -5.191  0.00  0.00    +0.041 C 
ATOM     40  H   UNL     1       1.820   9.937  -5.384  0.00  0.00    +0.151 HD
ENDBRANCH  30  31
ENDBRANCH  27  30
ENDBRANCH  26  27
ENDBRANCH   8  26
TORSDOF 10
