REMARK  Name = ZINC34131951
REMARK  9 active torsions:
REMARK  status: ('A' for Active; 'I' for Inactive)
REMARK    1  A    between atoms: C_1  and  C_2
REMARK    2  A    between atoms: C_2  and  C_3
REMARK    3  A    between atoms: C_3  and  C_4
REMARK    4  A    between atoms: N_17  and  C_18
REMARK    5  A    between atoms: C_20  and  O_33
REMARK    6  A    between atoms: O_33  and  C_34
REMARK    7  A    between atoms: C_34  and  C_36
REMARK    8  A    between atoms: C_36  and  C_37
REMARK    9  A    between atoms: C_37  and  C_38
REMARK                            x       y       z     vdW  Elec       q    Type
REMARK                         _______ _______ _______ _____ _____    ______ ____
ROOT
ATOM      1  C   UNL     1      -0.882  -2.261   1.305  0.00  0.00    +0.219 C 
ATOM      2  O   UNL     1       0.129  -2.846   0.978  0.00  0.00    -0.275 OA
ATOM      3  N   UNL     1      -2.065  -2.907   1.300  0.00  0.00    -0.256 N 
ATOM      4  C   UNL     1      -2.113  -4.256   1.020  0.00  0.00    +0.204 A 
ATOM      5  N   UNL     1      -1.012  -4.871   0.656  0.00  0.00    -0.196 NA
ATOM      6  H   UNL     1      -4.095  -4.430   1.411  0.00  0.00    +0.172 HD
ATOM      7  C   UNL     1      -1.010  -6.180   0.375  0.00  0.00    +0.171 A 
ATOM      8  C   UNL     1      -2.200  -6.910   0.469  0.00  0.00    +0.172 A 
ATOM      9  C   UNL     1      -3.379  -6.235   0.863  0.00  0.00    +0.280 A 
ATOM     10  O   UNL     1      -4.439  -6.831   0.959  0.00  0.00    -0.265 OA
ATOM     11  N   UNL     1      -3.301  -4.913   1.136  0.00  0.00    -0.293 N 
ATOM     12  N   UNL     1      -1.913  -8.191   0.134  0.00  0.00    -0.229 NA
ATOM     13  C   UNL     1      -0.647  -8.288  -0.154  0.00  0.00    +0.204 A 
ATOM     14  N   UNL     1      -0.048  -7.070  -0.019  0.00  0.00    -0.284 N 
ATOM     15  H   UNL     1      -2.882  -2.422   1.493  0.00  0.00    +0.158 HD
ENDROOT
BRANCH  14  16
ATOM     16  C   UNL     1       1.367  -6.769  -0.254  0.00  0.00    +0.266 C 
ATOM     17  C   UNL     1       1.570  -6.298  -1.715  0.00  0.00    +0.258 C 
ATOM     18  C   UNL     1       2.509  -7.360  -2.301  0.00  0.00    +0.206 C 
ATOM     19  C   UNL     1       3.227  -7.858  -1.017  0.00  0.00    +0.180 C 
ATOM     20  O   UNL     1       2.162  -7.967  -0.073  0.00  0.00    -0.344 OA
ATOM     21  C   UNL     1       3.968  -9.143  -1.332  0.00  0.00    +0.206 C 
ATOM     22  O   UNL     1       5.036  -8.795  -2.246  0.00  0.00    -0.282 OA
ATOM     23  P   UNL     1       4.724  -7.904  -3.566  0.00  0.00    +0.505 P 
ATOM     24  O   UNL     1       5.990  -7.125  -3.989  0.00  0.00    -0.225 OA
ATOM     25  O   UNL     1       3.522  -6.846  -3.171  0.00  0.00    -0.275 OA
ATOM     26  O   UNL     1       4.257  -8.817  -4.721  0.00  0.00    -0.116 OA
BRANCH  17  27
ATOM     27  O   UNL     1       2.182  -5.007  -1.748  0.00  0.00    -0.454 OA
BRANCH  27  28
ATOM     28  C   UNL     1       1.364  -3.947  -1.851  0.00  0.00    +0.308 C 
ATOM     29  O   UNL     1       0.166  -4.105  -1.830  0.00  0.00    -0.251 OA
BRANCH  28  30
ATOM     30  C   UNL     1       1.939  -2.562  -1.991  0.00  0.00    +0.120 C 
BRANCH  30  31
ATOM     31  C   UNL     1       0.802  -1.539  -2.038  0.00  0.00    +0.008 C 
ATOM     32  C   UNL     1       1.379  -0.147  -2.302  0.00  0.00    +0.004 C 
ENDBRANCH  30  31
ENDBRANCH  28  30
ENDBRANCH  27  28
ENDBRANCH  17  27
ENDBRANCH  14  16
BRANCH   1  33
ATOM     33  C   UNL     1      -0.815  -0.813   1.716  0.00  0.00    +0.096 C 
BRANCH  33  35
ATOM     34  C   UNL     1       0.657   1.202   1.839  0.00  0.00    +0.004 C 
ATOM     35  C   UNL     1       0.615  -0.298   1.538  0.00  0.00    +0.006 C 
ENDBRANCH  33  35
ENDBRANCH   1  33
TORSDOF 7
