REMARK  Name = ZINC39665298
REMARK  9 active torsions:
REMARK  status: ('A' for Active; 'I' for Inactive)
REMARK    1  A    between atoms: C_1  and  C_2
REMARK    2  A    between atoms: C_5  and  C_9
REMARK    3  A    between atoms: C_7  and  C_8
REMARK    4  A    between atoms: C_13  and  C_22
REMARK    5  A    between atoms: N_24  and  C_25
REMARK    6  A    between atoms: C_25  and  C_26
REMARK    7  A    between atoms: C_26  and  C_28
REMARK    8  A    between atoms: C_26  and  O_29
REMARK    9  A    between atoms: O_29  and  C_30
REMARK                            x       y       z     vdW  Elec       q    Type
REMARK                         _______ _______ _______ _____ _____    ______ ____
ROOT
ATOM      1  C   UNL     1      -0.067  -3.859  -0.131  0.00  0.00    +0.247 C 
ATOM      2  O   UNL     1       0.040  -4.417   0.944  0.00  0.00    -0.270 OA
ATOM      3  N   UNL     1      -0.147  -4.586  -1.263  0.00  0.00    -0.296 N 
ATOM      4  C   UNL     1      -0.150  -4.093  -2.660  0.00  0.00    +0.121 C 
ATOM      5  C   UNL     1       0.708  -5.116  -3.437  0.00  0.00    +0.100 C 
ATOM      6  C   UNL     1       0.636  -6.405  -2.600  0.00  0.00    -0.004 C 
ATOM      7  C   UNL     1      -0.245  -6.060  -1.391  0.00  0.00    +0.115 C 
ATOM      8  C   UNL     1       0.003  -7.529  -3.414  0.00  0.00    -0.010 C 
ATOM      9  C   UNL     1      -0.005  -8.814  -2.581  0.00  0.00    -0.082 C 
ATOM     10  N   UNL     1       1.371  -9.167  -2.210  0.00  0.00    +0.379 N 
ATOM     11  C   UNL     1       1.941  -8.123  -1.350  0.00  0.00    -0.082 C 
ATOM     12  C   UNL     1       2.031  -6.809  -2.131  0.00  0.00    -0.010 C 
ATOM     13  H   UNL     1       1.369 -10.046  -1.714  0.00  0.00    -0.086 HD
ATOM     14  H   UNL     1       1.930  -9.256  -3.045  0.00  0.00    -0.086 HD
ENDROOT
BRANCH   1  19
ATOM     15  C   UNL     1      -0.231   1.888  -0.384  0.00  0.00    +0.044 C 
ATOM     16  C   UNL     1      -0.188   0.383  -0.318  0.00  0.00    -0.047 A 
ATOM     17  C   UNL     1      -0.726  -0.368  -1.348  0.00  0.00    +0.004 A 
ATOM     18  C   UNL     1      -0.690  -1.745  -1.294  0.00  0.00    +0.013 A 
ATOM     19  C   UNL     1      -0.109  -2.382  -0.196  0.00  0.00    +0.037 A 
ATOM     20  C   UNL     1       0.432  -1.619   0.840  0.00  0.00    +0.016 A 
ATOM     21  C   UNL     1       0.394  -0.242   0.770  0.00  0.00    -0.047 A 
ATOM     22  C   UNL     1       0.983   0.584   1.885  0.00  0.00    +0.044 C 
ENDBRANCH   1  19
BRANCH   5  23
ATOM     23  C   UNL     1       0.134  -5.348  -4.811  0.00  0.00    +0.218 C 
ATOM     24  O   UNL     1      -1.046  -5.159  -5.015  0.00  0.00    -0.275 OA
ATOM     25  N   UNL     1       0.933  -5.765  -5.814  0.00  0.00    -0.312 N 
ATOM     26  H   UNL     1       1.877  -5.916  -5.651  0.00  0.00    +0.149 HD
BRANCH  25  27
ATOM     27  C   UNL     1       0.375  -5.989  -7.149  0.00  0.00    +0.148 C 
BRANCH  27  28
ATOM     28  C   UNL     1       1.484  -6.455  -8.094  0.00  0.00    +0.187 C 
ATOM     29  C   UNL     1       0.902  -6.690  -9.489  0.00  0.00    +0.053 C 
BRANCH  28  30
ATOM     30  O   UNL     1       2.501  -5.454  -8.165  0.00  0.00    -0.488 OA
BRANCH  30  31
ATOM     31  C   UNL     1       3.780  -5.883  -8.334  0.00  0.00    +0.121 A 
ATOM     32  C   UNL     1       4.830  -4.979  -8.271  0.00  0.00    +0.045 A 
ATOM     33  C   UNL     1       6.129  -5.418  -8.443  0.00  0.00    +0.004 A 
ATOM     34  C   UNL     1       6.382  -6.757  -8.678  0.00  0.00    +0.000 A 
ATOM     35  C   UNL     1       5.336  -7.659  -8.742  0.00  0.00    +0.004 A 
ATOM     36  C   UNL     1       4.036  -7.226  -8.565  0.00  0.00    +0.045 A 
ENDBRANCH  30  31
ENDBRANCH  28  30
ENDBRANCH  27  28
ENDBRANCH  25  27
ENDBRANCH   5  23
TORSDOF 6
