REMARK  Name = ZINC23635449
REMARK  7 active torsions:
REMARK  status: ('A' for Active; 'I' for Inactive)
REMARK    1  A    between atoms: C_1  and  C_2
REMARK    2  A    between atoms: C_3  and  C_33
REMARK    3  A    between atoms: N_9  and  C_28
REMARK    4  A    between atoms: C_10  and  S_12
REMARK    5  A    between atoms: S_12  and  C_13
REMARK    6  A    between atoms: C_13  and  C_15
REMARK    7  A    between atoms: C_13  and  C_16
REMARK                            x       y       z     vdW  Elec       q    Type
REMARK                         _______ _______ _______ _____ _____    ______ ____
ROOT
ATOM      1  C   UNL     1      -0.553 -11.815  -1.218  0.00  0.00    +0.045 C 
ATOM      2  C   UNL     1       0.274 -10.649  -0.740  0.00  0.00    -0.026 A 
ATOM      3  C   UNL     1       1.507 -10.848  -0.252  0.00  0.00    -0.008 A 
ATOM      4  S   UNL     1       2.056  -9.205   0.168  0.00  0.00    -0.073 S 
ATOM      5  C   UNL     1       0.613  -8.298  -0.325  0.00  0.00    +0.117 A 
ATOM      6  C   UNL     1      -0.256  -9.298  -0.801  0.00  0.00    +0.075 A 
ATOM      7  C   UNL     1      -1.527  -8.844  -1.275  0.00  0.00    +0.263 A 
ATOM      8  O   UNL     1      -2.344  -9.639  -1.707  0.00  0.00    -0.267 OA
ATOM      9  N   UNL     1      -1.808  -7.529  -1.238  0.00  0.00    -0.284 N 
ATOM     10  C   UNL     1      -0.906  -6.625  -0.758  0.00  0.00    +0.174 A 
ATOM     11  N   UNL     1       0.274  -7.014  -0.320  0.00  0.00    -0.216 NA
ATOM     12  C   UNL     1       2.251 -12.149  -0.095  0.00  0.00    +0.052 C 
ENDROOT
BRANCH   9  13
ATOM     13  C   UNL     1      -3.109  -7.058  -1.722  0.00  0.00    +0.093 C 
ATOM     14  C   UNL     1      -4.245  -7.745  -0.936  0.00  0.00    +0.025 C 
ATOM     15  C   UNL     1      -5.350  -7.982  -1.996  0.00  0.00    +0.002 C 
ATOM     16  C   UNL     1      -4.537  -8.362  -3.259  0.00  0.00    +0.002 C 
ATOM     17  C   UNL     1      -3.295  -7.449  -3.198  0.00  0.00    +0.025 C 
ENDBRANCH   9  13
BRANCH  10  18
ATOM     18  S   UNL     1      -1.321  -4.912  -0.730  0.00  0.00    -0.077 S 
BRANCH  18  19
ATOM     19  C   UNL     1       0.198  -4.232  -0.020  0.00  0.00    +0.117 C 
ATOM     20  C   UNL     1       0.365  -4.742   1.413  0.00  0.00    +0.027 C 
BRANCH  19  21
ATOM     21  C   UNL     1       0.119  -2.727  -0.012  0.00  0.00    +0.124 A 
ATOM     22  N   UNL     1      -1.110  -2.147   0.003  0.00  0.00    -0.309 N 
ATOM     23  H   UNL     1      -2.014  -2.773   0.009  0.00  0.00    +0.170 HD
ATOM     24  C   UNL     1      -1.235  -0.799   0.011  0.00  0.00    +0.259 A 
ATOM     25  O   UNL     1      -2.329  -0.266   0.024  0.00  0.00    -0.267 OA
ATOM     26  C   UNL     1       0.002  -0.004   0.002  0.00  0.00    +0.065 A 
ATOM     27  C   UNL     1      -0.017   1.389   0.010  0.00  0.00    +0.015 A 
ATOM     28  C   UNL     1       1.173   2.084   0.002  0.00  0.00    +0.001 A 
ATOM     29  C   UNL     1       2.386   1.408  -0.014  0.00  0.00    +0.002 A 
ATOM     30  C   UNL     1       2.426   0.032  -0.021  0.00  0.00    +0.028 A 
ATOM     31  C   UNL     1       1.234  -0.695  -0.013  0.00  0.00    +0.078 A 
ATOM     32  N   UNL     1       1.227  -2.051  -0.020  0.00  0.00    -0.233 NA
ENDBRANCH  19  21
ENDBRANCH  18  19
ENDBRANCH  10  18
TORSDOF 4
