REMARK  Name = ZINC67588201
REMARK  7 active torsions:
REMARK  status: ('A' for Active; 'I' for Inactive)
REMARK    1  A    between atoms: C_1  and  C_2
REMARK    2  A    between atoms: N_7  and  C_10
REMARK    3  A    between atoms: C_10  and  C_11
REMARK    4  A    between atoms: C_11  and  O_26
REMARK    5  A    between atoms: N_15  and  C_18
REMARK    6  A    between atoms: C_18  and  C_19
REMARK    7  A    between atoms: C_19  and  C_20
REMARK                            x       y       z     vdW  Elec       q    Type
REMARK                         _______ _______ _______ _____ _____    ______ ____
ROOT
ATOM      1  C   UNL     1      -7.070   4.239  -2.386  0.00  0.00    +0.127 C 
ATOM      2  C   UNL     1      -8.407   4.441  -1.669  0.00  0.00    +0.044 C 
ATOM      3  C   UNL     1      -8.769   5.930  -1.730  0.00  0.00    +0.022 C 
ATOM      4  C   UNL     1      -7.769   6.713  -0.878  0.00  0.00    +0.108 C 
ATOM      5  N   UNL     1      -6.403   6.356  -1.238  0.00  0.00    -0.299 N 
ATOM      6  C   UNL     1      -6.069   5.244  -1.893  0.00  0.00    +0.245 C 
ATOM      7  O   UNL     1      -4.893   5.032  -2.102  0.00  0.00    -0.273 OA
ENDROOT
BRANCH   1   8
ATOM      8  O   UNL     1      -7.258   4.406  -3.792  0.00  0.00    -0.381 OA
ATOM      9  H   UNL     1      -7.585   5.280  -4.045  0.00  0.00    +0.211 HD
ENDBRANCH   1   8
BRANCH   1  10
ATOM     10  C   UNL     1      -6.553   2.826  -2.106  0.00  0.00    -0.034 C 
BRANCH  10  17
ATOM     11  C   UNL     1      -7.228  -3.062  -5.997  0.00  0.00    +0.080 C 
ATOM     12  C   UNL     1      -8.039  -2.174  -5.089  0.00  0.00    +0.085 C 
ATOM     13  N   UNL     1      -7.544  -1.071  -4.490  0.00  0.00    -0.321 N 
ATOM     14  C   UNL     1      -8.652  -0.510  -3.707  0.00  0.00    +0.108 C 
ATOM     15  C   UNL     1      -8.306  -0.490  -2.222  0.00  0.00    +0.016 C 
ATOM     16  C   UNL     1      -7.176   0.516  -1.979  0.00  0.00    -0.076 C 
ATOM     17  N   UNL     1      -7.602   1.849  -2.423  0.00  0.00    +0.382 N 
ATOM     18  C   UNL     1      -7.842   1.842  -3.871  0.00  0.00    -0.076 C 
ATOM     19  C   UNL     1      -8.999   0.893  -4.194  0.00  0.00    +0.016 C 
ATOM     20  C   UNL     1      -9.793  -1.464  -3.974  0.00  0.00    +0.261 C 
ATOM     21  O   UNL     1     -10.924  -1.402  -3.534  0.00  0.00    -0.271 OA
ATOM     22  N   UNL     1      -9.293  -2.388  -4.804  0.00  0.00    -0.169 NA
ATOM     23  H   UNL     1      -6.642  -0.722  -4.562  0.00  0.00    +0.148 HD
ATOM     24  H   UNL     1      -8.452   2.105  -1.944  0.00  0.00    -0.082 HD
ENDBRANCH  10  17
ENDBRANCH   1  10
BRANCH   5  25
ATOM     25  C   UNL     1      -5.329   7.277  -0.857  0.00  0.00    +0.112 C 
BRANCH  25  26
ATOM     26  C   UNL     1      -4.806   6.904   0.531  0.00  0.00    +0.054 C 
BRANCH  26  27
ATOM     27  C   UNL     1      -3.702   7.852   0.923  0.00  0.00    -0.046 A 
ATOM     28  C   UNL     1      -2.391   7.558   0.598  0.00  0.00    +0.004 A 
ATOM     29  C   UNL     1      -1.378   8.427   0.958  0.00  0.00    +0.000 A 
ATOM     30  C   UNL     1      -1.676   9.590   1.642  0.00  0.00    +0.000 A 
ATOM     31  C   UNL     1      -2.987   9.885   1.966  0.00  0.00    +0.000 A 
ATOM     32  C   UNL     1      -4.000   9.018   1.603  0.00  0.00    +0.004 A 
ENDBRANCH  26  27
ENDBRANCH  25  26
ENDBRANCH   5  25
TORSDOF 6
