REMARK  Name = ZINC06664269
REMARK  5 active torsions:
REMARK  status: ('A' for Active; 'I' for Inactive)
REMARK    1  A    between atoms: C_1  and  C_2
REMARK    2  A    between atoms: C_2  and  C_3
REMARK    3  A    between atoms: C_2  and  C_4
REMARK    4  A    between atoms: C_4  and  C_6
REMARK    5  A    between atoms: C_4  and  N_16
REMARK                            x       y       z     vdW  Elec       q    Type
REMARK                         _______ _______ _______ _____ _____    ______ ____
ROOT
ATOM      1  C   UNL     1      -0.013   1.086   0.008  0.00  0.00    +0.140 C 
ENDROOT
BRANCH   1   2
ATOM      2  N   UNL     1      -0.698   1.558   1.213  0.00  0.00    -0.318 N 
ATOM      3  C   UNL     1      -1.769   0.846   1.724  0.00  0.00    +0.131 A 
ATOM      4  C   UNL     1      -2.438   1.292   2.897  0.00  0.00    +0.051 A 
ATOM      5  C   UNL     1      -2.160   2.486   3.711  0.00  0.00    -0.025 A 
ATOM      6  C   UNL     1      -2.952   2.692   4.776  0.00  0.00    -0.004 A 
ATOM      7  S   UNL     1      -4.104   1.337   4.766  0.00  0.00    -0.073 S 
ATOM      8  C   UNL     1      -3.516   0.494   3.322  0.00  0.00    +0.114 A 
ATOM      9  N   UNL     1      -3.863  -0.600   2.671  0.00  0.00    -0.228 NA
ATOM     10  C   UNL     1      -3.200  -0.968   1.592  0.00  0.00    +0.224 A 
ATOM     11  N   UNL     1      -2.182  -0.263   1.132  0.00  0.00    -0.220 NA
ATOM     12  C   UNL     1      -2.574   3.938   5.532  0.00  0.00    +0.043 C 
ATOM     13  C   UNL     1      -1.695   4.738   4.546  0.00  0.00    +0.010 C 
ATOM     14  C   UNL     1      -1.130   3.618   3.651  0.00  0.00    +0.037 C 
ATOM     15  H   UNL     1      -0.402   2.370   1.653  0.00  0.00    +0.148 HD
ENDBRANCH   1   2
BRANCH   1  16
ATOM     16  C   UNL     1       1.401   1.607  -0.003  0.00  0.00    +0.129 A 
ATOM     17  N   UNL     1       1.979   2.314   1.006  0.00  0.00    -0.340 N 
ATOM     18  H   UNL     1       1.548   2.574   1.870  0.00  0.00    +0.167 HD
ATOM     19  C   UNL     1       3.271   2.605   0.616  0.00  0.00    +0.066 A 
ATOM     20  C   UNL     1       4.328   3.285   1.205  0.00  0.00    +0.028 A 
ATOM     21  C   UNL     1       5.525   3.402   0.530  0.00  0.00    +0.002 A 
ATOM     22  C   UNL     1       5.678   2.845  -0.731  0.00  0.00    +0.002 A 
ATOM     23  C   UNL     1       4.649   2.172  -1.326  0.00  0.00    +0.030 A 
ATOM     24  C   UNL     1       3.427   2.041  -0.661  0.00  0.00    +0.089 A 
ATOM     25  N   UNL     1       2.249   1.443  -0.976  0.00  0.00    -0.231 NA
ENDBRANCH   1  16
BRANCH   1  27
ATOM     26  C   UNL     1      -0.037   1.099  -2.490  0.00  0.00    +0.009 C 
ATOM     27  C   UNL     1      -0.753   1.593  -1.232  0.00  0.00    +0.011 C 
ATOM     28  C   UNL     1      -2.188   1.063  -1.221  0.00  0.00    +0.009 C 
ENDBRANCH   1  27
TORSDOF 3
