REMARK  Name = ZINC14535030
REMARK  7 active torsions:
REMARK  status: ('A' for Active; 'I' for Inactive)
REMARK    1  A    between atoms: C_1  and  C_2
REMARK    2  A    between atoms: C_2  and  C_3
REMARK    3  A    between atoms: C_2  and  C_4
REMARK    4  A    between atoms: C_4  and  N_5
REMARK    5  A    between atoms: N_8  and  C_29
REMARK    6  A    between atoms: C_16  and  C_17
REMARK    7  A    between atoms: C_16  and  N_57
REMARK                            x       y       z     vdW  Elec       q    Type
REMARK                         _______ _______ _______ _____ _____    ______ ____
ROOT
ATOM      1  N   UNL     1       0.452   3.707  -1.248  0.00  0.00    -0.271 N 
ATOM      2  C   UNL     1       0.344   4.439  -2.374  0.00  0.00    +0.312 C 
ATOM      3  O   UNL     1       1.272   5.036  -2.883  0.00  0.00    -0.252 OA
ATOM      4  N   UNL     1      -0.899   4.434  -2.869  0.00  0.00    -0.227 N 
ATOM      5  C   UNL     1      -1.734   3.693  -2.110  0.00  0.00    +0.246 C 
ATOM      6  O   UNL     1      -2.915   3.496  -2.296  0.00  0.00    -0.273 OA
ATOM      7  C   UNL     1      -0.884   3.161  -0.980  0.00  0.00    +0.112 C 
ATOM      8  C   UNL     1      -0.854   1.636  -1.006  0.00  0.00    +0.017 C 
ATOM      9  C   UNL     1      -0.010   1.125   0.165  0.00  0.00    -0.076 C 
ATOM     10  C   UNL     1      -0.545   3.084   1.490  0.00  0.00    -0.076 C 
ATOM     11  C   UNL     1      -1.407   3.661   0.363  0.00  0.00    +0.017 C 
ATOM     12  C   UNL     1      -1.305   5.146  -4.083  0.00  0.00    +0.143 C 
ATOM     13  N   UNL     1      -0.605   1.607   1.430  0.00  0.00    +0.383 N 
ATOM     14  H   UNL     1      -1.587   1.312   1.469  0.00  0.00    -0.081 HD
ENDROOT
BRANCH   1  15
ATOM     15  C   UNL     1       1.662   3.498  -0.449  0.00  0.00    +0.113 C 
BRANCH  15  17
ATOM     16  C   UNL     1       1.183   5.502   0.963  0.00  0.00    +0.009 C 
ATOM     17  C   UNL     1       2.200   4.850   0.025  0.00  0.00    +0.000 C 
ATOM     18  C   UNL     1       3.520   4.641   0.769  0.00  0.00    +0.009 C 
ENDBRANCH  15  17
ENDBRANCH   1  15
BRANCH  13  19
ATOM     19  C   UNL     1       0.117   1.026   2.580  0.00  0.00    -0.038 C 
BRANCH  19  20
ATOM     20  C   UNL     1      -0.316   1.730   3.841  0.00  0.00    +0.001 A 
ATOM     21  C   UNL     1      -1.321   1.215   4.591  0.00  0.00    +0.017 A 
ATOM     22  C   UNL     1      -1.717   1.922   5.810  0.00  0.00    -0.001 A 
ATOM     23  C   UNL     1      -2.747   1.440   6.624  0.00  0.00    +0.010 A 
ATOM     24  C   UNL     1      -3.093   2.123   7.755  0.00  0.00    +0.001 A 
ATOM     25  C   UNL     1      -2.431   3.293   8.104  0.00  0.00    +0.002 A 
ATOM     26  C   UNL     1      -1.414   3.787   7.317  0.00  0.00    +0.026 A 
ATOM     27  C   UNL     1      -1.044   3.108   6.160  0.00  0.00    +0.049 A 
ATOM     28  N   UNL     1      -0.030   3.579   5.354  0.00  0.00    -0.322 N 
ATOM     29  H   UNL     1       0.433   4.397   5.597  0.00  0.00    +0.169 HD
ATOM     30  C   UNL     1       0.331   2.920   4.239  0.00  0.00    +0.251 A 
ATOM     31  O   UNL     1       1.236   3.363   3.553  0.00  0.00    -0.268 OA
ENDBRANCH  19  20
ENDBRANCH  13  19
TORSDOF 4
