REMARK  Name = ZINC03277294
REMARK  10 active torsions:
REMARK  status: ('A' for Active; 'I' for Inactive)
REMARK    1  A    between atoms: C_1  and  C_2
REMARK    2  A    between atoms: C_2  and  C_3
REMARK    3  A    between atoms: C_2  and  C_4
REMARK    4  A    between atoms: C_2  and  C_5
REMARK    5  A    between atoms: C_8  and  C_11
REMARK    6  A    between atoms: N_12  and  N_13
REMARK    7  A    between atoms: C_14  and  C_16
REMARK    8  A    between atoms: C_16  and  O_17
REMARK    9  A    between atoms: O_17  and  C_18
REMARK   10  A    between atoms: C_21  and  C_24
REMARK                            x       y       z     vdW  Elec       q    Type
REMARK                         _______ _______ _______ _____ _____    ______ ____
ROOT
ATOM      1  N   UNL     1       0.002  -0.004   0.002  0.00  0.00    -0.204 N 
ATOM      2  C   UNL     1      -0.016   1.344   0.009  0.00  0.00    +0.270 C 
ATOM      3  O   UNL     1      -1.075   1.936   0.018  0.00  0.00    -0.270 OA
ATOM      4  H   UNL     1       0.849  -0.478  -0.009  0.00  0.00    +0.177 HD
ENDROOT
BRANCH   1   6
ATOM      5  C   UNL     1      -1.184  -2.018   0.003  0.00  0.00    +0.138 C 
ATOM      6  N   UNL     1      -1.202  -0.721   0.010  0.00  0.00    -0.188 NA
BRANCH   5  10
ATOM      7  C   UNL     1      -4.830  -4.190   0.027  0.00  0.00    -0.042 A 
ATOM      8  C   UNL     1      -3.625  -4.869   0.011  0.00  0.00    +0.005 A 
ATOM      9  C   UNL     1      -2.436  -4.170   0.003  0.00  0.00    +0.010 A 
ATOM     10  C   UNL     1      -2.451  -2.773   0.011  0.00  0.00    -0.005 A 
ATOM     11  C   UNL     1      -3.672  -2.095   0.032  0.00  0.00    +0.010 A 
ATOM     12  C   UNL     1      -4.853  -2.807   0.035  0.00  0.00    +0.005 A 
BRANCH   7  14
ATOM     13  C   UNL     1      -6.181  -5.849   1.282  0.00  0.00    +0.015 C 
ATOM     14  C   UNL     1      -6.125  -4.962   0.037  0.00  0.00    -0.013 C 
ATOM     15  C   UNL     1      -7.301  -3.983   0.054  0.00  0.00    +0.015 C 
ATOM     16  C   UNL     1      -6.207  -5.836  -1.216  0.00  0.00    +0.015 C 
ENDBRANCH   7  14
ENDBRANCH   5  10
ENDBRANCH   1   6
BRANCH   2  17
ATOM     17  C   UNL     1       1.278   2.115   0.001  0.00  0.00    +0.326 C 
BRANCH  17  18
ATOM     18  O   UNL     1       0.998   3.516   0.011  0.00  0.00    -0.483 OA
BRANCH  18  19
ATOM     19  C   UNL     1       2.064   4.357   0.006  0.00  0.00    +0.121 A 
ATOM     20  C   UNL     1       3.354   3.842  -0.004  0.00  0.00    +0.047 A 
ATOM     21  C   UNL     1       4.438   4.692  -0.015  0.00  0.00    +0.022 A 
ATOM     22  C   UNL     1       4.238   6.075  -0.006  0.00  0.00    +0.052 A 
ATOM     23  C   UNL     1       2.938   6.590   0.009  0.00  0.00    +0.022 A 
ATOM     24  C   UNL     1       1.861   5.732   0.015  0.00  0.00    +0.047 A 
BRANCH  22  25
ATOM     25  C   UNL     1       5.362   6.963  -0.013  0.00  0.00    +0.099 C 
ATOM     26  N   UNL     1       6.253   7.667  -0.019  0.00  0.00    -0.191 NA
ENDBRANCH  22  25
ENDBRANCH  18  19
ENDBRANCH  17  18
ENDBRANCH   2  17
TORSDOF 7
