REMARK  Name = ZINC56306640
REMARK  6 active torsions:
REMARK  status: ('A' for Active; 'I' for Inactive)
REMARK    1  A    between atoms: C_1  and  O_2
REMARK    2  A    between atoms: O_2  and  C_3
REMARK    3  A    between atoms: C_6  and  N_13
REMARK    4  A    between atoms: C_14  and  C_16
REMARK    5  A    between atoms: C_19  and  N_21
REMARK    6  A    between atoms: C_22  and  C_24
REMARK                            x       y       z     vdW  Elec       q    Type
REMARK                         _______ _______ _______ _____ _____    ______ ____
ROOT
ATOM      1  N   UNL     1       2.571  -2.453   4.280  0.00  0.00    -0.280 N 
ATOM      2  C   UNL     1       3.208  -1.692   5.192  0.00  0.00    +0.255 C 
ATOM      3  O   UNL     1       3.142  -0.478   5.125  0.00  0.00    -0.269 OA
ATOM      4  H   UNL     1       2.556  -3.418   4.379  0.00  0.00    +0.155 HD
ENDROOT
BRANCH   1   8
ATOM      5  C   UNL     1       0.666  -0.625   1.015  0.00  0.00    +0.146 A 
ATOM      6  C   UNL     1       1.710  -0.008   1.663  0.00  0.00    +0.049 A 
ATOM      7  C   UNL     1       2.340  -0.616   2.745  0.00  0.00    +0.027 A 
ATOM      8  C   UNL     1       1.930  -1.853   3.194  0.00  0.00    +0.043 A 
ATOM      9  C   UNL     1       0.862  -2.509   2.549  0.00  0.00    +0.025 A 
ATOM     10  C   UNL     1       0.217  -1.888   1.451  0.00  0.00    +0.114 A 
ATOM     11  N   UNL     1      -0.799  -2.505   0.841  0.00  0.00    -0.251 NA
ATOM     12  C   UNL     1      -1.222  -3.680   1.240  0.00  0.00    +0.111 A 
ATOM     13  C   UNL     1      -0.636  -4.342   2.317  0.00  0.00    +0.020 A 
ATOM     14  C   UNL     1       0.416  -3.772   2.977  0.00  0.00    +0.013 A 
BRANCH   5  16
ATOM     15  C   UNL     1       0.571   1.263  -0.427  0.00  0.00    +0.277 C 
ATOM     16  O   UNL     1       0.064  -0.015  -0.041  0.00  0.00    -0.493 OA
ENDBRANCH   5  16
ENDBRANCH   1   8
BRANCH   2  17
ATOM     17  C   UNL     1       3.956  -2.305   6.229  0.00  0.00    +0.076 A 
ATOM     18  C   UNL     1       4.673  -1.709   7.258  0.00  0.00    +0.022 A 
ATOM     19  C   UNL     1       5.304  -2.564   8.123  0.00  0.00    +0.032 A 
ATOM     20  C   UNL     1       5.185  -3.919   7.915  0.00  0.00    +0.073 A 
ATOM     21  S   UNL     1       4.211  -4.040   6.552  0.00  0.00    -0.069 S 
BRANCH  20  22
ATOM     22  N   UNL     1       5.737  -4.949   8.664  0.00  0.00    -0.273 N 
ATOM     23  C   UNL     1       5.515  -6.231   8.313  0.00  0.00    +0.284 C 
ATOM     24  O   UNL     1       4.830  -6.486   7.340  0.00  0.00    -0.266 OA
ATOM     25  H   UNL     1       6.284  -4.746   9.440  0.00  0.00    +0.156 HD
BRANCH  23  26
ATOM     26  C   UNL     1       6.099  -7.319   9.103  0.00  0.00    +0.189 A 
ATOM     27  C   UNL     1       5.958  -8.655   8.856  0.00  0.00    +0.054 A 
ATOM     28  C   UNL     1       6.679  -9.328   9.855  0.00  0.00    +0.042 A 
ATOM     29  C   UNL     1       7.221  -8.386  10.658  0.00  0.00    +0.196 A 
ATOM     30  O   UNL     1       6.873  -7.176  10.199  0.00  0.00    -0.458 OA
ENDBRANCH  23  26
ENDBRANCH  20  22
ENDBRANCH   2  17
TORSDOF 5
