REMARK  Name = ZINC39230412
REMARK  8 active torsions:
REMARK  status: ('A' for Active; 'I' for Inactive)
REMARK    1  A    between atoms: C_1  and  C_2
REMARK    2  A    between atoms: C_10  and  C_15
REMARK    3  A    between atoms: N_17  and  C_18
REMARK    4  A    between atoms: C_18  and  C_20
REMARK    5  A    between atoms: C_18  and  C_21
REMARK    6  A    between atoms: C_21  and  C_22
REMARK    7  A    between atoms: C_21  and  C_28
REMARK    8  A    between atoms: C_21  and  O_34
REMARK                            x       y       z     vdW  Elec       q    Type
REMARK                         _______ _______ _______ _____ _____    ______ ____
ROOT
ATOM      1  C   UNL     1      -1.068  -4.819   0.340  0.00  0.00    +0.248 C 
ATOM      2  O   UNL     1      -0.506  -4.122   1.164  0.00  0.00    -0.270 OA
ATOM      3  N   UNL     1      -0.868  -6.152   0.336  0.00  0.00    -0.305 N 
ATOM      4  H   UNL     1      -1.316  -6.707  -0.321  0.00  0.00    +0.149 HD
ENDROOT
BRANCH   1  13
ATOM      5  C   UNL     1      -2.234   0.514   2.815  0.00  0.00    -0.012 C 
ATOM      6  C   UNL     1      -1.752   0.003   1.456  0.00  0.00    -0.057 C 
ATOM      7  C   UNL     1      -1.959  -1.513   1.377  0.00  0.00    +0.090 C 
ATOM      8  N   UNL     1      -1.371  -1.999   0.119  0.00  0.00    -0.318 N 
ATOM      9  C   UNL     1       0.009  -1.600  -0.201  0.00  0.00    +0.087 C 
ATOM     10  C   UNL     1       0.123  -0.080  -0.047  0.00  0.00    -0.063 C 
ATOM     11  N   UNL     1      -0.325   0.311   1.296  0.00  0.00    +0.383 N 
ATOM     12  C   UNL     1      -2.094  -2.808  -0.738  0.00  0.00    +0.133 A 
ATOM     13  C   UNL     1      -1.967  -4.205  -0.654  0.00  0.00    +0.077 A 
ATOM     14  C   UNL     1      -2.709  -5.003  -1.532  0.00  0.00    +0.018 A 
ATOM     15  C   UNL     1      -3.538  -4.378  -2.447  0.00  0.00    +0.021 A 
ATOM     16  C   UNL     1      -3.610  -2.997  -2.469  0.00  0.00    +0.113 A 
ATOM     17  N   UNL     1      -2.906  -2.262  -1.630  0.00  0.00    -0.240 NA
ATOM     18  H   UNL     1      -0.179   1.301   1.423  0.00  0.00    -0.085 HD
ATOM     19  H   UNL     1       0.207  -0.197   1.987  0.00  0.00    -0.085 HD
ENDBRANCH   1  13
BRANCH   3  20
ATOM     20  C   UNL     1       0.025  -6.762   1.324  0.00  0.00    +0.111 C 
ATOM     21  C   UNL     1       1.468  -6.692   0.820  0.00  0.00    +0.031 C 
BRANCH  20  22
ATOM     22  C   UNL     1      -0.371  -8.224   1.536  0.00  0.00    +0.134 C 
BRANCH  22  23
ATOM     23  C   UNL     1       0.467  -8.817   2.639  0.00  0.00    -0.010 A 
ATOM     24  C   UNL     1       0.925  -8.014   3.667  0.00  0.00    +0.007 A 
ATOM     25  C   UNL     1       1.694  -8.557   4.679  0.00  0.00    +0.000 A 
ATOM     26  C   UNL     1       2.004  -9.905   4.664  0.00  0.00    +0.000 A 
ATOM     27  C   UNL     1       1.545 -10.708   3.637  0.00  0.00    +0.000 A 
ATOM     28  C   UNL     1       0.773 -10.165   2.627  0.00  0.00    +0.007 A 
ENDBRANCH  22  23
BRANCH  22  29
ATOM     29  C   UNL     1      -1.827  -8.301   1.915  0.00  0.00    -0.010 A 
ATOM     30  C   UNL     1      -2.418  -7.257   2.602  0.00  0.00    +0.007 A 
ATOM     31  C   UNL     1      -3.754  -7.327   2.950  0.00  0.00    +0.000 A 
ATOM     32  C   UNL     1      -4.500  -8.441   2.609  0.00  0.00    +0.000 A 
ATOM     33  C   UNL     1      -3.909  -9.484   1.921  0.00  0.00    +0.000 A 
ATOM     34  C   UNL     1      -2.574  -9.412   1.570  0.00  0.00    +0.007 A 
ENDBRANCH  22  29
BRANCH  22  35
ATOM     35  O   UNL     1      -0.154  -8.956   0.328  0.00  0.00    -0.377 OA
ATOM     36  H   UNL     1       0.764  -8.950   0.024  0.00  0.00    +0.211 HD
ENDBRANCH  22  35
ENDBRANCH  20  22
ENDBRANCH   3  20
TORSDOF 6
