REMARK  Name = ZINC27529344
REMARK  3 active torsions:
REMARK  status: ('A' for Active; 'I' for Inactive)
REMARK    1  A    between atoms: C_1  and  C_2
REMARK    2  A    between atoms: N_6  and  N_7
REMARK    3  A    between atoms: C_10  and  C_13
REMARK                            x       y       z     vdW  Elec       q    Type
REMARK                         _______ _______ _______ _____ _____    ______ ____
ROOT
ATOM      1  N   UNL     1       1.280   3.393  -0.024  0.00  0.00    -0.215 N 
ATOM      2  C   UNL     1       1.097   2.036   0.186  0.00  0.00    +0.178 A 
ATOM      3  N   UNL     1      -0.024   1.337   0.204  0.00  0.00    -0.224 NA
ATOM      4  C   UNL     1      -0.015   0.030   0.423  0.00  0.00    +0.080 A 
ATOM      5  C   UNL     1       1.176  -0.607   0.635  0.00  0.00    +0.077 A 
ATOM      6  S   UNL     1       2.314   0.767   0.506  0.00  0.00    -0.059 S 
ATOM      7  H   UNL     1       0.412   4.043  -0.210  0.00  0.00    +0.176 HD
ENDROOT
BRANCH   1  13
ATOM      8  C   UNL     1       3.336   9.053   1.691  0.00  0.00    +0.007 C 
ATOM      9  C   UNL     1       3.132   7.910   0.695  0.00  0.00    -0.013 C 
ATOM     10  C   UNL     1       4.271   6.899   0.841  0.00  0.00    +0.009 C 
ATOM     11  C   UNL     1       4.117   5.802  -0.218  0.00  0.00    +0.053 C 
ATOM     12  C   UNL     1       2.733   5.204  -0.093  0.00  0.00    +0.037 C 
ATOM     13  N   UNL     1       2.571   3.938  -0.001  0.00  0.00    -0.190 NA
ATOM     14  C   UNL     1       1.545   6.141  -0.085  0.00  0.00    +0.053 C 
ATOM     15  C   UNL     1       1.792   7.226   0.975  0.00  0.00    +0.009 C 
ENDBRANCH   1  13
BRANCH   4  16
ATOM     16  C   UNL     1      -1.285  -0.735   0.438  0.00  0.00    +0.001 A 
ATOM     17  C   UNL     1      -1.270  -2.111   0.663  0.00  0.00    +0.011 A 
ATOM     18  C   UNL     1      -2.456  -2.817   0.681  0.00  0.00    +0.020 A 
ATOM     19  C   UNL     1      -3.657  -2.164   0.465  0.00  0.00    +0.041 A 
ATOM     20  C   UNL     1      -3.677  -0.798   0.237  0.00  0.00    +0.020 A 
ATOM     21  C   UNL     1      -2.497  -0.082   0.222  0.00  0.00    +0.011 A 
ATOM     22 CL   UNL     1      -5.144  -3.059   0.482  0.00  0.00    -0.084 Cl
ENDBRANCH   4  16
TORSDOF 2
