REMARK  Name = ZINC63862844
REMARK  6 active torsions:
REMARK  status: ('A' for Active; 'I' for Inactive)
REMARK    1  A    between atoms: C_1  and  C_2
REMARK    2  A    between atoms: C_4  and  S_20
REMARK    3  A    between atoms: C_6  and  C_7
REMARK    4  A    between atoms: N_9  and  C_10
REMARK    5  A    between atoms: N_18  and  C_19
REMARK    6  A    between atoms: S_20  and  N_23
REMARK                            x       y       z     vdW  Elec       q    Type
REMARK                         _______ _______ _______ _____ _____    ______ ____
ROOT
ATOM      1  C   UNL     1       0.030  -0.283   2.562  0.00  0.00    +0.251 C 
ATOM      2  O   UNL     1       0.015   0.910   2.805  0.00  0.00    -0.270 OA
ATOM      3  N   UNL     1       0.051  -1.176   3.571  0.00  0.00    -0.304 N 
ATOM      4  H   UNL     1       0.063  -2.126   3.378  0.00  0.00    +0.150 HD
ENDROOT
BRANCH   3   5
ATOM      5  C   UNL     1       0.058  -0.711   4.961  0.00  0.00    +0.107 C 
ATOM      6  C   UNL     1      -0.504  -1.807   5.875  0.00  0.00    +0.027 C 
ATOM      7  C   UNL     1      -0.260  -1.428   7.338  0.00  0.00    +0.008 C 
ATOM      8  C   UNL     1       1.238  -1.531   7.651  0.00  0.00    +0.055 C 
ATOM      9  C   UNL     1       1.998  -0.779   6.587  0.00  0.00    +0.044 A 
ATOM     10  C   UNL     1       1.473  -0.413   5.390  0.00  0.00    +0.013 A 
ATOM     11  C   UNL     1       2.460   0.261   4.675  0.00  0.00    +0.140 A 
ATOM     12  N   UNL     1       3.543   0.299   5.413  0.00  0.00    -0.179 NA
ATOM     13  N   UNL     1       3.272  -0.354   6.625  0.00  0.00    -0.271 N 
ATOM     14  C   UNL     1       4.211  -0.539   7.734  0.00  0.00    +0.172 C 
ENDBRANCH   3   5
BRANCH   1  20
ATOM     15  C   UNL     1      -0.018   1.503   0.010  0.00  0.00    +0.045 C 
ATOM     16  C   UNL     1       0.002  -0.004   0.002  0.00  0.00    -0.029 A 
ATOM     17  C   UNL     1       0.007  -0.729  -1.166  0.00  0.00    +0.040 A 
ATOM     18  C   UNL     1       0.026  -2.083  -1.101  0.00  0.00    +0.143 A 
ATOM     19  S   UNL     1       0.038  -2.416   0.545  0.00  0.00    -0.064 S 
ATOM     20  C   UNL     1       0.023  -0.748   1.172  0.00  0.00    +0.079 A 
BRANCH  18  21
ATOM     21  S   UNL     1       0.035  -3.230  -2.438  0.00  0.00    +0.062 S 
ATOM     22  O   UNL     1      -0.496  -4.447  -1.933  0.00  0.00    -0.153 OA
ATOM     23  O   UNL     1      -0.531  -2.557  -3.555  0.00  0.00    -0.153 OA
BRANCH  21  24
ATOM     24  N   UNL     1       1.619  -3.527  -2.818  0.00  0.00    -0.203 NA
ATOM     25  H   UNL     1       2.328  -3.088  -2.321  0.00  0.00    +0.144 HD
ATOM     26  H   UNL     1       1.839  -4.140  -3.537  0.00  0.00    +0.144 HD
ENDBRANCH  21  24
ENDBRANCH  18  21
ENDBRANCH   1  20
TORSDOF 4
