REMARK  Name = ZINC22328967
REMARK  12 active torsions:
REMARK  status: ('A' for Active; 'I' for Inactive)
REMARK    1  A    between atoms: C_1  and  C_2
REMARK    2  A    between atoms: C_5  and  C_32
REMARK    3  A    between atoms: C_6  and  N_8
REMARK    4  A    between atoms: N_8  and  C_9
REMARK    5  A    between atoms: N_8  and  S_28
REMARK    6  A    between atoms: C_9  and  C_10
REMARK    7  A    between atoms: N_12  and  C_13
REMARK    8  A    between atoms: C_16  and  C_26
REMARK    9  A    between atoms: C_16  and  C_27
REMARK   10  A    between atoms: C_21  and  O_24
REMARK   11  A    between atoms: O_24  and  C_25
REMARK   12  A    between atoms: S_28  and  C_31
REMARK                            x       y       z     vdW  Elec       q    Type
REMARK                         _______ _______ _______ _____ _____    ______ ____
ROOT
ATOM      1  C   UNL     1      -3.894   1.753   2.410  0.00  0.00    +0.233 C 
ATOM      2  O   UNL     1      -3.870   2.812   1.819  0.00  0.00    -0.274 OA
ATOM      3  N   UNL     1      -4.498   1.666   3.612  0.00  0.00    -0.307 N 
ATOM      4  H   UNL     1      -4.520   0.706   4.149  0.00  0.00    +0.149 HD
ENDROOT
BRANCH   3   5
ATOM      5  C   UNL     1      -5.126   2.850   4.204  0.00  0.00    +0.111 C 
ATOM      6  C   UNL     1      -6.224   2.412   5.176  0.00  0.00    +0.074 C 
ATOM      7  C   UNL     1      -6.659   3.635   5.994  0.00  0.00    +0.107 C 
ATOM      8  O   UNL     1      -5.553   4.060   6.792  0.00  0.00    -0.486 OA
ATOM      9  C   UNL     1      -4.349   4.213   6.179  0.00  0.00    +0.126 A 
ATOM     10  C   UNL     1      -4.085   3.654   4.941  0.00  0.00    +0.018 A 
ATOM     11  C   UNL     1      -2.843   3.831   4.355  0.00  0.00    +0.054 A 
ATOM     12  C   UNL     1      -1.864   4.567   5.002  0.00  0.00    +0.121 A 
ATOM     13  C   UNL     1      -2.129   5.130   6.242  0.00  0.00    +0.049 A 
ATOM     14  C   UNL     1      -3.366   4.953   6.827  0.00  0.00    +0.049 A 
ATOM     15  C   UNL     1      -7.077   4.764   5.049  0.00  0.00    +0.055 C 
ATOM     16  C   UNL     1      -7.834   3.259   6.899  0.00  0.00    +0.055 C 
BRANCH  12  17
ATOM     17  O   UNL     1      -0.646   4.738   4.423  0.00  0.00    -0.495 OA
ATOM     18  C   UNL     1       0.315   5.508   5.148  0.00  0.00    +0.277 C 
ENDBRANCH  12  17
ENDBRANCH   3   5
BRANCH   1  19
ATOM     19  C   UNL     1      -3.248   0.535   1.802  0.00  0.00    +0.226 C 
BRANCH  19  20
ATOM     20  N   UNL     1      -2.559   0.914   0.566  0.00  0.00    -0.199 N 
BRANCH  20  26
ATOM     21  C   UNL     1       0.541   4.721   0.353  0.00  0.00    +0.044 C 
ATOM     22  C   UNL     1       0.280   3.246   0.517  0.00  0.00    -0.049 A 
ATOM     23  C   UNL     1       1.336   2.376   0.724  0.00  0.00    +0.004 A 
ATOM     24  C   UNL     1       1.101   1.022   0.874  0.00  0.00    +0.005 A 
ATOM     25  C   UNL     1      -0.190   0.533   0.818  0.00  0.00    -0.028 A 
ATOM     26  C   UNL     1      -1.253   1.404   0.617  0.00  0.00    +0.055 A 
ATOM     27  C   UNL     1      -1.012   2.764   0.460  0.00  0.00    +0.028 A 
ATOM     28  C   UNL     1      -0.445  -0.943   0.982  0.00  0.00    +0.046 C 
ENDBRANCH  20  26
BRANCH  20  29
ATOM     29  S   UNL     1      -3.330   0.761  -0.892  0.00  0.00    +0.043 S 
ATOM     30  O   UNL     1      -4.714   0.859  -0.583  0.00  0.00    -0.155 OA
ATOM     31  O   UNL     1      -2.706   1.720  -1.734  0.00  0.00    -0.155 OA
ATOM     32  C   UNL     1      -2.933  -0.917  -1.455  0.00  0.00    +0.218 C 
ENDBRANCH  20  29
ENDBRANCH  19  20
ENDBRANCH   1  19
TORSDOF 6
