REMARK  Name = ZINC36640933
REMARK  7 active torsions:
REMARK  status: ('A' for Active; 'I' for Inactive)
REMARK    1  A    between atoms: C_1  and  C_2
REMARK    2  A    between atoms: C_2  and  C_22
REMARK    3  A    between atoms: N_5  and  C_9
REMARK    4  A    between atoms: C_9  and  C_10
REMARK    5  A    between atoms: N_12  and  C_13
REMARK    6  A    between atoms: C_16  and  C_20
REMARK    7  A    between atoms: C_25  and  C_28
REMARK                            x       y       z     vdW  Elec       q    Type
REMARK                         _______ _______ _______ _____ _____    ______ ____
ROOT
ATOM      1  C   UNL     1      -0.023   1.531   0.018  0.00  0.00    +0.047 C 
ATOM      2  C   UNL     1      -0.004   0.001   0.002  0.00  0.00    +0.135 C 
ATOM      3  C   UNL     1      -1.408  -0.552   0.145  0.00  0.00    +0.251 C 
ATOM      4  O   UNL     1      -2.342  -0.382  -0.609  0.00  0.00    -0.272 OA
ATOM      5  N   UNL     1      -1.402  -1.272   1.284  0.00  0.00    -0.215 N 
ATOM      6  C   UNL     1      -0.201  -1.252   1.874  0.00  0.00    +0.310 C 
ATOM      7  O   UNL     1       0.050  -1.829   2.914  0.00  0.00    -0.252 OA
ATOM      8  N   UNL     1       0.696  -0.521   1.188  0.00  0.00    -0.281 N 
ATOM      9  H   UNL     1       1.624  -0.369   1.428  0.00  0.00    +0.152 HD
ENDROOT
BRANCH   2  10
ATOM     10  C   UNL     1       0.643  -0.506  -1.261  0.00  0.00    -0.015 A 
ATOM     11  C   UNL     1      -0.132  -0.754  -2.380  0.00  0.00    +0.007 A 
ATOM     12  C   UNL     1       0.453  -1.218  -3.540  0.00  0.00    +0.019 A 
ATOM     13  C   UNL     1       1.831  -1.438  -3.583  0.00  0.00    +0.052 A 
ATOM     14  C   UNL     1       2.608  -1.185  -2.450  0.00  0.00    +0.019 A 
ATOM     15  C   UNL     1       2.010  -0.716  -1.299  0.00  0.00    +0.007 A 
BRANCH  13  16
ATOM     16  C   UNL     1       2.446  -1.920  -4.783  0.00  0.00    +0.099 C 
ATOM     17  N   UNL     1       2.933  -2.302  -5.735  0.00  0.00    -0.191 NA
ENDBRANCH  13  16
ENDBRANCH   2  10
BRANCH   5  18
ATOM     18  C   UNL     1      -2.566  -1.988   1.811  0.00  0.00    +0.214 C 
BRANCH  18  19
ATOM     19  C   UNL     1      -2.586  -3.390   1.258  0.00  0.00    +0.235 C 
ATOM     20  O   UNL     1      -1.714  -3.755   0.499  0.00  0.00    -0.274 OA
ATOM     21  N   UNL     1      -3.573  -4.239   1.608  0.00  0.00    -0.284 N 
ATOM     22  H   UNL     1      -4.233  -3.970   2.266  0.00  0.00    +0.155 HD
BRANCH  21  23
ATOM     23  C   UNL     1      -3.646  -5.503   1.023  0.00  0.00    +0.035 A 
ATOM     24  C   UNL     1      -2.478  -6.191   0.708  0.00  0.00    +0.024 A 
ATOM     25  C   UNL     1      -2.545  -7.439   0.131  0.00  0.00    +0.022 A 
ATOM     26  C   UNL     1      -3.789  -8.016  -0.140  0.00  0.00    +0.070 A 
ATOM     27  C   UNL     1      -4.962  -7.323   0.178  0.00  0.00    +0.060 A 
ATOM     28  C   UNL     1      -4.886  -6.076   0.761  0.00  0.00    +0.044 A 
ATOM     29 CL   UNL     1      -6.510  -8.034  -0.156  0.00  0.00    -0.082 Cl
BRANCH  26  30
ATOM     30  C   UNL     1      -3.862  -9.314  -0.741  0.00  0.00    +0.101 C 
ATOM     31  N   UNL     1      -3.921 -10.343  -1.218  0.00  0.00    -0.191 NA
ENDBRANCH  26  30
ENDBRANCH  21  23
ENDBRANCH  18  19
ENDBRANCH   5  18
TORSDOF 6
