REMARK  Name = ZINC63896912
REMARK  5 active torsions:
REMARK  status: ('A' for Active; 'I' for Inactive)
REMARK    1  A    between atoms: C_8  and  C_16
REMARK    2  A    between atoms: C_18  and  O_35
REMARK    3  A    between atoms: C_21  and  S_34
REMARK    4  A    between atoms: N_23  and  C_26
REMARK    5  A    between atoms: C_26  and  C_27
REMARK                            x       y       z     vdW  Elec       q    Type
REMARK                         _______ _______ _______ _____ _____    ______ ____
ROOT
ATOM      1  C   UNL     1       5.176  -3.162   0.821  0.00  0.00    +0.138 C 
ATOM      2  C   UNL     1       5.717  -3.934   2.028  0.00  0.00    +0.198 C 
ATOM      3  N   UNL     1       7.188  -3.912   1.974  0.00  0.00    -0.264 NA
ATOM      4  C   UNL     1       7.689  -2.557   2.229  0.00  0.00    +0.203 C 
ATOM      5  N   UNL     1       7.039  -1.595   1.346  0.00  0.00    -0.272 N 
ATOM      6  C   UNL     1       5.889  -1.842   0.711  0.00  0.00    +0.226 C 
ATOM      7  O   UNL     1       5.403  -0.972   0.020  0.00  0.00    -0.275 OA
ATOM      8  H   UNL     1       7.583  -4.573   2.626  0.00  0.00    +0.127 HD
ENDROOT
BRANCH   1  15
ATOM      9  C   UNL     1      -1.185  -5.719  -0.160  0.00  0.00    +0.001 A 
ATOM     10  C   UNL     1      -0.343  -6.406  -1.046  0.00  0.00    +0.002 A 
ATOM     11  C   UNL     1       1.001  -6.276  -1.020  0.00  0.00    +0.026 A 
ATOM     12  C   UNL     1       1.625  -5.417  -0.075  0.00  0.00    +0.043 A 
ATOM     13  N   UNL     1       2.887  -5.111   0.126  0.00  0.00    -0.376 N 
ATOM     14  C   UNL     1       2.970  -4.245   1.298  0.00  0.00    +0.124 C 
ATOM     15  C   UNL     1       3.676  -2.919   1.001  0.00  0.00    +0.096 C 
ATOM     16  N   UNL     1       3.454  -2.012   2.138  0.00  0.00    -0.310 NA
ATOM     17  C   UNL     1       2.054  -1.603   2.287  0.00  0.00    +0.085 C 
ATOM     18  C   UNL     1       1.183  -2.822   2.643  0.00  0.00    +0.048 C 
ATOM     19  C   UNL     1       1.530  -3.915   1.657  0.00  0.00    -0.036 C 
ATOM     20  C   UNL     1       0.755  -4.670   0.868  0.00  0.00    -0.001 A 
ATOM     21  C   UNL     1      -0.696  -4.875   0.775  0.00  0.00    +0.010 A 
ATOM     22  H   UNL     1       3.806  -2.412   2.995  0.00  0.00    +0.122 HD
ATOM     23  H   UNL     1       3.636  -5.409  -0.413  0.00  0.00    +0.160 HD
ENDBRANCH   1  15
BRANCH   4  24
ATOM     24  S   UNL     1       7.351  -2.108   3.953  0.00  0.00    -0.140 S 
ATOM     25  H   UNL     1       8.012  -3.037   4.667  0.00  0.00    +0.105 HD
ENDBRANCH   4  24
BRANCH   2  26
ATOM     26  O   UNL     1       5.266  -3.316   3.235  0.00  0.00    -0.377 OA
ATOM     27  H   UNL     1       5.573  -3.755   4.040  0.00  0.00    +0.211 HD
ENDBRANCH   2  26
BRANCH   5  28
ATOM     28  C   UNL     1       7.678  -0.292   1.146  0.00  0.00    +0.145 C 
BRANCH  28  29
ATOM     29  C   UNL     1       8.621  -0.369  -0.028  0.00  0.00    -0.030 A 
ATOM     30  C   UNL     1       9.940  -0.733   0.169  0.00  0.00    +0.008 A 
ATOM     31  C   UNL     1      10.805  -0.805  -0.906  0.00  0.00    +0.038 A 
ATOM     32  C   UNL     1      10.350  -0.513  -2.181  0.00  0.00    +0.123 A 
ATOM     33  C   UNL     1       9.029  -0.149  -2.377  0.00  0.00    +0.038 A 
ATOM     34  C   UNL     1       8.164  -0.082  -1.300  0.00  0.00    +0.008 A 
ATOM     35  F   UNL     1      11.195  -0.583  -3.233  0.00  0.00    -0.205 F 
ENDBRANCH  28  29
ENDBRANCH   5  28
TORSDOF 5
