REMARK  Name = ZINC19897490
REMARK  8 active torsions:
REMARK  status: ('A' for Active; 'I' for Inactive)
REMARK    1  A    between atoms: C_1  and  C_2
REMARK    2  A    between atoms: C_6  and  C_8
REMARK    3  A    between atoms: C_8  and  S_9
REMARK    4  A    between atoms: S_9  and  C_10
REMARK    5  A    between atoms: C_13  and  C_16
REMARK    6  A    between atoms: N_14  and  N_15
REMARK    7  A    between atoms: N_19  and  C_22
REMARK    8  A    between atoms: C_20  and  N_21
REMARK                            x       y       z     vdW  Elec       q    Type
REMARK                         _______ _______ _______ _____ _____    ______ ____
ROOT
ATOM      1  C   UNL     1      -0.116   7.695  -1.375  0.00  0.00    +0.209 A 
ATOM      2  N   UNL     1      -0.118   8.283  -0.203  0.00  0.00    -0.121 NA
ATOM      3  N   UNL     1      -0.133   9.560  -0.348  0.00  0.00    -0.127 NA
ATOM      4  C   UNL     1      -0.149   9.866  -1.625  0.00  0.00    +0.186 A 
ATOM      5  N   UNL     1      -0.138   8.682  -2.324  0.00  0.00    -0.224 N 
ENDROOT
BRANCH   4   6
ATOM      6  C   UNL     1      -0.173  11.226  -2.202  0.00  0.00    +0.080 A 
ATOM      7  C   UNL     1      -0.184  11.553  -3.574  0.00  0.00    +0.148 A 
ATOM      8  N   UNL     1      -0.209  12.854  -3.688  0.00  0.00    -0.172 NA
ATOM      9  N   UNL     1      -0.206  13.425  -2.410  0.00  0.00    -0.218 N 
ATOM     10  C   UNL     1      -0.183  12.419  -1.495  0.00  0.00    +0.131 A 
BRANCH   9  11
ATOM     11  C   UNL     1      -0.223  14.797  -2.123  0.00  0.00    +0.067 A 
ATOM     12  C   UNL     1      -0.914  15.267  -1.015  0.00  0.00    +0.028 A 
ATOM     13  C   UNL     1      -0.924  16.619  -0.732  0.00  0.00    +0.002 A 
ATOM     14  C   UNL     1      -0.257  17.505  -1.558  0.00  0.00    +0.000 A 
ATOM     15  C   UNL     1       0.428  17.040  -2.665  0.00  0.00    +0.002 A 
ATOM     16  C   UNL     1       0.447  15.689  -2.951  0.00  0.00    +0.028 A 
ENDBRANCH   9  11
BRANCH  10  17
ATOM     17  N   UNL     1      -0.173  12.560  -0.115  0.00  0.00    -0.342 N 
ATOM     18  H   UNL     1      -0.183  13.564   0.335  0.00  0.00    +0.144 HD
ATOM     19  H   UNL     1      -0.155  11.668   0.529  0.00  0.00    +0.144 HD
ENDBRANCH  10  17
ENDBRANCH   4   6
BRANCH   5  20
ATOM     20  N   UNL     1      -0.149   8.523  -3.681  0.00  0.00    -0.295 N 
ATOM     21  H   UNL     1      -0.167   9.405  -4.337  0.00  0.00    +0.163 HD
ATOM     22  H   UNL     1      -0.139   7.513  -4.116  0.00  0.00    +0.163 HD
ENDBRANCH   5  20
BRANCH   1  23
ATOM     23  S   UNL     1      -0.095   5.958  -1.674  0.00  0.00    -0.080 S 
BRANCH  23  24
ATOM     24  C   UNL     1      -0.070   5.347   0.030  0.00  0.00    +0.112 C 
BRANCH  24  30
ATOM     25  C   UNL     1      -2.514   0.980   0.019  0.00  0.00    +0.044 C 
ATOM     26  C   UNL     1      -1.219   1.751   0.017  0.00  0.00    -0.050 A 
ATOM     27  C   UNL     1      -0.013   1.076   0.008  0.00  0.00    +0.003 A 
ATOM     28  C   UNL     1       1.175   1.783   0.000  0.00  0.00    +0.001 A 
ATOM     29  C   UNL     1       1.156   3.166   0.008  0.00  0.00    +0.004 A 
ATOM     30  C   UNL     1      -0.050   3.840   0.022  0.00  0.00    -0.037 A 
ATOM     31  C   UNL     1      -1.238   3.133   0.030  0.00  0.00    +0.007 A 
ENDBRANCH  24  30
ENDBRANCH  23  24
ENDBRANCH   1  23
TORSDOF 7
