REMARK  Name = ZINC14021197
REMARK  6 active torsions:
REMARK  status: ('A' for Active; 'I' for Inactive)
REMARK    1  A    between atoms: C_1  and  C_2
REMARK    2  A    between atoms: C_5  and  C_8
REMARK    3  A    between atoms: C_8  and  C_35
REMARK    4  A    between atoms: N_11  and  C_15
REMARK    5  A    between atoms: C_15  and  C_16
REMARK    6  A    between atoms: C_21  and  N_24
REMARK                            x       y       z     vdW  Elec       q    Type
REMARK                         _______ _______ _______ _____ _____    ______ ____
ROOT
ATOM      1  C   UNL     1       1.940  -2.199  -1.450  0.00  0.00    +0.234 C 
ATOM      2  O   UNL     1       1.671  -1.450  -2.365  0.00  0.00    -0.274 OA
ATOM      3  N   UNL     1       2.375  -3.449  -1.708  0.00  0.00    -0.300 N 
ATOM      4  C   UNL     1       2.711  -4.366  -0.610  0.00  0.00    +0.110 C 
ATOM      5  C   UNL     1       4.126  -4.899  -0.822  0.00  0.00    +0.044 C 
ATOM      6  C   UNL     1       4.232  -5.521  -2.216  0.00  0.00    +0.095 C 
ATOM      7  C   UNL     1       3.952  -4.453  -3.276  0.00  0.00    +0.044 C 
ATOM      8  C   UNL     1       2.529  -3.917  -3.092  0.00  0.00    +0.110 C 
ENDROOT
BRANCH   6   9
ATOM      9  N   UNL     1       5.580  -6.059  -2.410  0.00  0.00    -0.289 N 
ATOM     10  C   UNL     1       5.897  -7.390  -2.674  0.00  0.00    +0.070 A 
ATOM     11  C   UNL     1       5.134  -8.537  -2.827  0.00  0.00    +0.028 A 
ATOM     12  C   UNL     1       5.752  -9.744  -3.088  0.00  0.00    +0.002 A 
ATOM     13  C   UNL     1       7.130  -9.813  -3.200  0.00  0.00    +0.002 A 
ATOM     14  C   UNL     1       7.898  -8.675  -3.050  0.00  0.00    +0.028 A 
ATOM     15  C   UNL     1       7.287  -7.459  -2.786  0.00  0.00    +0.067 A 
ATOM     16  N   UNL     1       7.772  -6.169  -2.587  0.00  0.00    -0.306 N 
ATOM     17  H   UNL     1       8.705  -5.904  -2.607  0.00  0.00    +0.170 HD
ATOM     18  C   UNL     1       6.725  -5.351  -2.369  0.00  0.00    +0.328 A 
ATOM     19  O   UNL     1       6.801  -4.154  -2.164  0.00  0.00    -0.247 OA
ENDBRANCH   6   9
BRANCH   1  20
ATOM     20  C   UNL     1       1.788  -1.734  -0.025  0.00  0.00    +0.213 C 
BRANCH  20  24
ATOM     21  C   UNL     1      -0.018   1.512   0.010  0.00  0.00    +0.135 C 
ATOM     22  C   UNL     1       0.002  -0.004   0.002  0.00  0.00    +0.251 C 
ATOM     23  O   UNL     1      -0.954  -0.749   0.008  0.00  0.00    -0.272 OA
ATOM     24  N   UNL     1       1.304  -0.351  -0.012  0.00  0.00    -0.215 N 
ATOM     25  C   UNL     1       2.101   0.724  -0.014  0.00  0.00    +0.310 C 
ATOM     26  O   UNL     1       3.315   0.665  -0.026  0.00  0.00    -0.252 OA
ATOM     27  N   UNL     1       1.409   1.877  -0.001  0.00  0.00    -0.281 N 
ATOM     28  C   UNL     1      -0.698   2.034   1.278  0.00  0.00    +0.047 C 
ATOM     29  H   UNL     1       1.777   2.775  -0.000  0.00  0.00    +0.152 HD
BRANCH  21  34
ATOM     30  C   UNL     1      -2.674   3.535  -4.706  0.00  0.00    +0.044 C 
ATOM     31  C   UNL     1      -1.982   3.007  -3.476  0.00  0.00    -0.050 A 
ATOM     32  C   UNL     1      -0.977   3.745  -2.879  0.00  0.00    +0.004 A 
ATOM     33  C   UNL     1      -0.342   3.261  -1.750  0.00  0.00    +0.006 A 
ATOM     34  C   UNL     1      -0.711   2.039  -1.220  0.00  0.00    -0.015 A 
ATOM     35  C   UNL     1      -1.712   1.299  -1.820  0.00  0.00    +0.006 A 
ATOM     36  C   UNL     1      -2.351   1.785  -2.946  0.00  0.00    +0.004 A 
ENDBRANCH  21  34
ENDBRANCH  20  24
ENDBRANCH   1  20
TORSDOF 4
