REMARK  Name = ZINC08327606
REMARK  9 active torsions:
REMARK  status: ('A' for Active; 'I' for Inactive)
REMARK    1  A    between atoms: C_1  and  C_2
REMARK    2  A    between atoms: C_2  and  C_3
REMARK    3  A    between atoms: C_3  and  N_4
REMARK    4  A    between atoms: C_5  and  C_7
REMARK    5  A    between atoms: C_7  and  C_9
REMARK    6  A    between atoms: C_7  and  N_10
REMARK    7  A    between atoms: N_13  and  S_14
REMARK    8  A    between atoms: S_14  and  C_17
REMARK    9  A    between atoms: C_20  and  C_23
REMARK                            x       y       z     vdW  Elec       q    Type
REMARK                         _______ _______ _______ _____ _____    ______ ____
ROOT
ATOM      1  N   UNL     1      -0.311   1.285  -4.835  0.00  0.00    -0.287 N 
ATOM      2  C   UNL     1      -0.434   1.967  -5.992  0.00  0.00    +0.319 C 
ATOM      3  O   UNL     1      -1.114   2.974  -6.034  0.00  0.00    -0.251 OA
ATOM      4  N   UNL     1       0.197   1.532  -7.100  0.00  0.00    -0.169 N 
ATOM      5  H   UNL     1       0.231   0.482  -4.801  0.00  0.00    +0.151 HD
ATOM      6  H   UNL     1       0.739   0.729  -7.066  0.00  0.00    +0.178 HD
ENDROOT
BRANCH   4   7
ATOM      7  S   UNL     1       0.045   2.369  -8.521  0.00  0.00    +0.076 S 
ATOM      8  O   UNL     1       0.838   1.685  -9.482  0.00  0.00    -0.150 OA
ATOM      9  O   UNL     1      -1.343   2.606  -8.707  0.00  0.00    -0.150 OA
BRANCH   7  10
ATOM     10  C   UNL     1       0.796   3.945  -8.279  0.00  0.00    +0.109 A 
ATOM     11  C   UNL     1       0.041   5.007  -7.818  0.00  0.00    +0.029 A 
ATOM     12  C   UNL     1       0.631   6.242  -7.624  0.00  0.00    +0.005 A 
ATOM     13  C   UNL     1       1.974   6.418  -7.901  0.00  0.00    -0.050 A 
ATOM     14  C   UNL     1       2.728   5.357  -8.367  0.00  0.00    +0.005 A 
ATOM     15  C   UNL     1       2.139   4.121  -8.557  0.00  0.00    +0.029 A 
ATOM     16  C   UNL     1       2.616   7.765  -7.694  0.00  0.00    +0.044 C 
ENDBRANCH   7  10
ENDBRANCH   4   7
BRANCH   1  17
ATOM     17  C   UNL     1      -0.997   1.758  -3.630  0.00  0.00    +0.157 C 
ATOM     18  C   UNL     1      -2.432   1.228  -3.619  0.00  0.00    +0.038 C 
BRANCH  17  20
ATOM     19  N   UNL     1      -0.721   1.571  -1.179  0.00  0.00    -0.314 N 
ATOM     20  C   UNL     1      -0.268   1.258  -2.409  0.00  0.00    +0.233 C 
ATOM     21  O   UNL     1       0.726   0.575  -2.534  0.00  0.00    -0.274 OA
ATOM     22  H   UNL     1      -1.516   2.118  -1.079  0.00  0.00    +0.149 HD
BRANCH  19  23
ATOM     23  C   UNL     1      -0.013   1.086   0.008  0.00  0.00    +0.104 C 
BRANCH  23  25
ATOM     24  C   UNL     1       0.011   1.072   2.506  0.00  0.00    +0.005 C 
ATOM     25  C   UNL     1      -0.729   1.579   1.267  0.00  0.00    +0.015 C 
ENDBRANCH  23  25
ENDBRANCH  19  23
ENDBRANCH  17  20
ENDBRANCH   1  17
TORSDOF 6
