REMARK  Name = ZINC67490914
REMARK  5 active torsions:
REMARK  status: ('A' for Active; 'I' for Inactive)
REMARK    1  A    between atoms: C_7  and  C_21
REMARK    2  A    between atoms: C_8  and  S_10
REMARK    3  A    between atoms: S_10  and  N_13
REMARK    4  A    between atoms: C_16  and  C_19
REMARK    5  A    between atoms: C_19  and  O_20
REMARK                            x       y       z     vdW  Elec       q    Type
REMARK                         _______ _______ _______ _____ _____    ______ ____
ROOT
ATOM      1  C   UNL     1      -0.019   1.518   0.010  0.00  0.00    +0.018 C 
ATOM      2  C   UNL     1       1.433   2.008  -0.001  0.00  0.00    -0.077 C 
ATOM      3  N   UNL     1       2.176   1.370  -1.096  0.00  0.00    +0.382 N 
ATOM      4  C   UNL     1       2.424  -0.046  -0.766  0.00  0.00    -0.039 C 
ATOM      5  C   UNL     1       1.128  -0.667  -0.353  0.00  0.00    -0.021 A 
ATOM      6  C   UNL     1       0.002  -0.004   0.002  0.00  0.00    -0.025 A 
ATOM      7  C   UNL     1      -1.109  -0.865   0.351  0.00  0.00    +0.100 A 
ATOM      8  C   UNL     1      -0.898  -2.227   0.288  0.00  0.00    +0.157 A 
ATOM      9  S   UNL     1       0.698  -2.375  -0.213  0.00  0.00    -0.074 S 
ATOM     10  H   UNL     1       1.636   1.427  -1.946  0.00  0.00    -0.085 HD
ATOM     11  H   UNL     1       3.057   1.844  -1.225  0.00  0.00    -0.085 HD
ENDROOT
BRANCH   8  12
ATOM     12  S   UNL     1      -2.043  -3.517   0.648  0.00  0.00    +0.068 S 
ATOM     13  O   UNL     1      -1.800  -3.912   1.992  0.00  0.00    -0.152 OA
ATOM     14  O   UNL     1      -3.316  -3.067   0.205  0.00  0.00    -0.152 OA
BRANCH  12  15
ATOM     15  N   UNL     1      -1.641  -4.810  -0.305  0.00  0.00    -0.176 NA
ATOM     16  C   UNL     1      -2.223  -4.962  -1.645  0.00  0.00    +0.110 C 
ATOM     17  C   UNL     1      -2.858  -6.352  -1.752  0.00  0.00    +0.023 C 
ATOM     18  C   UNL     1      -1.815  -7.414  -1.396  0.00  0.00    +0.017 C 
ATOM     19  C   UNL     1      -1.346  -7.207   0.046  0.00  0.00    +0.023 C 
ATOM     20  C   UNL     1      -0.689  -5.824   0.171  0.00  0.00    +0.110 C 
BRANCH  18  21
ATOM     21  C   UNL     1      -2.436  -8.805  -1.534  0.00  0.00    +0.159 C 
BRANCH  21  22
ATOM     22  O   UNL     1      -1.433  -9.799  -1.316  0.00  0.00    -0.395 OA
ATOM     23  H   UNL     1      -1.756 -10.707  -1.388  0.00  0.00    +0.209 HD
ENDBRANCH  21  22
ENDBRANCH  18  21
ENDBRANCH  12  15
ENDBRANCH   8  12
BRANCH   7  24
ATOM     24  C   UNL     1      -2.406  -0.311   0.758  0.00  0.00    +0.389 C 
ATOM     25  O   UNL     1      -2.565   0.901   0.806  0.00  0.00    -0.240 OA
ATOM     26  O   UNL     1      -3.328  -1.062   1.048  0.00  0.00    -0.240 OA
ENDBRANCH   7  24
TORSDOF 5
