REMARK  Name = ZINC61721631
REMARK  9 active torsions:
REMARK  status: ('A' for Active; 'I' for Inactive)
REMARK    1  A    between atoms: C_1  and  C_2
REMARK    2  A    between atoms: C_2  and  C_28
REMARK    3  A    between atoms: N_5  and  C_9
REMARK    4  A    between atoms: C_9  and  C_10
REMARK    5  A    between atoms: C_10  and  C_12
REMARK    6  A    between atoms: C_10  and  O_27
REMARK    7  A    between atoms: C_12  and  N_13
REMARK    8  A    between atoms: C_16  and  C_19
REMARK    9  A    between atoms: C_16  and  O_26
REMARK                            x       y       z     vdW  Elec       q    Type
REMARK                         _______ _______ _______ _____ _____    ______ ____
ROOT
ATOM      1  N   UNL     1       6.215  -0.702  -2.577  0.00  0.00    +0.382 N 
ATOM      2  C   UNL     1       5.789   0.531  -3.251  0.00  0.00    -0.076 C 
ATOM      3  C   UNL     1       6.933   1.547  -3.234  0.00  0.00    +0.021 C 
ATOM      4  C   UNL     1       8.144   0.957  -3.963  0.00  0.00    +0.088 C 
ATOM      5  C   UNL     1       8.533  -0.367  -3.298  0.00  0.00    +0.021 C 
ATOM      6  C   UNL     1       7.330  -1.312  -3.312  0.00  0.00    -0.076 C 
ATOM      7  H   UNL     1       6.512  -0.484  -1.638  0.00  0.00    -0.082 HD
ENDROOT
BRANCH   4   8
ATOM      8  C   UNL     1       9.300   1.920  -3.883  0.00  0.00    -0.016 A 
ATOM      9  C   UNL     1       9.426   2.759  -2.791  0.00  0.00    +0.008 A 
ATOM     10  C   UNL     1      10.486   3.643  -2.717  0.00  0.00    +0.020 A 
ATOM     11  C   UNL     1      11.421   3.688  -3.736  0.00  0.00    +0.041 A 
ATOM     12  C   UNL     1      11.294   2.849  -4.828  0.00  0.00    +0.020 A 
ATOM     13  C   UNL     1      10.237   1.962  -4.899  0.00  0.00    +0.008 A 
ATOM     14 CL   UNL     1      12.752   4.799  -3.643  0.00  0.00    -0.084 Cl
ENDBRANCH   4   8
BRANCH   4  15
ATOM     15  O   UNL     1       7.809   0.723  -5.333  0.00  0.00    -0.384 OA
ATOM     16  H   UNL     1       8.531   0.348  -5.856  0.00  0.00    +0.211 HD
ENDBRANCH   4  15
BRANCH   1  17
ATOM     17  C   UNL     1       5.090  -1.645  -2.527  0.00  0.00    -0.046 C 
BRANCH  17  18
ATOM     18  C   UNL     1       5.481  -2.862  -1.687  0.00  0.00    +0.116 C 
BRANCH  18  19
ATOM     19  O   UNL     1       5.795  -2.443  -0.358  0.00  0.00    -0.392 OA
ATOM     20  H   UNL     1       5.064  -2.004   0.099  0.00  0.00    +0.210 HD
ENDBRANCH  18  19
BRANCH  18  21
ATOM     21  C   UNL     1       4.314  -3.851  -1.648  0.00  0.00    +0.147 C 
BRANCH  21  26
ATOM     22  C   UNL     1       6.173  -6.334   1.880  0.00  0.00    +0.041 C 
ATOM     23  C   UNL     1       5.025  -6.478   0.879  0.00  0.00    +0.107 C 
ATOM     24  C   UNL     1       4.487  -5.117   0.484  0.00  0.00    +0.246 C 
ATOM     25  O   UNL     1       3.982  -4.290   1.212  0.00  0.00    -0.273 OA
ATOM     26  N   UNL     1       4.689  -5.017  -0.844  0.00  0.00    -0.222 N 
ATOM     27  C   UNL     1       5.274  -6.115  -1.339  0.00  0.00    +0.309 C 
ATOM     28  O   UNL     1       5.556  -6.260  -2.512  0.00  0.00    -0.252 OA
ATOM     29  N   UNL     1       5.513  -7.040  -0.392  0.00  0.00    -0.285 N 
ATOM     30  C   UNL     1       3.912  -7.352   1.462  0.00  0.00    +0.041 C 
ATOM     31  H   UNL     1       5.927  -7.908  -0.521  0.00  0.00    +0.151 HD
ENDBRANCH  21  26
ENDBRANCH  18  21
ENDBRANCH  17  18
ENDBRANCH   1  17
TORSDOF 7
