REMARK  Name = ZINC12445804
REMARK  5 active torsions:
REMARK  status: ('A' for Active; 'I' for Inactive)
REMARK    1  A    between atoms: C_1  and  C_2
REMARK    2  A    between atoms: N_8  and  C_23
REMARK    3  A    between atoms: N_12  and  N_13
REMARK    4  A    between atoms: C_14  and  C_16
REMARK    5  A    between atoms: C_20  and  O_22
REMARK                            x       y       z     vdW  Elec       q    Type
REMARK                         _______ _______ _______ _____ _____    ______ ____
ROOT
ATOM      1  C   UNL     1      -0.538   1.482   0.107  0.00  0.00    +0.046 C 
ATOM      2  C   UNL     1      -0.445  -0.022   0.085  0.00  0.00    -0.027 A 
ATOM      3  C   UNL     1      -0.718  -0.712  -1.079  0.00  0.00    +0.020 A 
ATOM      4  C   UNL     1      -0.636  -2.094  -1.115  0.00  0.00    +0.019 A 
ATOM      5  C   UNL     1      -0.278  -2.796   0.021  0.00  0.00    +0.027 A 
ATOM      6  C   UNL     1      -0.001  -2.109   1.197  0.00  0.00    +0.030 A 
ATOM      7  C   UNL     1      -0.077  -0.711   1.236  0.00  0.00    +0.049 A 
ATOM      8  N   UNL     1       0.249  -0.268   2.513  0.00  0.00    -0.268 N 
ATOM      9  C   UNL     1       0.545  -1.295   3.328  0.00  0.00    +0.271 C 
ATOM     10  O   UNL     1       0.866  -1.210   4.499  0.00  0.00    -0.268 OA
ATOM     11  C   UNL     1       0.399  -2.544   2.555  0.00  0.00    +0.153 C 
ATOM     12  N   UNL     1       0.596  -3.771   2.975  0.00  0.00    -0.174 NA
ATOM     13  C   UNL     1       0.269   1.140   2.918  0.00  0.00    +0.138 C 
ATOM     14 BR   UNL     1      -1.015  -3.022  -2.719  0.00  0.00    -0.050 Br
ENDROOT
BRANCH  12  15
ATOM     15  N   UNL     1       0.975  -4.004   4.304  0.00  0.00    -0.202 N 
ATOM     16  C   UNL     1       1.176  -5.264   4.736  0.00  0.00    +0.263 C 
ATOM     17  O   UNL     1       1.029  -6.199   3.973  0.00  0.00    -0.268 OA
ATOM     18  H   UNL     1       1.092  -3.258   4.913  0.00  0.00    +0.178 HD
BRANCH  16  19
ATOM     19  C   UNL     1       1.576  -5.510   6.137  0.00  0.00    +0.042 A 
ATOM     20  C   UNL     1       1.740  -4.439   7.017  0.00  0.00    +0.013 A 
ATOM     21  C   UNL     1       2.113  -4.672   8.325  0.00  0.00    +0.004 A 
ATOM     22  C   UNL     1       2.325  -5.965   8.767  0.00  0.00    +0.045 A 
ATOM     23  C   UNL     1       2.165  -7.037   7.900  0.00  0.00    +0.118 A 
ATOM     24  C   UNL     1       1.786  -6.814   6.587  0.00  0.00    +0.058 A 
BRANCH  23  25
ATOM     25  O   UNL     1       2.375  -8.305   8.341  0.00  0.00    -0.507 OA
ATOM     26  H   UNL     1       1.586  -8.732   8.700  0.00  0.00    +0.292 HD
ENDBRANCH  23  25
ENDBRANCH  16  19
ENDBRANCH  12  15
TORSDOF 3
