REMARK  Name = ZINC25629334
REMARK  5 active torsions:
REMARK  status: ('A' for Active; 'I' for Inactive)
REMARK    1  A    between atoms: C_1  and  C_2
REMARK    2  A    between atoms: C_5  and  N_9
REMARK    3  A    between atoms: C_6  and  C_8
REMARK    4  A    between atoms: N_9  and  C_10
REMARK    5  A    between atoms: C_10  and  C_11
REMARK                            x       y       z     vdW  Elec       q    Type
REMARK                         _______ _______ _______ _____ _____    ______ ____
ROOT
ATOM      1  C   UNL     1      -2.490  -2.729   0.007  0.00  0.00    +0.157 C 
ENDROOT
BRANCH   1   2
ATOM      2  C   UNL     1      -1.171  -2.000   0.001  0.00  0.00    +0.066 A 
ATOM      3  C   UNL     1       0.011  -2.713  -0.013  0.00  0.00    +0.095 A 
ATOM      4  C   UNL     1       1.224  -2.014  -0.019  0.00  0.00    +0.259 A 
ATOM      5  O   UNL     1       2.286  -2.615  -0.031  0.00  0.00    -0.267 OA
ATOM      6  N   UNL     1       1.199  -0.664  -0.012  0.00  0.00    -0.268 N 
ATOM      7  C   UNL     1       2.371   0.031  -0.018  0.00  0.00    +0.096 A 
ATOM      8  C   UNL     1       2.372   1.383  -0.011  0.00  0.00    +0.018 A 
ATOM      9  C   UNL     1       1.161   2.089   0.002  0.00  0.00    +0.005 A 
ATOM     10  C   UNL     1      -0.017   1.403   0.010  0.00  0.00    +0.047 A 
ATOM     11  C   UNL     1       0.002  -0.004   0.002  0.00  0.00    +0.141 A 
ATOM     12  N   UNL     1      -1.148  -0.676   0.009  0.00  0.00    -0.232 NA
ENDBRANCH   1   2
BRANCH   1  13
ATOM     13  N   UNL     1      -3.190  -2.462   1.267  0.00  0.00    -0.338 N 
ATOM     14  H   UNL     1      -2.729  -1.811   2.024  0.00  0.00    +0.146 HD
BRANCH  13  19
ATOM     15  C   UNL     1      -8.272  -4.784   2.236  0.00  0.00    +0.044 C 
ATOM     16  C   UNL     1      -6.921  -4.166   1.978  0.00  0.00    -0.050 A 
ATOM     17  C   UNL     1      -6.263  -4.419   0.788  0.00  0.00    +0.005 A 
ATOM     18  C   UNL     1      -5.025  -3.855   0.549  0.00  0.00    +0.023 A 
ATOM     19  C   UNL     1      -4.442  -3.033   1.505  0.00  0.00    +0.030 A 
ATOM     20  C   UNL     1      -5.104  -2.785   2.701  0.00  0.00    -0.029 A 
ATOM     21  C   UNL     1      -6.344  -3.349   2.931  0.00  0.00    +0.008 A 
ATOM     22  C   UNL     1      -4.472  -1.899   3.743  0.00  0.00    +0.045 C 
ENDBRANCH  13  19
ENDBRANCH   1  13
TORSDOF 3
