REMARK  Name = ZINC49519270
REMARK  8 active torsions:
REMARK  status: ('A' for Active; 'I' for Inactive)
REMARK    1  A    between atoms: C_1  and  C_2
REMARK    2  A    between atoms: C_4  and  C_20
REMARK    3  A    between atoms: C_5  and  C_9
REMARK    4  A    between atoms: C_6  and  C_8
REMARK    5  A    between atoms: C_9  and  N_10
REMARK    6  A    between atoms: C_11  and  C_13
REMARK    7  A    between atoms: C_13  and  C_15
REMARK    8  A    between atoms: C_13  and  N_16
REMARK                            x       y       z     vdW  Elec       q    Type
REMARK                         _______ _______ _______ _____ _____    ______ ____
ROOT
ATOM      1  N   UNL     1       1.447  -4.746  -0.032  0.00  0.00    -0.310 N 
ATOM      2  C   UNL     1       1.710  -6.067  -0.040  0.00  0.00    +0.233 C 
ATOM      3  O   UNL     1       0.799  -6.867  -0.040  0.00  0.00    -0.274 OA
ATOM      4  H   UNL     1       2.176  -4.106  -0.032  0.00  0.00    +0.149 HD
ENDROOT
BRANCH   2   5
ATOM      5  C   UNL     1       3.137  -6.551  -0.051  0.00  0.00    +0.157 C 
ATOM      6  C   UNL     1       3.845  -6.025  -1.301  0.00  0.00    +0.038 C 
BRANCH   5   7
ATOM      7  N   UNL     1       3.156  -8.016  -0.059  0.00  0.00    -0.289 N 
ATOM      8  C   UNL     1       4.225  -8.679   0.425  0.00  0.00    +0.298 C 
ATOM      9  O   UNL     1       5.174  -8.061   0.868  0.00  0.00    -0.253 OA
ATOM     10  N   UNL     1       4.243 -10.027   0.417  0.00  0.00    -0.313 N 
ATOM     11  H   UNL     1       2.399  -8.509  -0.412  0.00  0.00    +0.151 HD
ATOM     12  H   UNL     1       3.486 -10.520   0.064  0.00  0.00    +0.146 HD
ATOM     13  H   UNL     1       5.012 -10.504   0.765  0.00  0.00    +0.146 HD
ENDBRANCH   5   7
ENDBRANCH   2   5
BRANCH   1  14
ATOM     14  C   UNL     1       0.059  -4.275  -0.021  0.00  0.00    +0.140 C 
BRANCH  14  19
ATOM     15  C   UNL     1      -0.018   1.503   0.010  0.00  0.00    +0.044 C 
ATOM     16  C   UNL     1       0.002  -0.004   0.002  0.00  0.00    -0.050 A 
ATOM     17  C   UNL     1       0.006  -0.689  -1.199  0.00  0.00    +0.007 A 
ATOM     18  C   UNL     1       0.025  -2.071  -1.206  0.00  0.00    -0.045 A 
ATOM     19  C   UNL     1       0.040  -2.768  -0.013  0.00  0.00    -0.024 A 
ATOM     20  C   UNL     1       0.037  -2.084   1.188  0.00  0.00    -0.045 A 
ATOM     21  C   UNL     1       0.023  -0.702   1.195  0.00  0.00    +0.007 A 
ATOM     22  C   UNL     1       0.054  -2.844   2.489  0.00  0.00    +0.044 C 
ATOM     23  C   UNL     1       0.027  -2.817  -2.516  0.00  0.00    +0.044 C 
ENDBRANCH  14  19
ENDBRANCH   1  14
TORSDOF 4
