REMARK  Name = ZINC23407532
REMARK  9 active torsions:
REMARK  status: ('A' for Active; 'I' for Inactive)
REMARK    1  A    between atoms: C_1  and  C_2
REMARK    2  A    between atoms: C_2  and  C_3
REMARK    3  A    between atoms: C_3  and  C_4
REMARK    4  A    between atoms: C_3  and  C_5
REMARK    5  A    between atoms: C_3  and  N_6
REMARK    6  A    between atoms: C_7  and  C_9
REMARK    7  A    between atoms: C_9  and  C_11
REMARK    8  A    between atoms: C_9  and  S_12
REMARK    9  A    between atoms: S_12  and  C_13
REMARK                            x       y       z     vdW  Elec       q    Type
REMARK                         _______ _______ _______ _____ _____    ______ ____
ROOT
ATOM      1  S   UNL     1      -3.821   1.921   0.616  0.00  0.00    -0.073 S 
ENDROOT
BRANCH   1   2
ATOM      2  C   UNL     1      -5.217   0.848   0.700  0.00  0.00    +0.198 A 
ATOM      3  N   UNL     1      -5.221  -0.422   0.389  0.00  0.00    -0.121 NA
ATOM      4  N   UNL     1      -6.519  -0.913   0.591  0.00  0.00    -0.121 NA
ATOM      5  C   UNL     1      -7.249   0.074   1.016  0.00  0.00    +0.202 A 
ATOM      6  N   UNL     1      -6.490   1.210   1.112  0.00  0.00    -0.264 N 
ATOM      7  C   UNL     1      -7.115   2.387   1.551  0.00  0.00    +0.065 A 
ATOM      8  C   UNL     1      -6.512   3.645   1.710  0.00  0.00    +0.027 A 
ATOM      9  C   UNL     1      -7.239   4.723   2.156  0.00  0.00    +0.002 A 
ATOM     10  C   UNL     1      -8.584   4.605   2.462  0.00  0.00    +0.001 A 
ATOM     11  C   UNL     1      -9.204   3.376   2.315  0.00  0.00    +0.017 A 
ATOM     12  C   UNL     1      -8.475   2.299   1.868  0.00  0.00    +0.040 A 
ATOM     13  S   UNL     1      -8.863   0.595   1.546  0.00  0.00    -0.048 S 
ENDBRANCH   1   2
BRANCH   1  14
ATOM     14  C   UNL     1      -2.482   0.853   0.018  0.00  0.00    +0.137 C 
ATOM     15  C   UNL     1      -2.799   0.384  -1.403  0.00  0.00    +0.029 C 
BRANCH  14  17
ATOM     16  N   UNL     1      -0.011   0.966   0.007  0.00  0.00    -0.309 N 
ATOM     17  C   UNL     1      -1.187   1.624   0.017  0.00  0.00    +0.227 C 
ATOM     18  O   UNL     1      -1.204   2.837   0.023  0.00  0.00    -0.275 OA
ATOM     19  H   UNL     1       0.004  -0.134   0.006  0.00  0.00    +0.149 HD
BRANCH  16  20
ATOM     20  C   UNL     1       1.248   1.716  -0.001  0.00  0.00    +0.029 C 
ATOM     21  C   UNL     1       1.305   2.603  -1.246  0.00  0.00    +0.031 C 
ATOM     22  C   UNL     1       1.329   2.589   1.253  0.00  0.00    +0.031 C 
BRANCH  20  24
ATOM     23  C   UNL     1       3.738   1.520  -0.025  0.00  0.00    +0.006 C 
ATOM     24  C   UNL     1       2.424   0.737  -0.017  0.00  0.00    +0.022 C 
ENDBRANCH  20  24
ENDBRANCH  16  20
ENDBRANCH  14  17
ENDBRANCH   1  14
TORSDOF 5
