REMARK  Name = ZINC41070140
REMARK  5 active torsions:
REMARK  status: ('A' for Active; 'I' for Inactive)
REMARK    1  A    between atoms: C_1  and  N_2
REMARK    2  A    between atoms: N_7  and  S_8
REMARK    3  A    between atoms: S_8  and  C_11
REMARK    4  A    between atoms: C_16  and  N_17
REMARK    5  A    between atoms: N_17  and  N_18
REMARK                            x       y       z     vdW  Elec       q    Type
REMARK                         _______ _______ _______ _____ _____    ______ ____
ROOT
ATOM      1  C   UNL     1      -1.380  -2.632   3.869  0.00  0.00    +0.150 A 
ATOM      2  C   UNL     1      -1.550  -1.475   4.607  0.00  0.00    +0.049 A 
ATOM      3  C   UNL     1      -2.842  -1.085   4.939  0.00  0.00    +0.038 A 
ATOM      4  C   UNL     1      -3.909  -1.858   4.526  0.00  0.00    +0.128 A 
ATOM      5  N   UNL     1      -3.716  -2.958   3.824  0.00  0.00    -0.236 NA
ATOM      6  C   UNL     1      -2.501  -3.360   3.482  0.00  0.00    +0.159 A 
ATOM      7 BR   UNL     1      -3.135   0.489   5.946  0.00  0.00    -0.049 Br
ENDROOT
BRANCH   1   8
ATOM      8  S   UNL     1       0.235  -3.175   3.419  0.00  0.00    +0.077 S 
ATOM      9  O   UNL     1       0.320  -4.545   3.785  0.00  0.00    -0.150 OA
ATOM     10  O   UNL     1       1.143  -2.197   3.909  0.00  0.00    -0.150 OA
BRANCH   8  17
ATOM     11  C   UNL     1       0.048   1.708   0.857  0.00  0.00    +0.172 C 
ATOM     12  N   UNL     1       0.118   0.258   0.658  0.00  0.00    -0.273 N 
ATOM     13  C   UNL     1       0.119  -0.380  -0.532  0.00  0.00    +0.110 A 
ATOM     14  C   UNL     1       0.196  -1.708  -0.291  0.00  0.00    +0.066 A 
ATOM     15  C   UNL     1       0.244  -1.891   1.101  0.00  0.00    +0.160 A 
ATOM     16  N   UNL     1       0.202  -0.709   1.668  0.00  0.00    -0.155 NA
ATOM     17  N   UNL     1       0.327  -3.120   1.766  0.00  0.00    -0.198 N 
ATOM     18  H   UNL     1       0.439  -3.939   1.259  0.00  0.00    +0.175 HD
ENDBRANCH   8  17
ENDBRANCH   1   8
BRANCH   6  19
ATOM     19  N   UNL     1      -2.344  -4.522   2.735  0.00  0.00    -0.266 N 
ATOM     20  H   UNL     1      -1.457  -4.813   2.472  0.00  0.00    +0.167 HD
BRANCH  19  21
ATOM     21  N   UNL     1      -3.439  -5.253   2.372  0.00  0.00    -0.255 NA
ATOM     22  H   UNL     1      -4.027  -4.734   1.737  0.00  0.00    +0.140 HD
ATOM     23  H   UNL     1      -3.166  -6.138   1.970  0.00  0.00    +0.140 HD
ENDBRANCH  19  21
ENDBRANCH   6  19
TORSDOF 4
