REMARK  Name = ZINC39914108
REMARK  11 active torsions:
REMARK  status: ('A' for Active; 'I' for Inactive)
REMARK    1  A    between atoms: C_1  and  C_2
REMARK    2  A    between atoms: C_4  and  O_33
REMARK    3  A    between atoms: C_5  and  C_9
REMARK    4  A    between atoms: N_17  and  C_29
REMARK    5  A    between atoms: C_18  and  C_20
REMARK    6  A    between atoms: C_23  and  C_26
REMARK    7  A    between atoms: C_26  and  C_27
REMARK    8  A    between atoms: C_26  and  C_28
REMARK    9  A    between atoms: C_29  and  C_30
REMARK   10  A    between atoms: C_30  and  O_31
REMARK   11  A    between atoms: O_31  and  C_32
REMARK                            x       y       z     vdW  Elec       q    Type
REMARK                         _______ _______ _______ _____ _____    ______ ____
ROOT
ATOM      1  C   UNL     1      -0.599  -3.658   0.521  0.00  0.00    +0.102 A 
ATOM      2  C   UNL     1      -0.174  -4.713   1.335  0.00  0.00    +0.035 A 
ATOM      3  C   UNL     1       0.012  -5.790   0.490  0.00  0.00    +0.126 A 
ATOM      4  N   UNL     1      -0.301  -5.347  -0.764  0.00  0.00    -0.272 N 
ATOM      5  H   UNL     1      -0.265  -5.886  -1.570  0.00  0.00    +0.189 HD
ATOM      6  N   UNL     1      -0.656  -4.113  -0.715  0.00  0.00    -0.173 NA
ATOM      7  C   UNL     1       0.461  -6.937   1.287  0.00  0.00    +0.266 C 
ATOM      8  O   UNL     1       0.713  -8.039   0.838  0.00  0.00    -0.268 OA
ATOM      9  N   UNL     1       0.554  -6.598   2.586  0.00  0.00    -0.283 N 
ATOM     10  C   UNL     1       0.168  -5.187   2.721  0.00  0.00    +0.141 C 
ENDROOT
BRANCH   1  15
ATOM     11  C   UNL     1      -1.888   1.684   2.258  0.00  0.00    +0.045 C 
ATOM     12  C   UNL     1      -1.551   0.288   1.801  0.00  0.00    -0.029 A 
ATOM     13  C   UNL     1      -1.534  -0.009   0.451  0.00  0.00    +0.050 A 
ATOM     14  C   UNL     1      -1.226  -1.291   0.027  0.00  0.00    +0.126 A 
ATOM     15  C   UNL     1      -0.930  -2.282   0.967  0.00  0.00    +0.045 A 
ATOM     16  C   UNL     1      -0.949  -1.973   2.325  0.00  0.00    +0.034 A 
ATOM     17  C   UNL     1      -1.253  -0.690   2.735  0.00  0.00    +0.045 A 
ATOM     18 CL   UNL     1      -1.270  -0.303   4.428  0.00  0.00    -0.083 Cl
BRANCH  14  19
ATOM     19  O   UNL     1      -1.210  -1.585  -1.300  0.00  0.00    -0.506 OA
ATOM     20  H   UNL     1      -0.351  -1.451  -1.722  0.00  0.00    +0.292 HD
ENDBRANCH  14  19
ENDBRANCH   1  15
BRANCH  10  21
ATOM     21  C   UNL     1       1.317  -4.385   3.276  0.00  0.00    -0.022 A 
ATOM     22  C   UNL     1       1.097  -3.473   4.290  0.00  0.00    +0.006 A 
ATOM     23  C   UNL     1       2.151  -2.737   4.798  0.00  0.00    +0.004 A 
ATOM     24  C   UNL     1       3.425  -2.914   4.292  0.00  0.00    -0.045 A 
ATOM     25  C   UNL     1       3.645  -3.827   3.278  0.00  0.00    +0.004 A 
ATOM     26  C   UNL     1       2.592  -4.566   2.773  0.00  0.00    +0.006 A 
BRANCH  24  27
ATOM     27  C   UNL     1       4.575  -2.111   4.845  0.00  0.00    +0.013 C 
ATOM     28  C   UNL     1       5.627  -3.059   5.424  0.00  0.00    +0.012 C 
ATOM     29  C   UNL     1       5.200  -1.277   3.725  0.00  0.00    +0.012 C 
ENDBRANCH  24  27
ENDBRANCH  10  21
BRANCH   9  30
ATOM     30  C   UNL     1       0.970  -7.482   3.676  0.00  0.00    +0.137 C 
BRANCH  30  31
ATOM     31  C   UNL     1      -0.267  -8.090   4.340  0.00  0.00    +0.178 C 
BRANCH  31  32
ATOM     32  O   UNL     1      -0.936  -8.944   3.409  0.00  0.00    -0.381 OA
ATOM     33  C   UNL     1      -2.154  -9.503   3.905  0.00  0.00    +0.194 C 
ENDBRANCH  31  32
ENDBRANCH  30  31
ENDBRANCH   9  30
TORSDOF 7
