REMARK  Name = ZINC19869401
REMARK  3 active torsions:
REMARK  status: ('A' for Active; 'I' for Inactive)
REMARK    1  A    between atoms: C_3  and  S_9
REMARK    2  A    between atoms: C_4  and  N_8
REMARK    3  A    between atoms: S_9  and  C_10
REMARK                            x       y       z     vdW  Elec       q    Type
REMARK                         _______ _______ _______ _____ _____    ______ ____
ROOT
ATOM      1  C   UNL     1       1.726   1.548  -0.180  0.00  0.00    +0.039 A 
ATOM      2  C   UNL     1       1.981   0.190  -0.146  0.00  0.00    +0.020 A 
ATOM      3  C   UNL     1       0.930  -0.712  -0.067  0.00  0.00    +0.035 A 
ATOM      4  C   UNL     1      -0.384  -0.244  -0.022  0.00  0.00    +0.041 A 
ATOM      5  C   UNL     1      -0.633   1.119  -0.056  0.00  0.00    +0.062 A 
ATOM      6  C   UNL     1       0.422   2.013  -0.135  0.00  0.00    +0.125 A 
ATOM      7  F   UNL     1       0.179   3.341  -0.169  0.00  0.00    -0.205 F 
ENDROOT
BRANCH   4   8
ATOM      8  N   UNL     1      -1.448  -1.150   0.058  0.00  0.00    -0.357 N 
ATOM      9  H   UNL     1      -2.483  -0.780   0.093  0.00  0.00    +0.142 HD
ATOM     10  H   UNL     1      -1.249  -2.231   0.085  0.00  0.00    +0.142 HD
ENDBRANCH   4   8
BRANCH   3  11
ATOM     11  S   UNL     1       1.253  -2.443  -0.024  0.00  0.00    -0.059 S 
BRANCH  11  12
ATOM     12  C   UNL     1       0.974  -2.764   1.686  0.00  0.00    +0.163 A 
ATOM     13  N   UNL     1       0.711  -1.926   2.681  0.00  0.00    -0.135 NA
ATOM     14  N   UNL     1       0.531  -2.331   3.861  0.00  0.00    -0.149 NA
ATOM     15  C   UNL     1       0.605  -3.606   4.185  0.00  0.00    +0.182 A 
ATOM     16  S   UNL     1       0.973  -4.315   2.582  0.00  0.00    -0.047 S 
ENDBRANCH  11  12
ENDBRANCH   3  11
TORSDOF 3
