REMARK  Name = ZINC16029962
REMARK  8 active torsions:
REMARK  status: ('A' for Active; 'I' for Inactive)
REMARK    1  A    between atoms: C_1  and  C_2
REMARK    2  A    between atoms: C_5  and  N_11
REMARK    3  A    between atoms: C_6  and  N_8
REMARK    4  A    between atoms: N_11  and  C1*_12
REMARK    5  A    between atoms: C2*_14  and  O2*_24
REMARK    6  A    between atoms: C3*_16  and  O3*_23
REMARK    7  A    between atoms: C4*_18  and  C5*_21
REMARK    8  A    between atoms: C5*_21  and  O5*_22
REMARK                            x       y       z     vdW  Elec       q    Type
REMARK                         _______ _______ _______ _____ _____    ______ ____
ROOT
ATOM      1  N   UNL     1      -2.633   2.804   4.733  0.00  0.00    -0.315 N 
ATOM      2  H   UNL     1      -2.107   3.031   5.515  0.00  0.00    +0.149 HD
ENDROOT
BRANCH   1   7
ATOM      3  C   UNL     1      -0.048   1.203  -0.054  0.00  0.00    +0.044 C 
ATOM      4  C   UNL     1      -0.735   1.628   1.218  0.00  0.00    -0.048 A 
ATOM      5  C   UNL     1      -2.105   1.813   1.234  0.00  0.00    +0.005 A 
ATOM      6  C   UNL     1      -2.739   2.197   2.399  0.00  0.00    +0.025 A 
ATOM      7  C   UNL     1      -1.996   2.409   3.554  0.00  0.00    +0.060 A 
ATOM      8  C   UNL     1      -0.620   2.227   3.534  0.00  0.00    +0.147 A 
ATOM      9  C   UNL     1       0.007   1.837   2.366  0.00  0.00    +0.038 A 
BRANCH   8  10
ATOM     10  N   UNL     1       0.175   2.452   4.762  0.00  0.00    +0.058 N 
ATOM     11  O   UNL     1      -0.115   3.363   5.517  0.00  0.00    -0.126 OA
ATOM     12  O   UNL     1       1.120   1.726   5.017  0.00  0.00    -0.126 OA
ENDBRANCH   8  10
ENDBRANCH   1   7
BRANCH   1  13
ATOM     13  C1* UNL     1      -4.095   2.875   4.787  0.00  0.00    +0.235 C 
ATOM     14  C2* UNL     1      -4.600   2.501   6.198  0.00  0.00    +0.192 C 
ATOM     15  C3* UNL     1      -5.798   3.452   6.431  0.00  0.00    +0.178 C 
ATOM     16  C4* UNL     1      -5.875   4.284   5.132  0.00  0.00    +0.177 C 
ATOM     17  O4* UNL     1      -4.540   4.234   4.581  0.00  0.00    -0.348 OA
BRANCH  15  18
ATOM     18  O3* UNL     1      -7.000   2.704   6.618  0.00  0.00    -0.386 OA
ATOM     19  H3* UNL     1      -7.006   2.163   7.420  0.00  0.00    +0.210 HD
ENDBRANCH  15  18
BRANCH  14  20
ATOM     20  O2* UNL     1      -3.581   2.732   7.172  0.00  0.00    -0.385 OA
ATOM     21  H2* UNL     1      -2.781   2.206   7.037  0.00  0.00    +0.210 HD
ENDBRANCH  14  20
BRANCH  16  22
ATOM     22  C5* UNL     1      -6.266   5.729   5.447  0.00  0.00    +0.190 C 
BRANCH  22  23
ATOM     23  O5* UNL     1      -6.373   6.471   4.230  0.00  0.00    -0.392 OA
ATOM     24  H5* UNL     1      -6.619   7.397   4.355  0.00  0.00    +0.210 HD
ENDBRANCH  22  23
ENDBRANCH  16  22
ENDBRANCH   1  13
TORSDOF 7
