REMARK  Name = ZINC13019259
REMARK  7 active torsions:
REMARK  status: ('A' for Active; 'I' for Inactive)
REMARK    1  A    between atoms: C_1  and  C_2
REMARK    2  A    between atoms: C_2  and  C_3
REMARK    3  A    between atoms: C_2  and  N_4
REMARK    4  A    between atoms: C_13  and  C_15
REMARK    5  A    between atoms: N_17  and  N_18
REMARK    6  A    between atoms: N_18  and  S_19
REMARK    7  A    between atoms: S_19  and  C_22
REMARK                            x       y       z     vdW  Elec       q    Type
REMARK                         _______ _______ _______ _____ _____    ______ ____
ROOT
ATOM      1  C   UNL     1       2.442  -2.949  -0.038  0.00  0.00    +0.279 C 
ATOM      2  O   UNL     1       3.517  -2.381  -0.045  0.00  0.00    -0.267 OA
ATOM      3  N   UNL     1       2.392  -4.296  -0.045  0.00  0.00    -0.226 N 
ATOM      4  H   UNL     1       1.534  -4.749  -0.040  0.00  0.00    +0.171 HD
ENDROOT
BRANCH   1  14
ATOM      5  N   UNL     1      -1.098  -2.162   0.000  0.00  0.00    -0.226 N 
ATOM      6  C   UNL     1      -1.221  -0.819   0.009  0.00  0.00    +0.275 A 
ATOM      7  O   UNL     1      -2.319  -0.294   0.022  0.00  0.00    -0.266 OA
ATOM      8  C   UNL     1       0.002  -0.004   0.002  0.00  0.00    +0.050 A 
ATOM      9  C   UNL     1      -0.017   1.387   0.010  0.00  0.00    +0.014 A 
ATOM     10  C   UNL     1       1.176   2.079   0.002  0.00  0.00    +0.001 A 
ATOM     11  C   UNL     1       2.389   1.403  -0.013  0.00  0.00    +0.001 A 
ATOM     12  C   UNL     1       2.428   0.024  -0.021  0.00  0.00    +0.011 A 
ATOM     13  C   UNL     1       1.237  -0.693  -0.013  0.00  0.00    +0.020 A 
ATOM     14  C   UNL     1       1.192  -2.164  -0.021  0.00  0.00    +0.155 A 
ATOM     15  N   UNL     1       0.029  -2.768  -0.014  0.00  0.00    -0.163 NA
BRANCH   5  17
ATOM     16  C   UNL     1      -2.359  -3.846  -1.247  0.00  0.00    +0.032 C 
ATOM     17  C   UNL     1      -2.320  -2.970   0.007  0.00  0.00    +0.105 C 
ATOM     18  C   UNL     1      -2.335  -3.861   1.251  0.00  0.00    +0.032 C 
ENDBRANCH   5  17
ENDBRANCH   1  14
BRANCH   3  19
ATOM     19  N   UNL     1       3.578  -5.042  -0.061  0.00  0.00    -0.108 NA
ATOM     20  H   UNL     1       4.238  -4.888  -0.755  0.00  0.00    +0.172 HD
BRANCH  19  21
ATOM     21  S   UNL     1       3.853  -6.185   1.105  0.00  0.00    +0.074 S 
ATOM     22  O   UNL     1       5.050  -6.858   0.739  0.00  0.00    -0.152 OA
ATOM     23  O   UNL     1       3.697  -5.534   2.358  0.00  0.00    -0.152 OA
BRANCH  21  24
ATOM     24  C   UNL     1       2.554  -7.370   0.989  0.00  0.00    +0.107 A 
ATOM     25  C   UNL     1       1.396  -7.200   1.726  0.00  0.00    +0.031 A 
ATOM     26  C   UNL     1       0.375  -8.126   1.632  0.00  0.00    +0.040 A 
ATOM     27  C   UNL     1       0.515  -9.230   0.807  0.00  0.00    +0.124 A 
ATOM     28  C   UNL     1       1.676  -9.401   0.073  0.00  0.00    +0.040 A 
ATOM     29  C   UNL     1       2.694  -8.471   0.165  0.00  0.00    +0.031 A 
ATOM     30  F   UNL     1      -0.481 -10.138   0.718  0.00  0.00    -0.205 F 
ENDBRANCH  21  24
ENDBRANCH  19  21
ENDBRANCH   3  19
TORSDOF 5
