REMARK  Name = ZINC05946317
REMARK  3 active torsions:
REMARK  status: ('A' for Active; 'I' for Inactive)
REMARK    1  A    between atoms: C_4  and  N_7
REMARK    2  A    between atoms: C_14  and  C_15
REMARK    3  A    between atoms: C_18  and  N_21
REMARK                            x       y       z     vdW  Elec       q    Type
REMARK                         _______ _______ _______ _____ _____    ______ ____
ROOT
ATOM      1  N   UNL     1       4.181  -1.123  -2.317  0.00  0.00    -0.294 N 
ATOM      2  C   UNL     1       4.087  -2.381  -1.787  0.00  0.00    +0.165 A 
ATOM      3  N   UNL     1       3.028  -3.178  -1.714  0.00  0.00    -0.209 NA
ATOM      4  C   UNL     1       3.074  -4.380  -1.172  0.00  0.00    +0.143 A 
ATOM      5  C   UNL     1       4.348  -4.785  -0.659  0.00  0.00    +0.079 A 
ATOM      6  S   UNL     1       5.362  -3.375  -1.021  0.00  0.00    -0.049 S 
ATOM      7  C   UNL     1       4.529  -6.021  -0.067  0.00  0.00    +0.059 C 
ATOM      8  C   UNL     1       5.842  -6.413   0.452  0.00  0.00    +0.034 C 
ATOM      9  N   UNL     1       3.478  -6.858   0.025  0.00  0.00    -0.330 N 
ATOM     10  C   UNL     1       2.300  -6.504  -0.441  0.00  0.00    +0.161 C 
ATOM     11  N   UNL     1       2.062  -5.309  -1.029  0.00  0.00    -0.273 N 
ATOM     12  N   UNL     1       1.261  -7.390  -0.325  0.00  0.00    -0.332 N 
ATOM     13  H   UNL     1       5.045  -0.689  -2.384  0.00  0.00    +0.154 HD
ATOM     14  H   UNL     1       1.405  -8.254   0.093  0.00  0.00    +0.145 HD
ATOM     15  H   UNL     1       1.171  -5.103  -1.354  0.00  0.00    +0.156 HD
ATOM     16  H   UNL     1       0.382  -7.154  -0.660  0.00  0.00    +0.145 HD
ATOM     17  H   UNL     1       3.591  -7.728   0.438  0.00  0.00    +0.168 HD
ENDROOT
BRANCH   1  21
ATOM     18  C   UNL     1       0.755   0.838  -3.642  0.00  0.00    +0.000 A 
ATOM     19  C   UNL     1       0.658  -0.138  -2.667  0.00  0.00    +0.002 A 
ATOM     20  C   UNL     1       1.792  -0.791  -2.225  0.00  0.00    +0.023 A 
ATOM     21  C   UNL     1       3.032  -0.466  -2.761  0.00  0.00    +0.033 A 
ATOM     22  C   UNL     1       3.126   0.515  -3.741  0.00  0.00    +0.023 A 
ATOM     23  C   UNL     1       1.988   1.164  -4.178  0.00  0.00    +0.002 A 
ENDBRANCH   1  21
BRANCH   8  24
ATOM     24  C   UNL     1       6.876  -5.466   0.535  0.00  0.00    -0.023 A 
ATOM     25  C   UNL     1       6.622  -4.180   1.059  0.00  0.00    +0.010 A 
ATOM     26  C   UNL     1       7.636  -3.268   1.135  0.00  0.00    +0.033 A 
ATOM     27  C   UNL     1       8.911  -3.601   0.700  0.00  0.00    +0.126 A 
ATOM     28  C   UNL     1       9.173  -4.862   0.183  0.00  0.00    +0.033 A 
ATOM     29  C   UNL     1       8.178  -5.794   0.102  0.00  0.00    +0.010 A 
BRANCH  27  30
ATOM     30  N   UNL     1      10.000  -2.603   0.788  0.00  0.00    +0.056 N 
ATOM     31  O   UNL     1       9.758  -1.405   1.278  0.00  0.00    -0.126 OA
ATOM     32  O   UNL     1      11.212  -2.913   0.377  0.00  0.00    -0.126 OA
ENDBRANCH  27  30
ENDBRANCH   8  24
TORSDOF 3
