REMARK  Name = ZINC28323730
REMARK  2 active torsions:
REMARK  status: ('A' for Active; 'I' for Inactive)
REMARK    1  A    between atoms: C_4  and  C_7
REMARK    2  A    between atoms: N_10  and  N_11
REMARK                            x       y       z     vdW  Elec       q    Type
REMARK                         _______ _______ _______ _____ _____    ______ ____
ROOT
ATOM      1  C   UNL     1       0.986   6.594  -0.248  0.00  0.00    +0.138 A 
ATOM      2  C   UNL     1       2.231   6.068  -0.284  0.00  0.00    +0.074 A 
ATOM      3  C   UNL     1       2.389   4.628  -0.001  0.00  0.00    +0.067 A 
ATOM      4  N   UNL     1       3.563   4.088   0.224  0.00  0.00    -0.304 N 
ATOM      5  C   UNL     1       1.138   3.826   0.013  0.00  0.00    +0.043 A 
ATOM      6  C   UNL     1       1.167   2.439   0.004  0.00  0.00    +0.033 A 
ATOM      7  C   UNL     1      -0.021   1.732   0.012  0.00  0.00    +0.042 A 
ATOM      8  C   UNL     1      -1.231   2.407   0.021  0.00  0.00    +0.023 A 
ATOM      9  C   UNL     1      -1.266   3.788   0.036  0.00  0.00    +0.048 A 
ATOM     10  C   UNL     1      -0.083   4.513   0.032  0.00  0.00    +0.138 A 
ATOM     11  O   UNL     1      -0.105   5.864   0.049  0.00  0.00    -0.455 OA
ATOM     12 CL   UNL     1       0.002  -0.004   0.002  0.00  0.00    -0.084 Cl
ATOM     13  H   UNL     1       3.643   3.010   0.431  0.00  0.00    +0.184 HD
ENDROOT
BRANCH   4  14
ATOM     14  N   UNL     1       4.716   4.883   0.201  0.00  0.00    -0.243 N 
ATOM     15  C   UNL     1       5.955   4.313   0.438  0.00  0.00    +0.137 A 
ATOM     16  C   UNL     1       7.099   5.125   0.410  0.00  0.00    +0.046 A 
ATOM     17  C   UNL     1       8.325   4.578   0.643  0.00  0.00    +0.013 A 
ATOM     18  C   UNL     1       8.400   3.194   0.906  0.00  0.00    +0.001 A 
ATOM     19  C   UNL     1       9.630   2.567   1.155  0.00  0.00    +0.010 A 
ATOM     20  C   UNL     1       9.666   1.228   1.406  0.00  0.00    +0.001 A 
ATOM     21  C   UNL     1       8.496   0.473   1.420  0.00  0.00    +0.002 A 
ATOM     22  C   UNL     1       7.285   1.050   1.184  0.00  0.00    +0.028 A 
ATOM     23  C   UNL     1       7.209   2.429   0.920  0.00  0.00    +0.073 A 
ATOM     24  N   UNL     1       6.032   3.021   0.690  0.00  0.00    -0.231 NA
ATOM     25  H   UNL     1       4.637   5.960  -0.007  0.00  0.00    +0.174 HD
ENDBRANCH   4  14
BRANCH   1  29
ATOM     26  C   UNL     1       0.498  10.723  -1.108  0.00  0.00    +0.000 A 
ATOM     27  C   UNL     1      -0.606   9.949  -0.799  0.00  0.00    +0.001 A 
ATOM     28  C   UNL     1      -0.455   8.607  -0.519  0.00  0.00    +0.011 A 
ATOM     29  C   UNL     1       0.817   8.030  -0.547  0.00  0.00    +0.017 A 
ATOM     30  C   UNL     1       1.928   8.819  -0.854  0.00  0.00    +0.011 A 
ATOM     31  C   UNL     1       1.761  10.158  -1.138  0.00  0.00    +0.001 A 
ENDBRANCH   1  29
TORSDOF 2
