REMARK  Name = ZINC30756436
REMARK  9 active torsions:
REMARK  status: ('A' for Active; 'I' for Inactive)
REMARK    1  A    between atoms: C_1  and  C_2
REMARK    2  A    between atoms: C_2  and  C_3
REMARK    3  A    between atoms: C_2  and  C_4
REMARK    4  A    between atoms: C_4  and  C_6
REMARK    5  A    between atoms: C_4  and  S_17
REMARK    6  A    between atoms: N_8  and  C_9
REMARK    7  A    between atoms: C_10  and  C_14
REMARK    8  A    between atoms: S_17  and  C_18
REMARK    9  A    between atoms: N_22  and  C_27
REMARK                            x       y       z     vdW  Elec       q    Type
REMARK                         _______ _______ _______ _____ _____    ______ ____
ROOT
ATOM      1  C   UNL     1      -0.713   4.195   0.070  0.00  0.00    +0.141 C 
ENDROOT
BRANCH   1   2
ATOM      2  C   UNL     1      -1.107   5.616  -0.240  0.00  0.00    +0.231 C 
ATOM      3  O   UNL     1      -0.305   6.514  -0.094  0.00  0.00    -0.274 OA
ATOM      4  N   UNL     1      -2.351   5.889  -0.681  0.00  0.00    -0.278 N 
ATOM      5  H   UNL     1      -3.079   5.075  -0.814  0.00  0.00    +0.155 HD
BRANCH   4   6
ATOM      6  C   UNL     1      -2.714   7.197  -0.966  0.00  0.00    +0.084 A 
ATOM      7  C   UNL     1      -3.935   7.672  -1.431  0.00  0.00    +0.065 A 
ATOM      8  C   UNL     1      -4.040   9.096  -1.641  0.00  0.00    +0.022 A 
ATOM      9  C   UNL     1      -2.948   9.837  -1.381  0.00  0.00    +0.048 A 
ATOM     10  S   UNL     1      -1.755   8.632  -0.838  0.00  0.00    -0.081 S 
BRANCH   7  11
ATOM     11  C   UNL     1      -5.063   6.771  -1.690  0.00  0.00    +0.244 C 
ATOM     12  O   UNL     1      -4.942   5.575  -1.500  0.00  0.00    -0.270 OA
ATOM     13  N   UNL     1      -6.232   7.268  -2.141  0.00  0.00    -0.325 N 
ATOM     14  H   UNL     1      -7.078   6.592  -2.335  0.00  0.00    +0.145 HD
ATOM     15  H   UNL     1      -6.340   8.348  -2.313  0.00  0.00    +0.145 HD
ENDBRANCH   7  11
ENDBRANCH   4   6
ENDBRANCH   1   2
BRANCH   1  17
ATOM     16  C   UNL     1      -0.961   2.327   1.710  0.00  0.00    +0.009 C 
ATOM     17  C   UNL     1      -1.245   3.808   1.451  0.00  0.00    +0.005 C 
ATOM     18  C   UNL     1      -0.552   4.655   2.520  0.00  0.00    +0.009 C 
ENDBRANCH   1  17
BRANCH   1  19
ATOM     19  S   UNL     1       1.092   4.054   0.057  0.00  0.00    -0.092 S 
BRANCH  19  20
ATOM     20  C   UNL     1       1.407   4.303  -1.658  0.00  0.00    +0.112 A 
ATOM     21  C   UNL     1       2.724   4.301  -2.159  0.00  0.00    +0.070 A 
ATOM     22  C   UNL     1       4.003   4.134  -1.585  0.00  0.00    +0.147 A 
ATOM     23  N   UNL     1       4.894   4.228  -2.531  0.00  0.00    -0.177 NA
ATOM     24  N   UNL     1       4.258   4.458  -3.757  0.00  0.00    -0.249 N 
ATOM     25  C   UNL     1       2.914   4.506  -3.539  0.00  0.00    +0.162 A 
ATOM     26  N   UNL     1       1.846   4.691  -4.314  0.00  0.00    -0.216 NA
ATOM     27  C   UNL     1       0.635   4.684  -3.801  0.00  0.00    +0.224 A 
ATOM     28  N   UNL     1       0.407   4.497  -2.513  0.00  0.00    -0.228 NA
ATOM     29  C   UNL     1       4.924   4.620  -5.052  0.00  0.00    +0.174 C 
ENDBRANCH  19  20
ENDBRANCH   1  19
TORSDOF 6
