REMARK  Name = ZINC10933079
REMARK  7 active torsions:
REMARK  status: ('A' for Active; 'I' for Inactive)
REMARK    1  A    between atoms: C_1  and  C_2
REMARK    2  A    between atoms: C_7  and  C_13
REMARK    3  A    between atoms: C_13  and  O_14
REMARK    4  A    between atoms: O_14  and  C_15
REMARK    5  A    between atoms: C_15  and  C_17
REMARK    6  A    between atoms: C_18  and  S_22
REMARK    7  A    between atoms: S_22  and  N_25
REMARK                            x       y       z     vdW  Elec       q    Type
REMARK                         _______ _______ _______ _____ _____    ______ ____
ROOT
ATOM      1  O   UNL     1       1.879  -2.682  -0.030  0.00  0.00    -0.454 OA
ENDROOT
BRANCH   1   2
ATOM      2  C   UNL     1       2.528  -1.500  -0.030  0.00  0.00    +0.348 C 
ATOM      3  O   UNL     1       3.744  -1.474  -0.041  0.00  0.00    -0.244 OA
BRANCH   2   4
ATOM      4  C   UNL     1       1.769  -0.248  -0.016  0.00  0.00    +0.122 A 
ATOM      5  C   UNL     1       2.237   1.058  -0.014  0.00  0.00    +0.126 A 
ATOM      6  C   UNL     1       1.298   2.058   0.001  0.00  0.00    +0.037 A 
ATOM      7  C   UNL     1      -0.021   1.729   0.012  0.00  0.00    +0.048 A 
ATOM      8  S   UNL     1       0.002  -0.004   0.002  0.00  0.00    -0.088 S 
BRANCH   5   9
ATOM      9  S   UNL     1       3.962   1.417  -0.028  0.00  0.00    +0.057 S 
ATOM     10  O   UNL     1       4.533   0.628  -1.063  0.00  0.00    -0.153 OA
ATOM     11  O   UNL     1       4.082   2.833   0.006  0.00  0.00    -0.153 OA
BRANCH   9  12
ATOM     12  N   UNL     1       4.591   0.855   1.397  0.00  0.00    -0.203 NA
ATOM     13  H   UNL     1       4.013   0.423   2.046  0.00  0.00    +0.144 HD
ATOM     14  H   UNL     1       5.537   0.958   1.584  0.00  0.00    +0.144 HD
ENDBRANCH   9  12
ENDBRANCH   5   9
ENDBRANCH   2   4
ENDBRANCH   1   2
BRANCH   1  15
ATOM     15  C   UNL     1       2.695  -3.883  -0.044  0.00  0.00    +0.288 C 
BRANCH  15  22
ATOM     16  C   UNL     1      -2.316  -9.818   1.124  0.00  0.00    +0.045 C 
ATOM     17  C   UNL     1      -1.416  -8.610   1.099  0.00  0.00    -0.034 A 
ATOM     18  C   UNL     1      -1.391  -7.734   2.194  0.00  0.00    +0.008 A 
ATOM     19  C   UNL     1      -0.574  -6.644   2.164  0.00  0.00    +0.047 A 
ATOM     20  C   UNL     1       0.231  -6.413   1.034  0.00  0.00    +0.141 A 
ATOM     21  N   UNL     1       1.030  -5.348   1.003  0.00  0.00    -0.231 NA
ATOM     22  C   UNL     1       1.803  -5.097  -0.042  0.00  0.00    +0.086 A 
ATOM     23  C   UNL     1       1.788  -5.944  -1.133  0.00  0.00    +0.097 A 
ATOM     24  C   UNL     1       0.954  -7.068  -1.106  0.00  0.00    +0.259 A 
ATOM     25  O   UNL     1       0.922  -7.839  -2.052  0.00  0.00    -0.267 OA
ATOM     26  N   UNL     1       0.184  -7.285  -0.018  0.00  0.00    -0.268 N 
ATOM     27  C   UNL     1      -0.636  -8.372   0.021  0.00  0.00    +0.099 A 
ENDBRANCH  15  22
ENDBRANCH   1  15
TORSDOF 6
