REMARK  Name = ZINC36585490
REMARK  14 active torsions:
REMARK  status: ('A' for Active; 'I' for Inactive)
REMARK    1  A    between atoms: C_1  and  C_2
REMARK    2  A    between atoms: C_5  and  S_8
REMARK    3  A    between atoms: S_8  and  C_11
REMARK    4  A    between atoms: C_11  and  N_12
REMARK    5  A    between atoms: C_13  and  C_15
REMARK    6  A    between atoms: C_15  and  C_17
REMARK    7  A    between atoms: C_15  and  N_26
REMARK    8  A    between atoms: C_18  and  O_25
REMARK    9  A    between atoms: C_20  and  O_24
REMARK   10  A    between atoms: C_22  and  O_23
REMARK   11  A    between atoms: N_26  and  C_29
REMARK   12  A    between atoms: C_29  and  C_30
REMARK   13  A    between atoms: C_29  and  C_31
REMARK   14  A    between atoms: C_29  and  C_32
REMARK                            x       y       z     vdW  Elec       q    Type
REMARK                         _______ _______ _______ _____ _____    ______ ____
ROOT
ATOM      1  C   UNL     1       3.465  -5.668   2.095  0.00  0.00    +0.199 C 
ENDROOT
BRANCH   1   2
ATOM      2  C   UNL     1       2.824  -4.306   2.159  0.00  0.00    +0.065 A 
ATOM      3  C   UNL     1       1.652  -4.125   2.878  0.00  0.00    +0.129 A 
ATOM      4  C   UNL     1       1.061  -2.871   2.936  0.00  0.00    +0.091 A 
ATOM      5  C   UNL     1       1.643  -1.799   2.276  0.00  0.00    +0.124 A 
ATOM      6  C   UNL     1       2.815  -1.981   1.558  0.00  0.00    +0.091 A 
ATOM      7  C   UNL     1       3.408  -3.233   1.503  0.00  0.00    +0.129 A 
BRANCH   7   8
ATOM      8  O   UNL     1       4.559  -3.410   0.803  0.00  0.00    -0.506 OA
ATOM      9  H   UNL     1       4.423  -3.648  -0.124  0.00  0.00    +0.292 HD
ENDBRANCH   7   8
BRANCH   5  10
ATOM     10  O   UNL     1       1.064  -0.571   2.332  0.00  0.00    -0.507 OA
ATOM     11  H   UNL     1       1.368  -0.027   3.071  0.00  0.00    +0.292 HD
ENDBRANCH   5  10
BRANCH   3  12
ATOM     12  O   UNL     1       1.082  -5.175   3.525  0.00  0.00    -0.506 OA
ATOM     13  H   UNL     1       1.373  -5.277   4.441  0.00  0.00    +0.292 HD
ENDBRANCH   3  12
ENDBRANCH   1   2
BRANCH   1  15
ATOM     14  N   UNL     1       2.494  -6.559   0.002  0.00  0.00    -0.294 N 
ATOM     15  C   UNL     1       2.562  -6.615   1.347  0.00  0.00    +0.240 C 
ATOM     16  O   UNL     1       1.897  -7.426   1.955  0.00  0.00    -0.273 OA
ATOM     17  H   UNL     1       3.027  -5.910  -0.484  0.00  0.00    +0.150 HD
BRANCH  14  18
ATOM     18  C   UNL     1       1.617  -7.479  -0.725  0.00  0.00    +0.278 C 
BRANCH  18  19
ATOM     19  S   UNL     1       0.024  -6.671  -1.044  0.00  0.00    +0.013 S 
ATOM     20  O   UNL     1      -0.456  -6.051   0.141  0.00  0.00    -0.168 OA
ATOM     21  O   UNL     1      -0.816  -7.528  -1.804  0.00  0.00    -0.168 OA
BRANCH  19  26
ATOM     22  C   UNL     1       1.320  -2.096  -4.758  0.00  0.00    +0.044 C 
ATOM     23  C   UNL     1       0.996  -3.239  -3.830  0.00  0.00    -0.050 A 
ATOM     24  C   UNL     1       0.674  -4.479  -4.348  0.00  0.00    +0.005 A 
ATOM     25  C   UNL     1       0.377  -5.527  -3.497  0.00  0.00    +0.027 A 
ATOM     26  C   UNL     1       0.403  -5.335  -2.128  0.00  0.00    +0.090 A 
ATOM     27  C   UNL     1       0.727  -4.095  -1.611  0.00  0.00    +0.027 A 
ATOM     28  C   UNL     1       1.028  -3.048  -2.462  0.00  0.00    +0.005 A 
ENDBRANCH  19  26
ENDBRANCH  18  19
ENDBRANCH  14  18
ENDBRANCH   1  15
BRANCH   1  29
ATOM     29  N   UNL     1       3.680  -6.170   3.455  0.00  0.00    -0.283 N 
ATOM     30  C   UNL     1       4.024  -5.319   4.441  0.00  0.00    +0.329 C 
ATOM     31  O   UNL     1       4.155  -4.137   4.204  0.00  0.00    -0.279 OA
BRANCH  29  32
ATOM     32  C   UNL     1       3.522  -7.598   3.742  0.00  0.00    +0.030 C 
ATOM     33  C   UNL     1       3.945  -8.414   2.518  0.00  0.00    +0.031 C 
ATOM     34  C   UNL     1       4.399  -7.979   4.936  0.00  0.00    +0.031 C 
ATOM     35  C   UNL     1       2.057  -7.893   4.070  0.00  0.00    +0.031 C 
ENDBRANCH  29  32
ENDBRANCH   1  29
TORSDOF 10
