REMARK  Name = ZINC21355564
REMARK  9 active torsions:
REMARK  status: ('A' for Active; 'I' for Inactive)
REMARK    1  A    between atoms: C_1  and  C_2
REMARK    2  A    between atoms: C_2  and  C_3
REMARK    3  A    between atoms: C_3  and  C_4
REMARK    4  A    between atoms: C_4  and  N_5
REMARK    5  A    between atoms: C_6  and  N_32
REMARK    6  A    between atoms: C_7  and  N_14
REMARK    7  A    between atoms: N_14  and  C_15
REMARK    8  A    between atoms: C_15  and  C_16
REMARK    9  A    between atoms: C_22  and  C_24
REMARK                            x       y       z     vdW  Elec       q    Type
REMARK                         _______ _______ _______ _____ _____    ______ ____
ROOT
ATOM      1  N   UNL     1      -0.471  -2.996  -2.747  0.00  0.00    -0.256 N 
ATOM      2  C   UNL     1      -0.046  -2.380  -3.868  0.00  0.00    +0.254 C 
ATOM      3  O   UNL     1       0.341  -3.038  -4.814  0.00  0.00    -0.270 OA
ENDROOT
BRANCH   1   6
ATOM      4  N   UNL     1      -0.769  -1.571   0.626  0.00  0.00    -0.280 N 
ATOM      5  C   UNL     1      -0.300  -2.324  -0.424  0.00  0.00    +0.127 A 
ATOM      6  C   UNL     1      -0.925  -2.233  -1.651  0.00  0.00    +0.140 A 
ATOM      7  C   UNL     1      -2.021  -1.360  -1.792  0.00  0.00    +0.277 A 
ATOM      8  O   UNL     1      -2.589  -1.256  -2.866  0.00  0.00    -0.266 OA
ATOM      9  N   UNL     1      -2.437  -0.640  -0.732  0.00  0.00    -0.273 N 
ATOM     10  H   UNL     1      -3.293   0.043  -0.833  0.00  0.00    +0.173 HD
ATOM     11  C   UNL     1      -1.819  -0.746   0.458  0.00  0.00    +0.331 A 
ATOM     12  O   UNL     1      -2.215  -0.085   1.398  0.00  0.00    -0.246 OA
BRANCH   5  13
ATOM     13  N   UNL     1       0.776  -3.162  -0.253  0.00  0.00    -0.343 N 
ATOM     14  H   UNL     1       1.146  -3.762  -1.098  0.00  0.00    +0.144 HD
ATOM     15  H   UNL     1       1.268  -3.233   0.728  0.00  0.00    +0.144 HD
ENDBRANCH   5  13
BRANCH   4  16
ATOM     16  C   UNL     1      -0.118  -1.662   1.936  0.00  0.00    +0.128 C 
BRANCH  16  17
ATOM     17  C   UNL     1      -0.685  -2.857   2.704  0.00  0.00    +0.021 C 
BRANCH  17  19
ATOM     18  C   UNL     1      -0.569  -4.142   4.844  0.00  0.00    +0.004 C 
ATOM     19  C   UNL     1      -0.089  -2.887   4.113  0.00  0.00    -0.002 C 
ENDBRANCH  17  19
ENDBRANCH  16  17
ENDBRANCH   4  16
ENDBRANCH   1   6
BRANCH   2  20
ATOM     20  C   UNL     1      -0.052  -0.905  -3.947  0.00  0.00    +0.073 A 
ATOM     21  C   UNL     1       0.102  -0.140  -2.789  0.00  0.00    +0.031 A 
ATOM     22  C   UNL     1       0.096   1.238  -2.870  0.00  0.00    +0.019 A 
ATOM     23  C   UNL     1      -0.063   1.863  -4.097  0.00  0.00    +0.018 A 
ATOM     24  C   UNL     1      -0.217   1.113  -5.247  0.00  0.00    +0.040 A 
ATOM     25  C   UNL     1      -0.206  -0.269  -5.183  0.00  0.00    +0.136 A 
ATOM     26  F   UNL     1      -0.350  -1.001  -6.309  0.00  0.00    -0.205 F 
ATOM     27 BR   UNL     1       0.306   2.275  -1.304  0.00  0.00    -0.050 Br
ENDBRANCH   2  20
BRANCH   1  28
ATOM     28  C   UNL     1      -0.460  -4.459  -2.666  0.00  0.00    +0.149 C 
BRANCH  28  29
ATOM     29  C   UNL     1      -1.729  -5.004  -3.269  0.00  0.00    -0.030 A 
ATOM     30  C   UNL     1      -2.876  -5.095  -2.502  0.00  0.00    +0.005 A 
ATOM     31  C   UNL     1      -4.041  -5.591  -3.056  0.00  0.00    +0.000 A 
ATOM     32  C   UNL     1      -4.057  -6.005  -4.375  0.00  0.00    +0.000 A 
ATOM     33  C   UNL     1      -2.909  -5.919  -5.140  0.00  0.00    +0.000 A 
ATOM     34  C   UNL     1      -1.746  -5.419  -4.588  0.00  0.00    +0.005 A 
ENDBRANCH  28  29
ENDBRANCH   1  28
TORSDOF 8
