REMARK  Name = ZINC16780241
REMARK  9 active torsions:
REMARK  status: ('A' for Active; 'I' for Inactive)
REMARK    1  A    between atoms: C_1  and  C_2
REMARK    2  A    between atoms: C_4  and  S_12
REMARK    3  A    between atoms: C_6  and  N_9
REMARK    4  A    between atoms: C_7  and  C_8
REMARK    5  A    between atoms: S_12  and  N_15
REMARK    6  A    between atoms: N_15  and  C_16
REMARK    7  A    between atoms: C_16  and  C_17
REMARK    8  A    between atoms: C_17  and  C_18
REMARK    9  A    between atoms: C_19  and  C_29
REMARK                            x       y       z     vdW  Elec       q    Type
REMARK                         _______ _______ _______ _____ _____    ______ ____
ROOT
ATOM      1  N   UNL     1       0.041   1.181   2.551  0.00  0.00    -0.190 NA
ATOM      2  H   UNL     1       0.680   0.461   2.431  0.00  0.00    +0.148 HD
ENDROOT
BRANCH   1   3
ATOM      3  S   UNL     1      -0.300   1.741   4.072  0.00  0.00    +0.058 S 
ATOM      4  O   UNL     1       0.470   0.958   4.974  0.00  0.00    -0.153 OA
ATOM      5  O   UNL     1      -0.201   3.157   4.015  0.00  0.00    -0.153 OA
BRANCH   3   9
ATOM      6  C   UNL     1      -4.030  -1.442   5.883  0.00  0.00    +0.044 C 
ATOM      7  C   UNL     1      -3.659  -0.129   5.241  0.00  0.00    -0.044 A 
ATOM      8  C   UNL     1      -2.332   0.164   4.986  0.00  0.00    +0.032 A 
ATOM      9  C   UNL     1      -1.991   1.367   4.397  0.00  0.00    +0.108 A 
ATOM     10  C   UNL     1      -2.976   2.280   4.069  0.00  0.00    +0.061 A 
ATOM     11  C   UNL     1      -4.303   1.985   4.321  0.00  0.00    +0.131 A 
ATOM     12  C   UNL     1      -4.644   0.781   4.909  0.00  0.00    -0.017 A 
ATOM     13  C   UNL     1      -6.090   0.461   5.187  0.00  0.00    +0.046 C 
BRANCH  11  14
ATOM     14  N   UNL     1      -5.358   2.960   3.964  0.00  0.00    +0.057 N 
ATOM     15  O   UNL     1      -5.258   3.621   2.946  0.00  0.00    -0.126 OA
ATOM     16  O   UNL     1      -6.327   3.101   4.689  0.00  0.00    -0.126 OA
ENDBRANCH  11  14
ENDBRANCH   3   9
ENDBRANCH   1   3
BRANCH   1  17
ATOM     17  C   UNL     1      -0.623   1.774   1.387  0.00  0.00    +0.110 C 
BRANCH  17  18
ATOM     18  C   UNL     1       0.118   1.361   0.113  0.00  0.00    +0.054 C 
BRANCH  18  19
ATOM     19  C   UNL     1      -0.564   1.970  -1.085  0.00  0.00    -0.018 A 
ATOM     20  C   UNL     1      -1.553   1.419  -1.807  0.00  0.00    +0.017 A 
ATOM     21  N   UNL     1      -1.922   2.267  -2.815  0.00  0.00    -0.357 N 
ATOM     22  H   UNL     1      -2.618   2.088  -3.467  0.00  0.00    +0.166 HD
ATOM     23  C   UNL     1      -1.155   3.410  -2.771  0.00  0.00    +0.065 A 
ATOM     24  C   UNL     1      -0.270   3.274  -1.685  0.00  0.00    +0.005 A 
ATOM     25  C   UNL     1       0.639   4.293  -1.395  0.00  0.00    +0.010 A 
ATOM     26  C   UNL     1       0.665   5.420  -2.168  0.00  0.00    +0.002 A 
ATOM     27  C   UNL     1      -0.205   5.560  -3.240  0.00  0.00    +0.022 A 
ATOM     28  C   UNL     1      -1.111   4.566  -3.545  0.00  0.00    +0.065 A 
ATOM     29 CL   UNL     1      -2.193   4.755  -4.889  0.00  0.00    -0.081 Cl
ATOM     30  C   UNL     1      -2.167   0.068  -1.544  0.00  0.00    +0.063 C 
ENDBRANCH  18  19
ENDBRANCH  17  18
ENDBRANCH   1  17
TORSDOF 6
