REMARK  Name = ZINC58244498
REMARK  5 active torsions:
REMARK  status: ('A' for Active; 'I' for Inactive)
REMARK    1  A    between atoms: C_1  and  N_2
REMARK    2  A    between atoms: C_4  and  N_7
REMARK    3  A    between atoms: C_10  and  C_13
REMARK    4  A    between atoms: N_22  and  S_23
REMARK    5  A    between atoms: S_23  and  C_26
REMARK                            x       y       z     vdW  Elec       q    Type
REMARK                         _______ _______ _______ _____ _____    ______ ____
ROOT
ATOM      1  C   UNL     1      -0.224  -8.305  -1.420  0.00  0.00    +0.001 A 
ATOM      2  C   UNL     1      -0.106  -9.508  -0.725  0.00  0.00    +0.012 A 
ATOM      3  C   UNL     1       0.280 -10.650  -1.394  0.00  0.00    +0.025 A 
ATOM      4  C   UNL     1       0.551 -10.604  -2.758  0.00  0.00    +0.054 A 
ATOM      5  C   UNL     1       0.432  -9.410  -3.454  0.00  0.00    -0.024 A 
ATOM      6  C   UNL     1       0.042  -8.264  -2.786  0.00  0.00    +0.015 A 
ATOM      7  C   UNL     1       0.708  -9.330  -4.933  0.00  0.00    +0.038 C 
ATOM      8  C   UNL     1       1.576 -10.505  -5.380  0.00  0.00    +0.025 C 
ATOM      9  C   UNL     1       0.940 -11.809  -4.880  0.00  0.00    +0.131 C 
ATOM     10  N   UNL     1       0.946 -11.777  -3.412  0.00  0.00    -0.207 N 
ENDROOT
BRANCH   1  14
ATOM     11  N   UNL     1      -1.301  -3.541  -1.256  0.00  0.00    -0.291 N 
ATOM     12  C   UNL     1      -1.125  -4.816  -0.743  0.00  0.00    +0.163 A 
ATOM     13  N   UNL     1      -0.757  -5.922  -1.364  0.00  0.00    -0.225 NA
ATOM     14  C   UNL     1      -0.637  -7.073  -0.705  0.00  0.00    +0.080 A 
ATOM     15  C   UNL     1      -0.899  -7.107   0.635  0.00  0.00    +0.076 A 
ATOM     16  S   UNL     1      -1.326  -5.397   0.935  0.00  0.00    -0.060 S 
ATOM     17  H   UNL     1      -1.065  -3.352  -2.178  0.00  0.00    +0.154 HD
BRANCH  11  21
ATOM     18  C   UNL     1      -2.430   0.903   0.551  0.00  0.00    +0.172 C 
ATOM     19  N   UNL     1      -2.330  -0.548   0.370  0.00  0.00    -0.273 N 
ATOM     20  C   UNL     1      -1.677  -1.185  -0.637  0.00  0.00    +0.131 A 
ATOM     21  C   UNL     1      -1.824  -2.520  -0.440  0.00  0.00    +0.071 A 
ATOM     22  C   UNL     1      -2.589  -2.701   0.722  0.00  0.00    +0.157 A 
ATOM     23  N   UNL     1      -2.886  -1.523   1.207  0.00  0.00    -0.178 NA
ENDBRANCH  11  21
ENDBRANCH   1  14
BRANCH  10  24
ATOM     24  S   UNL     1       1.412 -13.108  -2.543  0.00  0.00    +0.043 S 
ATOM     25  O   UNL     1       2.134 -13.910  -3.467  0.00  0.00    -0.155 OA
ATOM     26  O   UNL     1       2.050 -12.581  -1.388  0.00  0.00    -0.155 OA
ATOM     27  C   UNL     1      -0.138 -13.929  -2.080  0.00  0.00    +0.218 C 
ENDBRANCH  10  24
TORSDOF 3
