REMARK  Name = ZINC65301321
REMARK  11 active torsions:
REMARK  status: ('A' for Active; 'I' for Inactive)
REMARK    1  A    between atoms: C_1  and  C_2
REMARK    2  A    between atoms: C_2  and  N_3
REMARK    3  A    between atoms: N_3  and  C_4
REMARK    4  A    between atoms: C_4  and  C_5
REMARK    5  A    between atoms: C_6  and  C_8
REMARK    6  A    between atoms: C_13  and  N_14
REMARK    7  A    between atoms: C_17  and  C_20
REMARK    8  A    between atoms: N_22  and  C_23
REMARK    9  A    between atoms: C_27  and  C_30
REMARK   10  A    between atoms: C_28  and  C_29
REMARK   11  A    between atoms: C_31  and  C_34
REMARK                            x       y       z     vdW  Elec       q    Type
REMARK                         _______ _______ _______ _____ _____    ______ ____
ROOT
ATOM      1  C   UNL     1       5.242  -0.475  -1.313  0.00  0.00    +0.074 A 
ATOM      2  C   UNL     1       4.464  -0.042  -2.394  0.00  0.00    +0.098 A 
ATOM      3  N   UNL     1       3.195   0.264  -2.224  0.00  0.00    -0.353 N 
ATOM      4  C   UNL     1       2.615   0.175  -1.045  0.00  0.00    +0.107 A 
ATOM      5  C   UNL     1       3.298  -0.250   0.118  0.00  0.00    +0.050 A 
ATOM      6  C   UNL     1       4.668  -0.591  -0.039  0.00  0.00    +0.055 A 
ATOM      7  C   UNL     1       2.478  -0.266   1.259  0.00  0.00    +0.058 A 
ATOM      8  N   UNL     1       1.231   0.085   1.184  0.00  0.00    -0.213 NA
ATOM      9  S   UNL     1       0.981   0.486  -0.424  0.00  0.00    +0.030 S 
ATOM     10  C   UNL     1       3.053  -0.695   2.584  0.00  0.00    +0.067 C 
ATOM     11  H   UNL     1       2.675   0.562  -2.986  0.00  0.00    +0.166 HD
ENDROOT
BRANCH   6  12
ATOM     12  N   UNL     1       5.417  -1.021   1.037  0.00  0.00    -0.329 N 
ATOM     13  C   UNL     1       6.013  -0.053   1.968  0.00  0.00    +0.106 C 
ATOM     14  C   UNL     1       7.514  -0.339   2.081  0.00  0.00    +0.031 C 
ATOM     15  C   UNL     1       7.722  -1.803   2.477  0.00  0.00    +0.078 C 
ATOM     16  C   UNL     1       7.137  -2.714   1.395  0.00  0.00    +0.031 C 
ATOM     17  C   UNL     1       5.627  -2.455   1.277  0.00  0.00    +0.106 C 
BRANCH  15  18
ATOM     18  C   UNL     1       9.196  -2.079   2.622  0.00  0.00    +0.220 C 
ATOM     19  O   UNL     1      10.001  -1.193   2.429  0.00  0.00    -0.275 OA
ATOM     20  N   UNL     1       9.620  -3.311   2.968  0.00  0.00    -0.285 N 
ATOM     21  H   UNL     1       8.982  -4.036   3.057  0.00  0.00    +0.155 HD
BRANCH  20  22
ATOM     22  C   UNL     1      10.980  -3.544   3.199  0.00  0.00    +0.037 A 
ATOM     23  C   UNL     1      11.937  -2.758   2.569  0.00  0.00    +0.023 A 
ATOM     24  C   UNL     1      13.279  -2.991   2.799  0.00  0.00    +0.002 A 
ATOM     25  C   UNL     1      13.670  -4.004   3.655  0.00  0.00    +0.004 A 
ATOM     26  C   UNL     1      12.720  -4.788   4.282  0.00  0.00    -0.046 A 
ATOM     27  C   UNL     1      11.376  -4.557   4.062  0.00  0.00    -0.026 A 
ATOM     28  C   UNL     1      10.341  -5.407   4.752  0.00  0.00    +0.046 C 
ATOM     29  C   UNL     1      13.151  -5.892   5.214  0.00  0.00    +0.044 C 
ENDBRANCH  20  22
ENDBRANCH  15  18
ENDBRANCH   6  12
BRANCH   1  31
ATOM     30  N   UNL     1       7.003  -1.802  -2.365  0.00  0.00    -0.298 N 
ATOM     31  C   UNL     1       6.660  -0.813  -1.515  0.00  0.00    +0.250 C 
ATOM     32  O   UNL     1       7.523  -0.201  -0.915  0.00  0.00    -0.270 OA
BRANCH  30  34
ATOM     33  C   UNL     1       9.053  -1.469  -3.657  0.00  0.00    +0.024 C 
ATOM     34  C   UNL     1       8.404  -2.211  -2.486  0.00  0.00    +0.104 C 
ENDBRANCH  30  34
BRANCH  30  35
ATOM     35  C   UNL     1       5.973  -2.467  -3.167  0.00  0.00    +0.104 C 
ATOM     36  C   UNL     1       5.423  -3.668  -2.396  0.00  0.00    +0.024 C 
ENDBRANCH  30  35
ENDBRANCH   1  31
TORSDOF 6
