REMARK  Name = ZINC09218319
REMARK  14 active torsions:
REMARK  status: ('A' for Active; 'I' for Inactive)
REMARK    1  A    between atoms: C_1  and  C_2
REMARK    2  A    between atoms: C_2  and  O_3
REMARK    3  A    between atoms: O_3  and  C_4
REMARK    4  A    between atoms: C_4  and  C_6
REMARK    5  A    between atoms: C_7  and  C_28
REMARK    6  A    between atoms: C_8  and  C_13
REMARK    7  A    between atoms: C_11  and  C_12
REMARK    8  A    between atoms: C_13  and  C_15
REMARK    9  A    between atoms: C_15  and  C_17
REMARK   10  A    between atoms: C_15  and  N_53
REMARK   11  A    between atoms: C_18  and  C_20
REMARK   12  A    between atoms: C_18  and  C_21
REMARK   13  A    between atoms: C_18  and  N_53
REMARK   14  A    between atoms: C_26  and  C_27
REMARK                            x       y       z     vdW  Elec       q    Type
REMARK                         _______ _______ _______ _____ _____    ______ ____
ROOT
ATOM      1  C   UNL     1      -2.175   1.509  -0.969  0.00  0.00    +0.165 C 
ATOM      2  O   UNL     1      -2.650   1.034   0.043  0.00  0.00    -0.292 OA
ENDROOT
BRANCH   1   5
ATOM      3  C   UNL     1      -4.795   3.047  -2.933  0.00  0.00    +0.083 A 
ATOM      4  C   UNL     1      -4.374   2.341  -1.785  0.00  0.00    -0.008 A 
ATOM      5  C   UNL     1      -3.012   2.168  -1.901  0.00  0.00    +0.084 A 
ATOM      6  N   UNL     1      -2.605   2.755  -3.082  0.00  0.00    -0.355 N 
ATOM      7  H   UNL     1      -1.693   2.782  -3.410  0.00  0.00    +0.166 HD
ATOM      8  C   UNL     1      -3.671   3.279  -3.706  0.00  0.00    +0.028 A 
ATOM      9  C   UNL     1      -3.647   4.003  -5.027  0.00  0.00    +0.064 C 
ATOM     10  C   UNL     1      -5.247   1.868  -0.651  0.00  0.00    +0.047 C 
BRANCH   3  11
ATOM     11  C   UNL     1      -6.173   3.462  -3.248  0.00  0.00    +0.341 C 
ATOM     12  O   UNL     1      -6.582   4.543  -2.875  0.00  0.00    -0.245 OA
BRANCH  11  13
ATOM     13  O   UNL     1      -6.979   2.641  -3.949  0.00  0.00    -0.461 OA
BRANCH  13  15
ATOM     14  C   UNL     1      -9.085   2.055  -5.024  0.00  0.00    +0.048 C 
ATOM     15  C   UNL     1      -8.324   3.114  -4.223  0.00  0.00    +0.229 C 
ENDBRANCH  13  15
ENDBRANCH  11  13
ENDBRANCH   3  11
ENDBRANCH   1   5
BRANCH   1  16
ATOM     16  C   UNL     1      -0.696   1.397  -1.232  0.00  0.00    +0.000 C 
ATOM     17  C   UNL     1      -0.448   0.337  -2.307  0.00  0.00    -0.006 C 
BRANCH  16  18
ATOM     18  N   UNL     1      -0.011   1.003   0.014  0.00  0.00    +0.390 N 
ATOM     19  H   UNL     1      -0.031  -0.019   0.103  0.00  0.00    -0.084 HD
ATOM     20  H   UNL     1      -0.495   1.426   0.815  0.00  0.00    -0.084 HD
BRANCH  18  21
ATOM     21  C   UNL     1       1.391   1.463  -0.005  0.00  0.00    -0.043 C 
ATOM     22  C   UNL     1       2.233   0.540   0.878  0.00  0.00    -0.009 C 
BRANCH  21  23
ATOM     23  C   UNL     1       1.465   2.872   0.525  0.00  0.00    -0.059 A 
ATOM     24  C   UNL     1       0.482   3.343   1.376  0.00  0.00    +0.002 A 
ATOM     25  C   UNL     1       0.553   4.634   1.865  0.00  0.00    +0.000 A 
ATOM     26  C   UNL     1       1.601   5.456   1.496  0.00  0.00    +0.000 A 
ATOM     27  C   UNL     1       2.580   4.987   0.642  0.00  0.00    +0.003 A 
ATOM     28  C   UNL     1       2.512   3.694   0.156  0.00  0.00    -0.049 A 
ATOM     29  C   UNL     1       3.580   3.182  -0.776  0.00  0.00    +0.044 C 
ENDBRANCH  21  23
ENDBRANCH  18  21
ENDBRANCH  16  18
ENDBRANCH   1  16
TORSDOF 8
