REMARK  Name = ZINC67602041
REMARK  3 active torsions:
REMARK  status: ('A' for Active; 'I' for Inactive)
REMARK    1  A    between atoms: C_1  and  C_2
REMARK    2  A    between atoms: C_20  and  C_31
REMARK    3  A    between atoms: C_22  and  C_24
REMARK                            x       y       z     vdW  Elec       q    Type
REMARK                         _______ _______ _______ _____ _____    ______ ____
ROOT
ATOM      1  C   UNL     1      -0.014   1.536   0.038  0.00  0.00    +0.009 C 
ATOM      2  C   UNL     1       0.008   0.007   0.016  0.00  0.00    +0.003 C 
ATOM      3  C   UNL     1      -1.427  -0.525   0.015  0.00  0.00    +0.006 C 
ATOM      4  C   UNL     1      -1.406  -2.054  -0.040  0.00  0.00    +0.019 C 
ATOM      5  C   UNL     1      -0.691  -2.596   1.201  0.00  0.00    +0.108 C 
ATOM      6  N   UNL     1       0.639  -1.977   1.288  0.00  0.00    -0.301 N 
ATOM      7  C   UNL     1       0.741  -0.512   1.257  0.00  0.00    +0.111 C 
ATOM      8  C   UNL     1       1.763  -2.752   1.397  0.00  0.00    +0.200 A 
ATOM      9  N   UNL     1       1.632  -4.099   1.533  0.00  0.00    -0.295 N 
ATOM     10  H   UNL     1       0.749  -4.499   1.566  0.00  0.00    +0.172 HD
ATOM     11  C   UNL     1       2.730  -4.880   1.623  0.00  0.00    +0.258 A 
ATOM     12  O   UNL     1       2.626  -6.092   1.729  0.00  0.00    -0.267 OA
ATOM     13  C   UNL     1       3.989  -4.272   1.592  0.00  0.00    +0.066 A 
ATOM     14  C   UNL     1       4.069  -2.896   1.472  0.00  0.00    +0.138 A 
ATOM     15  N   UNL     1       2.947  -2.176   1.361  0.00  0.00    -0.200 NA
ATOM     16  N   UNL     1       5.302  -2.266   1.482  0.00  0.00    -0.269 N 
ATOM     17  C   UNL     1       6.411  -2.923   1.862  0.00  0.00    +0.236 C 
ATOM     18  O   UNL     1       7.492  -2.383   1.760  0.00  0.00    -0.274 OA
ATOM     19  C   UNL     1       6.327  -4.322   2.414  0.00  0.00    +0.189 C 
ATOM     20  C   UNL     1       5.240  -5.104   1.675  0.00  0.00    +0.086 C 
ATOM     21  H   UNL     1       5.366  -1.337   1.211  0.00  0.00    +0.156 HD
ENDROOT
BRANCH  20  22
ATOM     22  C   UNL     1       5.718  -5.434   0.284  0.00  0.00    -0.003 A 
ATOM     23  C   UNL     1       6.056  -4.418  -0.590  0.00  0.00    +0.007 A 
ATOM     24  C   UNL     1       6.494  -4.721  -1.865  0.00  0.00    +0.000 A 
ATOM     25  C   UNL     1       6.594  -6.039  -2.268  0.00  0.00    +0.003 A 
ATOM     26  C   UNL     1       6.257  -7.057  -1.396  0.00  0.00    +0.038 A 
ATOM     27  C   UNL     1       5.823  -6.755  -0.116  0.00  0.00    +0.127 A 
ATOM     28  F   UNL     1       5.498  -7.749   0.739  0.00  0.00    -0.205 F 
ENDBRANCH  20  22
BRANCH  19  29
ATOM     29  C   UNL     1       7.622  -4.997   2.236  0.00  0.00    +0.076 C 
ATOM     30  N   UNL     1       8.622  -5.519   2.097  0.00  0.00    -0.196 NA
ENDBRANCH  19  29
TORSDOF 2
