REMARK  Name = ZINC33759831
REMARK  13 active torsions:
REMARK  status: ('A' for Active; 'I' for Inactive)
REMARK    1  A    between atoms: C_1  and  C_2
REMARK    2  A    between atoms: C_2  and  O_4
REMARK    3  A    between atoms: O_4  and  C_5
REMARK    4  A    between atoms: C_8  and  O_43
REMARK    5  A    between atoms: C_10  and  C_41
REMARK    6  A    between atoms: C_17  and  O_19
REMARK    7  A    between atoms: C_20  and  O_40
REMARK    8  A    between atoms: C_23  and  C_34
REMARK    9  A    between atoms: C_25  and  C_33
REMARK   10  A    between atoms: C_27  and  O_29
REMARK   11  A    between atoms: O_29  and  C_30
REMARK   12  A    between atoms: C_30  and  C_32
REMARK   13  A    between atoms: C_41  and  O_42
REMARK                            x       y       z     vdW  Elec       q    Type
REMARK                         _______ _______ _______ _____ _____    ______ ____
ROOT
ATOM      1  C   UNL     1      -1.142  -4.837  -3.400  0.00  0.00    +0.182 C 
ATOM      2  C   UNL     1       0.150  -5.030  -2.601  0.00  0.00    +0.076 C 
ATOM      3  C   UNL     1       1.257  -4.198  -3.244  0.00  0.00    +0.129 C 
ATOM      4  C   UNL     1       0.891  -2.712  -3.182  0.00  0.00    +0.055 C 
ATOM      5  C   UNL     1       0.629  -2.257  -1.752  0.00  0.00    +0.049 C 
ATOM      6  C   UNL     1       0.189  -0.799  -1.696  0.00  0.00    +0.029 C 
ATOM      7  C   UNL     1      -1.027  -0.565  -2.598  0.00  0.00    +0.009 C 
ATOM      8  C   UNL     1      -0.778  -1.046  -4.022  0.00  0.00    +0.036 C 
ATOM      9  C   UNL     1      -0.388  -2.522  -4.015  0.00  0.00    +0.080 C 
ATOM     10  C   UNL     1      -1.521  -3.356  -3.420  0.00  0.00    +0.080 C 
ATOM     11  C   UNL     1      -0.244  -0.430  -0.270  0.00  0.00    +0.075 C 
ATOM     12  C   UNL     1      -0.368   1.120  -0.233  0.00  0.00    +0.036 C 
ATOM     13  C   UNL     1       1.087   1.591  -0.013  0.00  0.00    +0.011 C 
ATOM     14  C   UNL     1       1.726   0.509   0.883  0.00  0.00    +0.027 C 
ATOM     15  C   UNL     1       0.841  -0.729   0.773  0.00  0.00    +0.007 C 
ATOM     16  C   UNL     1       1.532  -2.046   0.592  0.00  0.00    +0.055 C 
ATOM     17  C   UNL     1       1.821  -2.485  -0.835  0.00  0.00    +0.181 C 
ATOM     18  C   UNL     1       0.096  -0.835   2.136  0.00  0.00    +0.015 C 
ENDROOT
BRANCH  14  19
ATOM     19  C   UNL     1       3.164   0.285   0.490  0.00  0.00    -0.022 C 
ATOM     20  C   UNL     1       3.769   0.752  -0.599  0.00  0.00    +0.094 C 
ATOM     21  C   UNL     1       5.166   0.309  -0.611  0.00  0.00    +0.332 C 
ATOM     22  O   UNL     1       5.975   0.576  -1.477  0.00  0.00    -0.246 OA
ATOM     23  O   UNL     1       5.421  -0.436   0.481  0.00  0.00    -0.457 OA
ATOM     24  C   UNL     1       4.194  -0.507   1.260  0.00  0.00    +0.264 C 
ENDBRANCH  14  19
BRANCH   9  25
ATOM     25  O   UNL     1      -0.136  -2.948  -5.357  0.00  0.00    -0.388 OA
ATOM     26  H   UNL     1      -0.935  -2.890  -6.112  0.00  0.00    +0.210 HD
ENDBRANCH   9  25
BRANCH  11  27
ATOM     27  O   UNL     1      -1.486  -1.065   0.075  0.00  0.00    -0.388 OA
ATOM     28  H   UNL     1      -1.931  -0.900   1.067  0.00  0.00    +0.210 HD
ENDBRANCH  11  27
BRANCH   3  29
ATOM     29  O   UNL     1       2.514  -4.453  -2.631  0.00  0.00    -0.391 OA
ATOM     30  H   UNL     1       3.414  -3.929  -2.984  0.00  0.00    +0.210 HD
ENDBRANCH   3  29
BRANCH   1  31
ATOM     31  O   UNL     1      -2.210  -5.603  -2.782  0.00  0.00    -0.461 OA
BRANCH  31  33
ATOM     32  C   UNL     1      -3.466  -7.721  -2.609  0.00  0.00    +0.136 C 
ATOM     33  C   UNL     1      -2.378  -6.865  -3.204  0.00  0.00    +0.304 C 
ATOM     34  O   UNL     1      -1.656  -7.316  -4.062  0.00  0.00    -0.251 OA
ENDBRANCH  31  33
ENDBRANCH   1  31
BRANCH  17  35
ATOM     35  O   UNL     1       3.035  -1.866  -1.318  0.00  0.00    -0.461 OA
BRANCH  35  36
ATOM     36  C   UNL     1       4.154  -2.606  -1.279  0.00  0.00    +0.304 C 
ATOM     37  O   UNL     1       4.143  -3.689  -0.744  0.00  0.00    -0.251 OA
ATOM     38  C   UNL     1       5.423  -2.086  -1.903  0.00  0.00    +0.136 C 
ENDBRANCH  35  36
ENDBRANCH  17  35
BRANCH   4  39
ATOM     39  C   UNL     1       2.011  -1.909  -3.848  0.00  0.00    +0.168 C 
BRANCH  39  40
ATOM     40  O   UNL     1       2.207  -2.381  -5.182  0.00  0.00    -0.394 OA
ATOM     41  H   UNL     1       2.976  -1.921  -5.821  0.00  0.00    +0.209 HD
ENDBRANCH  39  40
ENDBRANCH   4  39
TORSDOF 10
