REMARK  Name = ZINC00240022
REMARK  8 active torsions:
REMARK  status: ('A' for Active; 'I' for Inactive)
REMARK    1  A    between atoms: C_1  and  C_2
REMARK    2  A    between atoms: C_2  and  C_3
REMARK    3  A    between atoms: C_3  and  C_4
REMARK    4  A    between atoms: C_4  and  C_6
REMARK    5  A    between atoms: C_4  and  C_7
REMARK    6  A    between atoms: C_12  and  N_21
REMARK    7  A    between atoms: C_16  and  N_20
REMARK    8  A    between atoms: C_17  and  C_18
REMARK                            x       y       z     vdW  Elec       q    Type
REMARK                         _______ _______ _______ _____ _____    ______ ____
ROOT
ATOM      1  C   UNL     1       1.319   3.572   0.133  0.00  0.00    +0.071 C 
ATOM      2  C   UNL     1       1.493   2.079   0.237  0.00  0.00    +0.004 A 
ATOM      3  C   UNL     1       2.764   1.536   0.170  0.00  0.00    +0.009 A 
ATOM      4  C   UNL     1       2.943   0.171   0.264  0.00  0.00    +0.023 A 
ATOM      5  C   UNL     1       1.844  -0.664   0.427  0.00  0.00    +0.028 A 
ATOM      6  C   UNL     1       0.570  -0.122   0.495  0.00  0.00    +0.069 A 
ATOM      7  C   UNL     1       0.392   1.252   0.400  0.00  0.00    +0.136 A 
ATOM      8  O   UNL     1      -0.861   1.766   0.461  0.00  0.00    -0.441 OA
ATOM      9  C   UNL     1      -1.103   3.003   0.002  0.00  0.00    +0.198 C 
ATOM     10  C   UNL     1      -0.112   3.908  -0.180  0.00  0.00    +0.094 C 
ENDROOT
BRANCH   9  11
ATOM     11  N   UNL     1      -2.394   3.360  -0.299  0.00  0.00    -0.328 N 
ATOM     12  H   UNL     1      -2.585   4.249  -0.636  0.00  0.00    +0.145 HD
ATOM     13  H   UNL     1      -3.115   2.723  -0.174  0.00  0.00    +0.145 HD
ENDBRANCH   9  11
BRANCH   5  14
ATOM     14  N   UNL     1       2.023  -2.046   0.523  0.00  0.00    -0.358 N 
ATOM     15  H   UNL     1       1.256  -2.627   0.637  0.00  0.00    +0.142 HD
ATOM     16  H   UNL     1       2.916  -2.424   0.476  0.00  0.00    +0.142 HD
ENDBRANCH   5  14
BRANCH   1  17
ATOM     17  C   UNL     1       2.220   4.110  -0.980  0.00  0.00    -0.001 C 
ATOM     18  C   UNL     1       1.692   3.641  -2.337  0.00  0.00    +0.008 C 
BRANCH  17  19
ATOM     19  C   UNL     1       2.226   5.639  -0.937  0.00  0.00    +0.004 C 
BRANCH  19  21
ATOM     20  C   UNL     1       3.279   7.703  -1.873  0.00  0.00    +0.004 C 
ATOM     21  C   UNL     1       3.273   6.174  -1.916  0.00  0.00    -0.003 C 
ENDBRANCH  19  21
ENDBRANCH  17  19
ENDBRANCH   1  17
BRANCH  10  22
ATOM     22  C   UNL     1      -0.434   5.210  -0.679  0.00  0.00    +0.100 C 
ATOM     23  N   UNL     1      -0.689   6.244  -1.076  0.00  0.00    -0.191 NA
ENDBRANCH  10  22
TORSDOF 6
