REMARK  Name = ZINC11871501
REMARK  11 active torsions:
REMARK  status: ('A' for Active; 'I' for Inactive)
REMARK    1  A    between atoms: C_1  and  C_2
REMARK    2  A    between atoms: C_3  and  C_9
REMARK    3  A    between atoms: N_5  and  C_7
REMARK    4  A    between atoms: C_9  and  N_67
REMARK    5  A    between atoms: C_12  and  C_15
REMARK    6  A    between atoms: C_15  and  C_26
REMARK    7  A    between atoms: N_18  and  C_22
REMARK    8  A    between atoms: C_22  and  C_23
REMARK    9  A    between atoms: C_23  and  C_24
REMARK   10  A    between atoms: C_23  and  C_25
REMARK   11  A    between atoms: C_26  and  C_27
REMARK                            x       y       z     vdW  Elec       q    Type
REMARK                         _______ _______ _______ _____ _____    ______ ____
ROOT
ATOM      1  C   UNL     1       0.066   1.442  -2.383  0.00  0.00    +0.119 C 
ATOM      2  C   UNL     1       1.520   1.871  -2.403  0.00  0.00    +0.247 C 
ATOM      3  O   UNL     1       1.949   3.004  -2.378  0.00  0.00    -0.273 OA
ATOM      4  N   UNL     1       2.236   0.730  -2.454  0.00  0.00    -0.224 N 
ATOM      5  C   UNL     1       1.444  -0.349  -2.468  0.00  0.00    +0.309 C 
ATOM      6  O   UNL     1       1.859  -1.490  -2.512  0.00  0.00    -0.252 OA
ATOM      7  N   UNL     1       0.138  -0.029  -2.429  0.00  0.00    -0.284 N 
ATOM      8  H   UNL     1      -0.610  -0.646  -2.430  0.00  0.00    +0.151 HD
ENDROOT
BRANCH   1  11
ATOM      9  C   UNL     1      -0.479   1.910   1.399  0.00  0.00    -0.078 C 
ATOM     10  C   UNL     1       0.171   1.391   0.115  0.00  0.00    -0.013 C 
ATOM     11  C   UNL     1      -0.614   1.907  -1.094  0.00  0.00    +0.018 C 
ATOM     12  C   UNL     1      -0.646   3.438  -1.056  0.00  0.00    -0.013 C 
ATOM     13  C   UNL     1      -1.272   3.898   0.262  0.00  0.00    -0.078 C 
ATOM     14  N   UNL     1      -0.456   3.389   1.385  0.00  0.00    +0.383 N 
ATOM     15  H   UNL     1       0.513   3.706   1.263  0.00  0.00    -0.081 HD
BRANCH  14  16
ATOM     16  C   UNL     1      -0.975   3.913   2.665  0.00  0.00    -0.038 C 
BRANCH  16  19
ATOM     17  C   UNL     1       1.740   4.729   4.080  0.00  0.00    +0.068 C 
ATOM     18  C   UNL     1       0.884   3.539   4.429  0.00  0.00    +0.063 A 
ATOM     19  C   UNL     1      -0.315   3.180   3.803  0.00  0.00    -0.005 A 
ATOM     20  C   UNL     1      -0.779   2.059   4.406  0.00  0.00    +0.128 A 
ATOM     21  N   UNL     1       0.099   1.718   5.372  0.00  0.00    -0.256 N 
ATOM     22  N   UNL     1       1.132   2.664   5.369  0.00  0.00    -0.175 NA
ATOM     23  C   UNL     1      -0.012   0.566   6.270  0.00  0.00    +0.174 C 
ATOM     24 CL   UNL     1      -2.240   1.212   4.005  0.00  0.00    -0.062 Cl
ENDBRANCH  16  19
ENDBRANCH  14  16
ENDBRANCH   1  11
BRANCH   4  25
ATOM     25  C   UNL     1       3.699   0.677  -2.490  0.00  0.00    +0.121 C 
BRANCH  25  26
ATOM     26  C   UNL     1       4.180   0.843  -3.933  0.00  0.00    +0.001 C 
ATOM     27  C   UNL     1       5.708   0.928  -3.954  0.00  0.00    +0.009 C 
ATOM     28  C   UNL     1       3.725  -0.359  -4.763  0.00  0.00    +0.009 C 
ENDBRANCH  25  26
ENDBRANCH   4  25
BRANCH   1  29
ATOM     29  C   UNL     1      -0.673   1.986  -3.607  0.00  0.00    +0.070 C 
BRANCH  29  30
ATOM     30  C   UNL     1      -0.059   1.415  -4.859  0.00  0.00    -0.042 A 
ATOM     31  C   UNL     1      -0.538   0.230  -5.385  0.00  0.00    +0.004 A 
ATOM     32  C   UNL     1       0.024  -0.295  -6.534  0.00  0.00    +0.003 A 
ATOM     33  C   UNL     1       1.066   0.365  -7.158  0.00  0.00    +0.038 A 
ATOM     34  C   UNL     1       1.546   1.552  -6.632  0.00  0.00    +0.124 A 
ATOM     35  C   UNL     1       0.979   2.080  -5.485  0.00  0.00    +0.042 A 
ATOM     36  F   UNL     1       2.564   2.199  -7.242  0.00  0.00    -0.205 F 
ENDBRANCH  29  30
ENDBRANCH   1  29
TORSDOF 7
