REMARK  Name = ZINC04194079
REMARK  3 active torsions:
REMARK  status: ('A' for Active; 'I' for Inactive)
REMARK    1  A    between atoms: C_1  and  S_2
REMARK    2  A    between atoms: S_2  and  C_3
REMARK    3  A    between atoms: C_14  and  C_16
REMARK                            x       y       z     vdW  Elec       q    Type
REMARK                         _______ _______ _______ _____ _____    ______ ____
ROOT
ATOM      1  C   UNL     1       4.801  -3.897  -1.256  0.00  0.00    +0.171 A 
ATOM      2  N   UNL     1       3.841  -4.670  -0.677  0.00  0.00    -0.302 N 
ATOM      3  H   UNL     1       4.043  -5.618  -0.433  0.00  0.00    +0.171 HD
ATOM      4  C   UNL     1       2.616  -4.158  -0.432  0.00  0.00    +0.258 A 
ATOM      5  O   UNL     1       1.748  -4.843   0.085  0.00  0.00    -0.267 OA
ATOM      6  C   UNL     1       2.360  -2.827  -0.782  0.00  0.00    +0.069 A 
ATOM      7  C   UNL     1       3.372  -2.084  -1.365  0.00  0.00    +0.135 A 
ATOM      8  N   UNL     1       4.566  -2.643  -1.587  0.00  0.00    -0.208 NA
ATOM      9  N   UNL     1       3.139  -0.768  -1.714  0.00  0.00    -0.302 N 
ATOM     10  C   UNL     1       2.098  -0.073  -1.163  0.00  0.00    +0.017 C 
ATOM     11  C   UNL     1       1.065  -0.718  -0.580  0.00  0.00    +0.024 C 
ATOM     12  C   UNL     1       1.010  -2.224  -0.534  0.00  0.00    +0.092 C 
ATOM     13  C   UNL     1       0.002  -0.004   0.002  0.00  0.00    +0.162 C 
ATOM     14  O   UNL     1      -0.919  -0.615   0.508  0.00  0.00    -0.292 OA
ATOM     15  C   UNL     1      -0.018   1.500   0.010  0.00  0.00    +0.080 C 
ATOM     16  C   UNL     1       1.424   2.017  -0.001  0.00  0.00    +0.014 C 
ATOM     17  C   UNL     1       2.138   1.435  -1.223  0.00  0.00    +0.051 C 
ATOM     18  H   UNL     1       3.721  -0.332  -2.357  0.00  0.00    +0.153 HD
ENDROOT
BRANCH  12  19
ATOM     19  C   UNL     1       0.049  -2.714  -1.587  0.00  0.00    -0.035 A 
ATOM     20  C   UNL     1       0.273  -2.418  -2.919  0.00  0.00    +0.004 A 
ATOM     21  C   UNL     1      -0.606  -2.871  -3.885  0.00  0.00    +0.000 A 
ATOM     22  C   UNL     1      -1.714  -3.613  -3.518  0.00  0.00    +0.000 A 
ATOM     23  C   UNL     1      -1.940  -3.905  -2.186  0.00  0.00    +0.000 A 
ATOM     24  C   UNL     1      -1.059  -3.455  -1.220  0.00  0.00    +0.004 A 
ENDBRANCH  12  19
BRANCH   1  26
ATOM     25  C   UNL     1       7.214  -3.158  -2.316  0.00  0.00    +0.093 C 
ATOM     26  S   UNL     1       6.392  -4.588  -1.569  0.00  0.00    -0.091 S 
ENDBRANCH   1  26
TORSDOF 2
