REMARK  Name = ZINC63102958
REMARK  6 active torsions:
REMARK  status: ('A' for Active; 'I' for Inactive)
REMARK    1  A    between atoms: C_3  and  N_16
REMARK    2  A    between atoms: C_6  and  C_7
REMARK    3  A    between atoms: N_9  and  C_10
REMARK    4  A    between atoms: C_10  and  C_11
REMARK    5  A    between atoms: C_11  and  C_12
REMARK    6  A    between atoms: N_16  and  N_17
REMARK                            x       y       z     vdW  Elec       q    Type
REMARK                         _______ _______ _______ _____ _____    ______ ____
ROOT
ATOM      1  C   UNL     1      -0.017   1.396   0.010  0.00  0.00    +0.038 A 
ATOM      2  C   UNL     1       1.196   2.062   0.002  0.00  0.00    +0.049 A 
ATOM      3  C   UNL     1       2.363   1.298  -0.013  0.00  0.00    +0.155 A 
ATOM      4  N   UNL     1       2.287  -0.029  -0.020  0.00  0.00    -0.132 NA
ATOM      5  N   UNL     1       1.163  -0.648  -0.013  0.00  0.00    -0.143 NA
ATOM      6  C   UNL     1       0.002  -0.004   0.002  0.00  0.00    +0.148 A 
ENDROOT
BRANCH   6   7
ATOM      7  C   UNL     1      -1.267  -0.763   0.011  0.00  0.00    +0.264 C 
ATOM      8  O   UNL     1      -2.329  -0.171   0.024  0.00  0.00    -0.268 OA
ATOM      9  N   UNL     1      -1.246  -2.110   0.003  0.00  0.00    -0.310 N 
ATOM     10  H   UNL     1      -0.399  -2.583  -0.008  0.00  0.00    +0.149 HD
BRANCH   9  11
ATOM     11  C   UNL     1      -2.504  -2.862   0.012  0.00  0.00    +0.113 C 
BRANCH  11  12
ATOM     12  C   UNL     1      -2.201  -4.362   0.001  0.00  0.00    +0.132 C 
BRANCH  12  13
ATOM     13  C   UNL     1      -3.514  -5.147   0.009  0.00  0.00    +0.392 C 
ATOM     14  F   UNL     1      -4.264  -4.814  -1.124  0.00  0.00    -0.171 F 
ATOM     15  F   UNL     1      -3.238  -6.519  -0.001  0.00  0.00    -0.171 F 
ATOM     16  F   UNL     1      -4.242  -4.827   1.161  0.00  0.00    -0.171 F 
ENDBRANCH  12  13
ENDBRANCH  11  12
ENDBRANCH   9  11
ENDBRANCH   6   7
BRANCH   3  17
ATOM     17  N   UNL     1       3.600   1.922  -0.022  0.00  0.00    -0.266 N 
ATOM     18  H   UNL     1       3.655   2.890  -0.018  0.00  0.00    +0.167 HD
BRANCH  17  19
ATOM     19  N   UNL     1       4.742   1.173  -0.037  0.00  0.00    -0.255 NA
ATOM     20  H   UNL     1       4.749   0.539  -0.822  0.00  0.00    +0.140 HD
ATOM     21  H   UNL     1       5.561   1.763  -0.042  0.00  0.00    +0.140 HD
ENDBRANCH  17  19
ENDBRANCH   3  17
TORSDOF 6
