REMARK  Name = ZINC16383477
REMARK  4 active torsions:
REMARK  status: ('A' for Active; 'I' for Inactive)
REMARK    1  A    between atoms: C_2  and  N_21
REMARK    2  A    between atoms: C_4  and  S_8
REMARK    3  A    between atoms: S_8  and  C_9
REMARK    4  A    between atoms: N_19  and  O_20
REMARK                            x       y       z     vdW  Elec       q    Type
REMARK                         _______ _______ _______ _____ _____    ______ ____
ROOT
ATOM      1  C   UNL     1      -0.017   1.384   0.010  0.00  0.00    +0.113 A 
ATOM      2  C   UNL     1       0.002  -0.004   0.002  0.00  0.00    +0.124 A 
ATOM      3  N   UNL     1       1.172  -0.652  -0.013  0.00  0.00    -0.209 NA
ATOM      4  C   UNL     1       2.314   0.004  -0.020  0.00  0.00    +0.171 A 
ATOM      5  N   UNL     1       2.349   1.366  -0.013  0.00  0.00    -0.302 N 
ATOM      6  C   UNL     1       1.200   2.073   0.002  0.00  0.00    +0.254 A 
ATOM      7  O   UNL     1       1.222   3.294   0.008  0.00  0.00    -0.268 OA
ATOM      8  H   UNL     1       3.202   1.828  -0.019  0.00  0.00    +0.171 HD
ENDROOT
BRANCH   2   9
ATOM      9  N   UNL     1      -1.182  -0.713   0.010  0.00  0.00    -0.343 N 
ATOM     10  H   UNL     1      -2.030  -0.241   0.021  0.00  0.00    +0.144 HD
ATOM     11  H   UNL     1      -1.167  -1.683   0.005  0.00  0.00    +0.144 HD
ENDBRANCH   2   9
BRANCH   4  12
ATOM     12  S   UNL     1       3.828  -0.898  -0.039  0.00  0.00    -0.078 S 
BRANCH  12  13
ATOM     13  C   UNL     1       3.304  -2.635  -0.043  0.00  0.00    +0.105 C 
ATOM     14  C   UNL     1       4.543  -3.575  -0.148  0.00  0.00    +0.009 C 
ATOM     15  C   UNL     1       3.934  -4.988  -0.403  0.00  0.00    +0.005 C 
ATOM     16  C   UNL     1       3.240  -5.356   0.928  0.00  0.00    +0.010 C 
ATOM     17  C   UNL     1       3.505  -4.134   1.860  0.00  0.00    +0.038 C 
ATOM     18  C   UNL     1       4.944  -3.679   1.367  0.00  0.00    +0.014 C 
ATOM     19  C   UNL     1       2.650  -2.993   1.284  0.00  0.00    +0.074 C 
ATOM     20  N   UNL     1       1.599  -2.474   1.796  0.00  0.00    -0.095 NA
BRANCH  20  21
ATOM     21  O   UNL     1       1.123  -2.929   3.050  0.00  0.00    -0.409 OA
ATOM     22  H   UNL     1       0.324  -2.477   3.355  0.00  0.00    +0.328 HD
ENDBRANCH  20  21
ENDBRANCH  12  13
ENDBRANCH   4  12
TORSDOF 4
