REMARK  Name = ZINC47297252
REMARK  7 active torsions:
REMARK  status: ('A' for Active; 'I' for Inactive)
REMARK    1  A    between atoms: C_1  and  C_2
REMARK    2  A    between atoms: C_4  and  C_25
REMARK    3  A    between atoms: N_8  and  N_9
REMARK    4  A    between atoms: C_10  and  C_12
REMARK    5  A    between atoms: C_13  and  C_24
REMARK    6  A    between atoms: C_18  and  C_22
REMARK    7  A    between atoms: C_18  and  C_23
REMARK                            x       y       z     vdW  Elec       q    Type
REMARK                         _______ _______ _______ _____ _____    ______ ____
ROOT
ATOM      1  N   UNL     1       0.045  -1.962   3.551  0.00  0.00    -0.228 N 
ATOM      2  C   UNL     1       0.059  -2.619   4.728  0.00  0.00    +0.296 C 
ATOM      3  O   UNL     1       0.075  -3.836   4.745  0.00  0.00    -0.265 OA
ATOM      4  H   UNL     1       0.032  -0.992   3.538  0.00  0.00    +0.173 HD
ENDROOT
BRANCH   2   5
ATOM      5  C   UNL     1       0.054  -1.867   5.989  0.00  0.00    +0.194 A 
ATOM      6  C   UNL     1       0.072  -2.414   7.239  0.00  0.00    +0.011 A 
ATOM      7  C   UNL     1       0.060  -1.337   8.138  0.00  0.00    +0.062 A 
ATOM      8  C   UNL     1       0.033  -0.171   7.380  0.00  0.00    +0.117 A 
ATOM      9  O   UNL     1       0.037  -0.519   6.101  0.00  0.00    -0.454 OA
ATOM     10  C   UNL     1       0.006   1.204   7.997  0.00  0.00    +0.082 C 
ATOM     11  C   UNL     1      -0.490   1.100   9.443  0.00  0.00    -0.021 C 
ATOM     12  C   UNL     1       0.326   0.064  10.222  0.00  0.00    +0.086 C 
ATOM     13  C   UNL     1       0.074  -1.306   9.608  0.00  0.00    +0.167 C 
ATOM     14  O   UNL     1      -0.102  -2.299  10.282  0.00  0.00    -0.292 OA
ATOM     15  C   UNL     1      -1.963   0.684   9.441  0.00  0.00    +0.012 C 
ATOM     16  C   UNL     1      -0.354   2.464  10.122  0.00  0.00    +0.012 C 
ATOM     17  C   UNL     1       0.100  -3.881   7.584  0.00  0.00    +0.048 C 
ENDBRANCH   2   5
BRANCH   1  25
ATOM     18  C   UNL     1      -0.018   1.503   0.010  0.00  0.00    +0.066 C 
ATOM     19  C   UNL     1       0.002  -0.004   0.002  0.00  0.00    +0.044 A 
ATOM     20  C   UNL     1       0.006  -0.699  -1.197  0.00  0.00    +0.046 A 
ATOM     21  C   UNL     1       0.025  -2.084  -1.160  0.00  0.00    +0.044 A 
ATOM     22  N   UNL     1       0.039  -2.699   0.011  0.00  0.00    -0.219 NA
ATOM     23  C   UNL     1       0.035  -2.004   1.140  0.00  0.00    +0.232 A 
ATOM     24  N   UNL     1       0.022  -0.679   1.139  0.00  0.00    -0.219 NA
ATOM     25  N   UNL     1       0.049  -2.679   2.348  0.00  0.00    -0.232 N 
ATOM     26  C   UNL     1       0.029  -2.881  -2.439  0.00  0.00    +0.066 C 
ATOM     27  H   UNL     1       0.062  -3.649   2.362  0.00  0.00    +0.173 HD
ENDBRANCH   1  25
TORSDOF 2
