REMARK  Name = ZINC44020620
REMARK  8 active torsions:
REMARK  status: ('A' for Active; 'I' for Inactive)
REMARK    1  A    between atoms: C_1  and  C_2
REMARK    2  A    between atoms: C_9  and  O_32
REMARK    3  A    between atoms: C_16  and  O_31
REMARK    4  A    between atoms: C_19  and  C_30
REMARK    5  A    between atoms: C_24  and  C_25
REMARK    6  A    between atoms: C_24  and  O_29
REMARK    7  A    between atoms: C_25  and  C_27
REMARK    8  A    between atoms: C_27  and  O_28
REMARK                            x       y       z     vdW  Elec       q    Type
REMARK                         _______ _______ _______ _____ _____    ______ ____
ROOT
ATOM      1  C   UNL     1      -0.186   1.887  -0.023  0.00  0.00    +0.016 C 
ATOM      2  C   UNL     1      -0.068   0.363  -0.066  0.00  0.00    -0.002 C 
ATOM      3  C   UNL     1       0.569  -0.022  -1.390  0.00  0.00    +0.019 C 
ATOM      4  C   UNL     1       2.086   0.161  -1.360  0.00  0.00    +0.080 C 
ATOM      5  C   UNL     1       2.624  -0.692  -0.227  0.00  0.00    +0.156 C 
ATOM      6  O   UNL     1       3.558  -1.450  -0.387  0.00  0.00    -0.293 OA
ATOM      7  C   UNL     1       1.956  -0.552   1.072  0.00  0.00    +0.048 C 
ATOM      8  C   UNL     1       0.711  -0.076   1.136  0.00  0.00    -0.032 C 
ATOM      9  C   UNL     1       0.071   0.067   2.505  0.00  0.00    +0.141 C 
ATOM     10  C   UNL     1      -1.329  -0.549   2.458  0.00  0.00    +0.040 C 
ATOM     11  C   UNL     1      -2.133   0.105   1.329  0.00  0.00    +0.002 C 
ATOM     12  C   UNL     1      -1.485  -0.223  -0.014  0.00  0.00    +0.031 C 
ATOM     13  C   UNL     1      -2.312   0.404  -1.142  0.00  0.00    +0.119 C 
ATOM     14  C   UNL     1      -3.707  -0.215  -1.132  0.00  0.00    +0.041 C 
ATOM     15  C   UNL     1      -4.426   0.105   0.181  0.00  0.00    +0.009 C 
ATOM     16  C   UNL     1      -3.564  -0.372   1.379  0.00  0.00    +0.002 C 
ATOM     17  C   UNL     1      -3.677  -1.908   1.332  0.00  0.00    +0.008 C 
ATOM     18  C   UNL     1      -5.155  -2.149   0.945  0.00  0.00    +0.043 C 
ATOM     19  C   UNL     1      -5.657  -0.838   0.254  0.00  0.00    +0.131 C 
ATOM     20  C   UNL     1      -4.826   1.579   0.266  0.00  0.00    +0.015 C 
ENDROOT
BRANCH  19  21
ATOM     21  C   UNL     1      -6.127  -1.185  -1.135  0.00  0.00    +0.190 C 
ATOM     22  O   UNL     1      -5.734  -2.193  -1.671  0.00  0.00    -0.292 OA
BRANCH  21  23
ATOM     23  C   UNL     1      -7.087  -0.273  -1.855  0.00  0.00    +0.233 C 
BRANCH  23  24
ATOM     24  O   UNL     1      -7.380  -0.813  -3.145  0.00  0.00    -0.387 OA
ATOM     25  H   UNL     1      -7.994  -0.277  -3.666  0.00  0.00    +0.210 HD
ENDBRANCH  23  24
ENDBRANCH  21  23
ENDBRANCH  19  21
BRANCH  19  26
ATOM     26  O   UNL     1      -6.711  -0.212   0.988  0.00  0.00    -0.380 OA
ATOM     27  H   UNL     1      -7.509  -0.752   1.069  0.00  0.00    +0.211 HD
ENDBRANCH  19  26
BRANCH  13  28
ATOM     28  O   UNL     1      -1.681   0.148  -2.398  0.00  0.00    -0.391 OA
ATOM     29  H   UNL     1      -2.152   0.517  -3.158  0.00  0.00    +0.210 HD
ENDBRANCH  13  28
BRANCH   9  30
ATOM     30  O   UNL     1       0.865  -0.613   3.479  0.00  0.00    -0.387 OA
ATOM     31  H   UNL     1       1.770  -0.279   3.552  0.00  0.00    +0.210 HD
ENDBRANCH   9  30
TORSDOF 6
