REMARK  Name = ZINC26805795
REMARK  7 active torsions:
REMARK  status: ('A' for Active; 'I' for Inactive)
REMARK    1  A    between atoms: C_3  and  C_9
REMARK    2  A    between atoms: C_10  and  C_11
REMARK    3  A    between atoms: C_10  and  N_22
REMARK    4  A    between atoms: N_13  and  C_14
REMARK    5  A    between atoms: C_14  and  C_15
REMARK    6  A    between atoms: C_15  and  N_16
REMARK    7  A    between atoms: C_23  and  C_25
REMARK                            x       y       z     vdW  Elec       q    Type
REMARK                         _______ _______ _______ _____ _____    ______ ____
ROOT
ATOM      1  C   UNL     1      -3.536   3.607   0.146  0.00  0.00    +0.038 C 
ATOM      2  C   UNL     1      -3.599   2.256   0.179  0.00  0.00    +0.097 C 
ENDROOT
BRANCH   1   5
ATOM      3  C   UNL     1       0.110   4.277   0.713  0.00  0.00    +0.020 A 
ATOM      4  C   UNL     1      -1.111   3.638   0.701  0.00  0.00    +0.011 A 
ATOM      5  C   UNL     1      -2.230   4.283   0.162  0.00  0.00    -0.005 A 
ATOM      6  C   UNL     1      -2.098   5.573  -0.366  0.00  0.00    +0.050 A 
ATOM      7  C   UNL     1      -0.870   6.202  -0.342  0.00  0.00    +0.040 A 
ATOM      8  C   UNL     1       0.232   5.556   0.193  0.00  0.00    +0.042 A 
ATOM      9 CL   UNL     1       1.774   6.352   0.213  0.00  0.00    -0.083 Cl
ATOM     10 CL   UNL     1      -3.477   6.381  -1.044  0.00  0.00    -0.083 Cl
ENDBRANCH   1   5
BRANCH   2  11
ATOM     11  C   UNL     1      -4.898   1.584   0.316  0.00  0.00    +0.258 C 
ATOM     12  O   UNL     1      -4.955   0.369   0.346  0.00  0.00    -0.269 OA
ATOM     13  N   UNL     1      -6.028   2.314   0.409  0.00  0.00    -0.309 N 
ATOM     14  H   UNL     1      -5.976   3.412   0.382  0.00  0.00    +0.149 HD
BRANCH  13  15
ATOM     15  C   UNL     1      -7.324   1.644   0.546  0.00  0.00    +0.120 C 
BRANCH  15  16
ATOM     16  C   UNL     1      -8.434   2.693   0.631  0.00  0.00    +0.103 C 
BRANCH  16  17
ATOM     17  N   UNL     1      -9.733   2.022   0.768  0.00  0.00    -0.304 NA
ATOM     18  C   UNL     1      -9.671   0.957   1.778  0.00  0.00    +0.065 C 
ATOM     19  C   UNL     1     -11.018   0.231   1.834  0.00  0.00    -0.067 C 
ATOM     20  N   UNL     1     -12.078   1.197   2.155  0.00  0.00    +0.381 N 
ATOM     21  C   UNL     1     -12.140   2.262   1.145  0.00  0.00    -0.067 C 
ATOM     22  C   UNL     1     -10.793   2.987   1.089  0.00  0.00    +0.065 C 
ATOM     23  H   UNL     1     -13.048   0.679   2.184  0.00  0.00    -0.086 HD
ATOM     24  H   UNL     1     -11.876   1.651   3.136  0.00  0.00    -0.086 HD
ENDBRANCH  16  17
ENDBRANCH  15  16
ENDBRANCH  13  15
ENDBRANCH   2  11
BRANCH   2  25
ATOM     25  N   UNL     1      -2.427   1.498   0.083  0.00  0.00    -0.277 N 
ATOM     26  C   UNL     1      -2.118   0.609   1.047  0.00  0.00    +0.250 C 
ATOM     27  O   UNL     1      -2.901   0.398   1.953  0.00  0.00    -0.270 OA
ATOM     28  H   UNL     1      -1.758   1.628  -0.781  0.00  0.00    +0.155 HD
BRANCH  26  29
ATOM     29  C   UNL     1      -0.828  -0.108   1.005  0.00  0.00    +0.055 A 
ATOM     30  C   UNL     1       0.024   0.045  -0.092  0.00  0.00    +0.016 A 
ATOM     31  C   UNL     1       1.230  -0.622  -0.123  0.00  0.00    +0.021 A 
ATOM     32  C   UNL     1       1.599  -1.444   0.930  0.00  0.00    +0.042 A 
ATOM     33  C   UNL     1       0.760  -1.600   2.020  0.00  0.00    +0.040 A 
ATOM     34  C   UNL     1      -0.450  -0.938   2.064  0.00  0.00    +0.054 A 
ATOM     35 CL   UNL     1      -1.501  -1.134   3.432  0.00  0.00    -0.083 Cl
ATOM     36 CL   UNL     1       3.119  -2.280   0.882  0.00  0.00    -0.083 Cl
ENDBRANCH  26  29
ENDBRANCH   2  25
TORSDOF 7
