REMARK  Name = ZINC12607666
REMARK  14 active torsions:
REMARK  status: ('A' for Active; 'I' for Inactive)
REMARK    1  A    between atoms: C_1  and  C_2
REMARK    2  A    between atoms: C_2  and  C_3
REMARK    3  A    between atoms: C_3  and  C_4
REMARK    4  A    between atoms: C_4  and  N_5
REMARK    5  A    between atoms: C_6  and  N_34
REMARK    6  A    between atoms: C_7  and  N_14
REMARK    7  A    between atoms: N_14  and  C_15
REMARK    8  A    between atoms: C_15  and  C_16
REMARK    9  A    between atoms: C_16  and  C_17
REMARK   10  A    between atoms: C_16  and  C_18
REMARK   11  A    between atoms: C_19  and  C_21
REMARK   12  A    between atoms: C_21  and  C_22
REMARK   13  A    between atoms: C_22  and  C_23
REMARK   14  A    between atoms: N_25  and  C_26
REMARK                            x       y       z     vdW  Elec       q    Type
REMARK                         _______ _______ _______ _____ _____    ______ ____
ROOT
ATOM      1  N   UNL     1      -0.157   1.175  -0.531  0.00  0.00    -0.264 N 
ATOM      2  C   UNL     1       1.038   1.641  -0.951  0.00  0.00    +0.220 C 
ATOM      3  O   UNL     1       1.204   2.834  -1.101  0.00  0.00    -0.275 OA
ENDROOT
BRANCH   1   6
ATOM      4  N   UNL     1      -2.256   3.957   0.632  0.00  0.00    -0.280 N 
ATOM      5  C   UNL     1      -1.177   3.113   0.507  0.00  0.00    +0.127 A 
ATOM      6  C   UNL     1      -1.246   2.058  -0.380  0.00  0.00    +0.140 A 
ATOM      7  C   UNL     1      -2.420   1.883  -1.137  0.00  0.00    +0.277 A 
ATOM      8  O   UNL     1      -2.506   0.962  -1.932  0.00  0.00    -0.266 OA
ATOM      9  N   UNL     1      -3.450   2.735  -0.973  0.00  0.00    -0.273 N 
ATOM     10  H   UNL     1      -4.288   2.607  -1.504  0.00  0.00    +0.173 HD
ATOM     11  C   UNL     1      -3.365   3.758  -0.103  0.00  0.00    +0.331 A 
ATOM     12  O   UNL     1      -4.308   4.515   0.022  0.00  0.00    -0.246 OA
BRANCH   5  13
ATOM     13  N   UNL     1      -0.044   3.317   1.258  0.00  0.00    -0.343 N 
ATOM     14  H   UNL     1       0.695   2.691   1.200  0.00  0.00    +0.144 HD
ATOM     15  H   UNL     1       0.016   4.086   1.846  0.00  0.00    +0.144 HD
ENDBRANCH   5  13
BRANCH   4  16
ATOM     16  C   UNL     1      -2.196   5.081   1.570  0.00  0.00    +0.128 C 
BRANCH  16  17
ATOM     17  C   UNL     1      -1.638   6.313   0.855  0.00  0.00    +0.021 C 
BRANCH  17  19
ATOM     18  C   UNL     1      -1.017   8.718   1.121  0.00  0.00    +0.004 C 
ATOM     19  C   UNL     1      -1.575   7.486   1.835  0.00  0.00    -0.002 C 
ENDBRANCH  17  19
ENDBRANCH  16  17
ENDBRANCH   4  16
ENDBRANCH   1   6
BRANCH   1  20
ATOM     20  C   UNL     1      -0.324  -0.251  -0.237  0.00  0.00    +0.117 C 
BRANCH  20  21
ATOM     21  C   UNL     1       0.003  -0.510   1.235  0.00  0.00    +0.001 C 
ATOM     22  C   UNL     1      -1.036   0.184   2.118  0.00  0.00    +0.009 C 
ATOM     23  C   UNL     1      -0.021  -2.015   1.506  0.00  0.00    +0.009 C 
ENDBRANCH  20  21
ENDBRANCH   1  20
BRANCH   2  24
ATOM     24  C   UNL     1       2.165   0.682  -1.234  0.00  0.00    +0.105 C 
BRANCH  24  25
ATOM     25  C   UNL     1       3.397   1.464  -1.692  0.00  0.00    +0.105 C 
BRANCH  25  26
ATOM     26  C   UNL     1       4.525   0.504  -1.974  0.00  0.00    +0.214 C 
ATOM     27  O   UNL     1       4.359  -0.688  -1.824  0.00  0.00    -0.276 OA
ATOM     28  N   UNL     1       5.717   0.971  -2.394  0.00  0.00    -0.312 N 
ATOM     29  H   UNL     1       5.850   1.924  -2.514  0.00  0.00    +0.149 HD
BRANCH  28  30
ATOM     30  C   UNL     1       6.813   0.038  -2.668  0.00  0.00    +0.073 C 
ATOM     31  C   UNL     1       7.557  -0.272  -1.368  0.00  0.00    +0.022 C 
ATOM     32  C   UNL     1       8.423  -1.518  -1.560  0.00  0.00    +0.002 C 
ATOM     33  C   UNL     1       7.622  -2.587  -2.307  0.00  0.00    +0.000 C 
ATOM     34  C   UNL     1       8.234  -2.807  -3.692  0.00  0.00    +0.000 C 
ATOM     35  C   UNL     1       7.846  -1.646  -4.610  0.00  0.00    +0.000 C 
ATOM     36  C   UNL     1       8.686  -0.416  -4.259  0.00  0.00    +0.002 C 
ATOM     37  C   UNL     1       7.781   0.669  -3.672  0.00  0.00    +0.022 C 
ENDBRANCH  28  30
ENDBRANCH  25  26
ENDBRANCH  24  25
ENDBRANCH   2  24
TORSDOF 11
