REMARK  Name = ZINC01455392
REMARK  12 active torsions:
REMARK  status: ('A' for Active; 'I' for Inactive)
REMARK    1  A    between atoms: C_1  and  C_2
REMARK    2  A    between atoms: N_8  and  C_9
REMARK    3  A    between atoms: C_9  and  C_10
REMARK    4  A    between atoms: C_16  and  C_24
REMARK    5  A    between atoms: C_18  and  C_22
REMARK    6  A    between atoms: C_19  and  N_21
REMARK    7  A    between atoms: C_26  and  O_34
REMARK    8  A    between atoms: C_27  and  O_32
REMARK    9  A    between atoms: C_29  and  O_30
REMARK   10  A    between atoms: O_30  and  C_31
REMARK   11  A    between atoms: O_32  and  C_33
REMARK   12  A    between atoms: O_34  and  C_35
REMARK                            x       y       z     vdW  Elec       q    Type
REMARK                         _______ _______ _______ _____ _____    ______ ____
ROOT
ATOM      1  C   UNL     1      -2.616  -2.989   8.853  0.00  0.00    +0.064 C 
ATOM      2  C   UNL     1      -1.489  -2.237   8.193  0.00  0.00    +0.023 A 
ATOM      3  C   UNL     1      -1.159  -1.006   8.639  0.00  0.00    +0.068 A 
ATOM      4  C   UNL     1      -0.104  -0.298   8.025  0.00  0.00    +0.141 A 
ATOM      5  C   UNL     1       0.570  -0.883   6.974  0.00  0.00    +0.072 A 
ATOM      6  C   UNL     1       0.193  -2.163   6.547  0.00  0.00    +0.259 A 
ATOM      7  O   UNL     1       0.782  -2.695   5.619  0.00  0.00    -0.267 OA
ATOM      8  N   UNL     1      -0.818  -2.808   7.158  0.00  0.00    -0.308 N 
ATOM      9  C   UNL     1       1.699  -0.164   6.290  0.00  0.00    +0.107 C 
ATOM     10  C   UNL     1       2.182   0.975   7.145  0.00  0.00    +0.098 C 
ATOM     11  C   UNL     1       1.433   1.450   8.168  0.00  0.00    +0.199 C 
ATOM     12  O   UNL     1       0.229   0.932   8.469  0.00  0.00    -0.441 OA
ENDROOT
BRANCH   9  13
ATOM     13  C   UNL     1       1.220   0.374   4.966  0.00  0.00    +0.011 A 
ATOM     14  C   UNL     1       0.183   1.287   4.927  0.00  0.00    +0.057 A 
ATOM     15  C   UNL     1      -0.260   1.782   3.711  0.00  0.00    +0.162 A 
ATOM     16  C   UNL     1       0.341   1.361   2.529  0.00  0.00    +0.165 A 
ATOM     17  C   UNL     1       1.377   0.442   2.570  0.00  0.00    +0.095 A 
ATOM     18  C   UNL     1       1.820  -0.048   3.789  0.00  0.00    +0.128 A 
BRANCH  18  19
ATOM     19  O   UNL     1       2.840  -0.947   3.831  0.00  0.00    -0.495 OA
ATOM     20  C   UNL     1       3.411  -1.337   2.581  0.00  0.00    +0.277 C 
ENDBRANCH  18  19
BRANCH  16  21
ATOM     21  O   UNL     1      -0.092   1.845   1.334  0.00  0.00    -0.491 OA
ATOM     22  C   UNL     1       0.571   1.369   0.162  0.00  0.00    +0.277 C 
ENDBRANCH  16  21
BRANCH  15  23
ATOM     23  O   UNL     1      -1.281   2.680   3.673  0.00  0.00    -0.491 OA
ATOM     24  C   UNL     1      -1.851   3.068   4.925  0.00  0.00    +0.277 C 
ENDBRANCH  15  23
ENDBRANCH   9  13
BRANCH  11  25
ATOM     25  N   UNL     1       1.917   2.491   8.920  0.00  0.00    -0.328 N 
ATOM     26  H   UNL     1       2.784   2.875   8.716  0.00  0.00    +0.145 HD
ATOM     27  H   UNL     1       1.392   2.843   9.656  0.00  0.00    +0.145 HD
ENDBRANCH  11  25
BRANCH  10  28
ATOM     28  C   UNL     1       3.456   1.567   6.873  0.00  0.00    +0.101 C 
ATOM     29  N   UNL     1       4.468   2.038   6.657  0.00  0.00    -0.191 NA
ENDBRANCH  10  28
BRANCH   8  30
ATOM     30  C   UNL     1      -1.202  -4.146   6.701  0.00  0.00    +0.160 C 
BRANCH  30  31
ATOM     31  C   UNL     1      -0.339  -5.176   7.383  0.00  0.00    -0.028 A 
ATOM     32  C   UNL     1       0.891  -5.511   6.848  0.00  0.00    +0.005 A 
ATOM     33  C   UNL     1       1.684  -6.453   7.476  0.00  0.00    +0.000 A 
ATOM     34  C   UNL     1       1.244  -7.067   8.634  0.00  0.00    +0.000 A 
ATOM     35  C   UNL     1       0.011  -6.736   9.166  0.00  0.00    +0.000 A 
ATOM     36  C   UNL     1      -0.780  -5.790   8.540  0.00  0.00    +0.005 A 
ENDBRANCH  30  31
ENDBRANCH   8  30
TORSDOF 8
