REMARK  Name = ZINC06091710
REMARK  4 active torsions:
REMARK  status: ('A' for Active; 'I' for Inactive)
REMARK    1  A    between atoms: C_3  and  C_9
REMARK    2  A    between atoms: C_4  and  O_8
REMARK    3  A    between atoms: C_5  and  O_7
REMARK    4  A    between atoms: C_9  and  C_11
REMARK                            x       y       z     vdW  Elec       q    Type
REMARK                         _______ _______ _______ _____ _____    ______ ____
ROOT
ATOM      1  C   UNL     1       0.002  -0.004   0.002  0.00  0.00    +0.004 A 
ATOM      2  C   UNL     1      -0.017   1.373   0.010  0.00  0.00    +0.015 A 
ATOM      3  C   UNL     1       1.187   2.089   0.002  0.00  0.00    +0.064 A 
ATOM      4  C   UNL     1       2.407   1.395  -0.013  0.00  0.00    +0.169 A 
ATOM      5  C   UNL     1       2.406   0.004  -0.020  0.00  0.00    +0.159 A 
ATOM      6  C   UNL     1       1.207  -0.689  -0.013  0.00  0.00    +0.049 A 
ENDROOT
BRANCH   5   7
ATOM      7  O   UNL     1       3.584  -0.677  -0.035  0.00  0.00    -0.503 OA
ATOM      8  H   UNL     1       3.916  -0.869  -0.922  0.00  0.00    +0.292 HD
ENDBRANCH   5   7
BRANCH   4   9
ATOM      9  O   UNL     1       3.580   2.077  -0.020  0.00  0.00    -0.503 OA
ATOM     10  H   UNL     1       3.912   2.279  -0.905  0.00  0.00    +0.292 HD
ENDBRANCH   4   9
BRANCH   3  11
ATOM     11  C   UNL     1       1.173   3.557   0.009  0.00  0.00    +0.181 C 
ATOM     12  O   UNL     1       2.217   4.173   0.003  0.00  0.00    -0.291 OA
BRANCH  11  13
ATOM     13  C   UNL     1      -0.139   4.298   0.025  0.00  0.00    +0.188 C 
ATOM     14 CL   UNL     1       0.173   6.073   0.032  0.00  0.00    -0.117 Cl
ENDBRANCH  11  13
ENDBRANCH   3  11
TORSDOF 4
