REMARK  Name = ZINC67447040
REMARK  5 active torsions:
REMARK  status: ('A' for Active; 'I' for Inactive)
REMARK    1  A    between atoms: C_1  and  C_2
REMARK    2  A    between atoms: C_2  and  N_3
REMARK    3  A    between atoms: C_5  and  C_8
REMARK    4  A    between atoms: C_10  and  C_17
REMARK    5  A    between atoms: C_13  and  C_14
REMARK                            x       y       z     vdW  Elec       q    Type
REMARK                         _______ _______ _______ _____ _____    ______ ____
ROOT
ATOM      1  C   UNL     1       3.178  -2.360  -3.050  0.00  0.00    +0.008 A 
ATOM      2  C   UNL     1       4.462  -2.256  -2.523  0.00  0.00    +0.039 A 
ATOM      3  C   UNL     1       5.473  -3.076  -3.025  0.00  0.00    +0.080 A 
ATOM      4  N   UNL     1       5.229  -3.953  -3.997  0.00  0.00    -0.231 NA
ATOM      5  C   UNL     1       4.027  -4.088  -4.529  0.00  0.00    +0.135 A 
ATOM      6  C   UNL     1       2.951  -3.305  -4.077  0.00  0.00    +0.099 A 
ATOM      7  N   UNL     1       3.825  -5.014  -5.538  0.00  0.00    -0.342 N 
ATOM      8  H   UNL     1       4.564  -5.560  -5.851  0.00  0.00    +0.144 HD
ATOM      9  H   UNL     1       2.945  -5.118  -5.932  0.00  0.00    +0.144 HD
ENDROOT
BRANCH   3  10
ATOM     10  C   UNL     1       6.835  -2.969  -2.470  0.00  0.00    +0.039 A 
ATOM     11  C   UNL     1       7.966  -3.665  -2.815  0.00  0.00    +0.019 A 
ATOM     12  C   UNL     1       9.139  -3.392  -2.151  0.00  0.00    +0.028 A 
ATOM     13  C   UNL     1       9.142  -2.443  -1.175  0.00  0.00    +0.079 A 
ATOM     14  S   UNL     1       7.443  -1.895  -1.180  0.00  0.00    -0.075 S 
ATOM     15 CL   UNL     1      10.461  -1.900  -0.186  0.00  0.00    -0.076 Cl
ENDBRANCH   3  10
BRANCH   1  18
ATOM     16  N   UNL     1       0.688  -0.476  -1.203  0.00  0.00    -0.271 N 
ATOM     17  C   UNL     1       1.737  -1.319  -1.234  0.00  0.00    +0.116 A 
ATOM     18  C   UNL     1       2.077  -1.508  -2.545  0.00  0.00    +0.021 A 
ATOM     19  C   UNL     1       1.189  -0.742  -3.327  0.00  0.00    +0.143 A 
ATOM     20  N   UNL     1       0.360  -0.134  -2.521  0.00  0.00    -0.179 NA
BRANCH  16  22
ATOM     21  C   UNL     1      -0.019   1.526   0.010  0.00  0.00    +0.029 C 
ATOM     22  C   UNL     1       0.002  -0.004   0.002  0.00  0.00    +0.140 C 
ENDBRANCH  16  22
ENDBRANCH   1  18
BRANCH   6  23
ATOM     23  C   UNL     1       1.648  -3.458  -4.650  0.00  0.00    +0.103 C 
ATOM     24  N   UNL     1       0.614  -3.579  -5.105  0.00  0.00    -0.191 NA
ENDBRANCH   6  23
TORSDOF 4
