REMARK  Name = ZINC14706921
REMARK  6 active torsions:
REMARK  status: ('A' for Active; 'I' for Inactive)
REMARK    1  A    between atoms: C_4  and  C_7
REMARK    2  A    between atoms: C_7  and  N_8
REMARK    3  A    between atoms: N_8  and  C_9
REMARK    4  A    between atoms: C_9  and  C_10
REMARK    5  A    between atoms: C_22  and  C_24
REMARK    6  A    between atoms: C_24  and  N_25
REMARK                            x       y       z     vdW  Elec       q    Type
REMARK                         _______ _______ _______ _____ _____    ______ ____
ROOT
ATOM      1  N   UNL     1       4.297  -0.882   1.294  0.00  0.00    -0.289 N 
ATOM      2  C   UNL     1       4.923   0.149   1.895  0.00  0.00    +0.234 C 
ATOM      3  O   UNL     1       5.335   0.029   3.030  0.00  0.00    -0.274 OA
ENDROOT
BRANCH   1   4
ATOM      4  C   UNL     1       3.897  -0.776  -0.112  0.00  0.00    +0.143 C 
BRANCH   4   8
ATOM      5  C   UNL     1      -0.185   0.463  -0.343  0.00  0.00    +0.000 A 
ATOM      6  C   UNL     1       0.828   1.401  -0.422  0.00  0.00    +0.000 A 
ATOM      7  C   UNL     1       2.148   1.000  -0.347  0.00  0.00    +0.005 A 
ATOM      8  C   UNL     1       2.457  -0.339  -0.193  0.00  0.00    -0.030 A 
ATOM      9  C   UNL     1       1.444  -1.276  -0.113  0.00  0.00    +0.005 A 
ATOM     10  C   UNL     1       0.123  -0.876  -0.189  0.00  0.00    +0.000 A 
ENDBRANCH   4   8
ENDBRANCH   1   4
BRANCH   1  11
ATOM     11  C   UNL     1       4.017  -2.108   2.044  0.00  0.00    +0.182 C 
BRANCH  11  12
ATOM     12  C   UNL     1       5.177  -3.059   1.904  0.00  0.00    +0.128 A 
ATOM     13  N   UNL     1       5.103  -4.263   2.529  0.00  0.00    -0.309 N 
ATOM     14  H   UNL     1       4.314  -4.487   3.048  0.00  0.00    +0.170 HD
ATOM     15  C   UNL     1       6.118  -5.153   2.434  0.00  0.00    +0.259 A 
ATOM     16  O   UNL     1       6.064  -6.235   2.988  0.00  0.00    -0.267 OA
ATOM     17  C   UNL     1       7.288  -4.761   1.634  0.00  0.00    +0.065 A 
ATOM     18  C   UNL     1       8.386  -5.604   1.474  0.00  0.00    +0.015 A 
ATOM     19  C   UNL     1       9.457  -5.186   0.714  0.00  0.00    +0.001 A 
ATOM     20  C   UNL     1       9.449  -3.936   0.109  0.00  0.00    +0.002 A 
ATOM     21  C   UNL     1       8.374  -3.088   0.256  0.00  0.00    +0.028 A 
ATOM     22  C   UNL     1       7.277  -3.489   1.021  0.00  0.00    +0.078 A 
ATOM     23  N   UNL     1       6.194  -2.688   1.188  0.00  0.00    -0.232 NA
ENDBRANCH  11  12
ENDBRANCH   1  11
BRANCH   2  24
ATOM     24  C   UNL     1       5.110   1.450   1.159  0.00  0.00    +0.212 C 
BRANCH  24  25
ATOM     25  N   UNL     1       5.811   2.404   2.023  0.00  0.00    -0.233 N 
ATOM     26  C   UNL     1       5.171   3.254   2.867  0.00  0.00    +0.226 C 
ATOM     27  O   UNL     1       4.003   3.218   3.189  0.00  0.00    -0.275 OA
ATOM     28  C   UNL     1       6.199   4.245   3.322  0.00  0.00    +0.091 C 
ATOM     29  C   UNL     1       6.107   4.777   4.737  0.00  0.00    +0.040 C 
ATOM     30  C   UNL     1       7.426   5.457   5.039  0.00  0.00    -0.030 C 
ATOM     31  C   UNL     1       8.521   5.262   4.368  0.00  0.00    -0.030 C 
ATOM     32  C   UNL     1       8.650   4.307   3.200  0.00  0.00    +0.040 C 
ATOM     33  C   UNL     1       7.481   3.358   3.260  0.00  0.00    +0.091 C 
ATOM     34  C   UNL     1       7.164   2.518   2.062  0.00  0.00    +0.226 C 
ATOM     35  O   UNL     1       7.957   2.038   1.280  0.00  0.00    -0.275 OA
ENDBRANCH  24  25
ENDBRANCH   2  24
TORSDOF 6
