REMARK  Name = ZINC40577415
REMARK  7 active torsions:
REMARK  status: ('A' for Active; 'I' for Inactive)
REMARK    1  A    between atoms: C_1  and  C_2
REMARK    2  A    between atoms: C_3  and  C_20
REMARK    3  A    between atoms: C_5  and  C_7
REMARK    4  A    between atoms: C_7  and  N_8
REMARK    5  A    between atoms: N_11  and  C_12
REMARK    6  A    between atoms: C_12  and  C_14
REMARK    7  A    between atoms: C_12  and  C_15
REMARK                            x       y       z     vdW  Elec       q    Type
REMARK                         _______ _______ _______ _____ _____    ______ ____
ROOT
ATOM      1  N   UNL     1       2.059  -3.583  -1.407  0.00  0.00    -0.292 N 
ATOM      2  C   UNL     1       2.918  -4.589  -1.662  0.00  0.00    +0.301 C 
ATOM      3  O   UNL     1       3.436  -5.194  -0.743  0.00  0.00    -0.253 OA
ATOM      4  N   UNL     1       3.204  -4.925  -2.936  0.00  0.00    -0.290 N 
ATOM      5  H   UNL     1       1.646  -3.100  -2.140  0.00  0.00    +0.151 HD
ATOM      6  H   UNL     1       2.792  -4.442  -3.669  0.00  0.00    +0.151 HD
ENDROOT
BRANCH   4   7
ATOM      7  C   UNL     1       4.139  -6.019  -3.213  0.00  0.00    +0.137 C 
ATOM      8  C   UNL     1       3.387  -7.351  -3.186  0.00  0.00    +0.036 C 
BRANCH   7   9
ATOM      9  C   UNL     1       4.757  -5.819  -4.573  0.00  0.00    +0.125 A 
ATOM     10  C   UNL     1       6.042  -6.050  -4.894  0.00  0.00    +0.046 A 
ATOM     11  C   UNL     1       6.186  -5.731  -6.264  0.00  0.00    +0.041 A 
ATOM     12  C   UNL     1       4.980  -5.324  -6.698  0.00  0.00    +0.195 A 
ATOM     13  O   UNL     1       4.117  -5.385  -5.671  0.00  0.00    -0.466 OA
ENDBRANCH   7   9
ENDBRANCH   4   7
BRANCH   1  14
ATOM     14  C   UNL     1       1.748  -3.219  -0.023  0.00  0.00    +0.180 C 
BRANCH  14  19
ATOM     15  C   UNL     1      -0.018   1.503   0.010  0.00  0.00    +0.087 C 
ATOM     16  C   UNL     1       0.002  -0.004   0.002  0.00  0.00    +0.116 A 
ATOM     17  C   UNL     1      -1.095  -0.819   0.003  0.00  0.00    +0.104 A 
ATOM     18  C   UNL     1      -0.567  -2.192  -0.007  0.00  0.00    +0.061 A 
ATOM     19  C   UNL     1       0.769  -2.073  -0.013  0.00  0.00    +0.123 A 
ATOM     20  O   UNL     1       1.095  -0.771  -0.013  0.00  0.00    -0.462 OA
BRANCH  17  21
ATOM     21  C   UNL     1      -2.506  -0.409   0.012  0.00  0.00    +0.390 C 
ATOM     22  O   UNL     1      -3.389  -1.257   0.011  0.00  0.00    -0.240 OA
ATOM     23  O   UNL     1      -2.799   0.779   0.020  0.00  0.00    -0.240 OA
ENDBRANCH  17  21
ENDBRANCH  14  19
ENDBRANCH   1  14
TORSDOF 5
