REMARK  Name = ZINC35993662
REMARK  9 active torsions:
REMARK  status: ('A' for Active; 'I' for Inactive)
REMARK    1  A    between atoms: C_1  and  C_2
REMARK    2  A    between atoms: C_2  and  C_3
REMARK    3  A    between atoms: C_3  and  C_4
REMARK    4  A    between atoms: C_4  and  C_5
REMARK    5  A    between atoms: C_5  and  C_7
REMARK    6  A    between atoms: C_5  and  C_21
REMARK    7  A    between atoms: C_9  and  O_20
REMARK    8  A    between atoms: C_21  and  O_23
REMARK    9  A    between atoms: O_23  and  C_24
REMARK                            x       y       z     vdW  Elec       q    Type
REMARK                         _______ _______ _______ _____ _____    ______ ____
ROOT
ATOM      1  C   UNL     1       1.367  -4.046  -2.596  0.00  0.00    +0.140 C 
ATOM      2  C   UNL     1      -0.101  -4.472  -2.649  0.00  0.00    +0.246 C 
ATOM      3  N   UNL     1      -0.659  -4.177  -3.967  0.00  0.00    -0.237 NA
ATOM      4  C   UNL     1       0.060  -4.253  -5.058  0.00  0.00    +0.129 C 
ATOM      5  C   UNL     1      -0.557  -4.033  -6.316  0.00  0.00    +0.044 C 
ATOM      6  C   UNL     1       0.156  -4.240  -7.452  0.00  0.00    +0.005 C 
ATOM      7  C   UNL     1       1.494  -4.670  -7.370  0.00  0.00    +0.016 C 
ATOM      8  C   UNL     1       2.091  -4.818  -6.172  0.00  0.00    +0.085 C 
ATOM      9  N   UNL     1       1.407  -4.551  -5.013  0.00  0.00    -0.231 N 
ATOM     10  C   UNL     1       2.070  -4.534  -3.838  0.00  0.00    +0.233 C 
ATOM     11  O   UNL     1       3.221  -4.908  -3.780  0.00  0.00    -0.274 OA
ENDROOT
BRANCH   2  12
ATOM     12  O   UNL     1      -0.197  -5.876  -2.399  0.00  0.00    -0.370 OA
ATOM     13  H   UNL     1      -1.101  -6.218  -2.417  0.00  0.00    +0.212 HD
ENDBRANCH   2  12
BRANCH   1  14
ATOM     14  C   UNL     1       1.455  -2.521  -2.524  0.00  0.00    +0.114 C 
BRANCH  14  15
ATOM     15  C   UNL     1       2.902  -2.103  -2.475  0.00  0.00    +0.311 C 
ATOM     16  O   UNL     1       3.318  -1.474  -1.531  0.00  0.00    -0.251 OA
BRANCH  15  17
ATOM     17  O   UNL     1       3.729  -2.428  -3.481  0.00  0.00    -0.468 OA
ATOM     18  C   UNL     1       5.088  -1.999  -3.369  0.00  0.00    +0.280 C 
ENDBRANCH  15  17
ENDBRANCH  14  15
BRANCH  14  19
ATOM     19  C   UNL     1       0.739  -2.027  -1.265  0.00  0.00    +0.015 C 
BRANCH  19  20
ATOM     20  C   UNL     1       0.718  -0.497  -1.257  0.00  0.00    +0.001 C 
BRANCH  20  22
ATOM     21  C   UNL     1      -0.019   1.526   0.010  0.00  0.00    +0.004 C 
ATOM     22  C   UNL     1       0.002  -0.004   0.002  0.00  0.00    -0.003 C 
ENDBRANCH  20  22
ENDBRANCH  19  20
ENDBRANCH  14  19
ENDBRANCH   1  14
TORSDOF 7
