REMARK  Name = ZINC03670374
REMARK  9 active torsions:
REMARK  status: ('A' for Active; 'I' for Inactive)
REMARK    1  A    between atoms: C_1  and  N_58
REMARK    2  A    between atoms: C_2  and  C_3
REMARK    3  A    between atoms: C_2  and  N_58
REMARK    4  A    between atoms: C_3  and  N_4
REMARK    5  A    between atoms: C_5  and  C_7
REMARK    6  A    between atoms: C_7  and  O_26
REMARK    7  A    between atoms: N_17  and  C_18
REMARK    8  A    between atoms: C_27  and  C_28
REMARK    9  A    between atoms: C_27  and  N_58
REMARK                            x       y       z     vdW  Elec       q    Type
REMARK                         _______ _______ _______ _____ _____    ______ ____
ROOT
ATOM      1  C   UNL     1       0.022   9.183   3.893  0.00  0.00    +0.247 C 
ATOM      2  C   UNL     1      -1.284   9.475   3.190  0.00  0.00    +0.033 A 
ATOM      3  C   UNL     1      -2.361   8.627   3.302  0.00  0.00    +0.010 A 
ATOM      4  C   UNL     1      -3.542   8.925   2.642  0.00  0.00    +0.001 A 
ATOM      5  C   UNL     1      -3.635  10.073   1.875  0.00  0.00    +0.002 A 
ATOM      6  C   UNL     1      -2.554  10.926   1.762  0.00  0.00    +0.024 A 
ATOM      7  C   UNL     1      -1.368  10.630   2.421  0.00  0.00    +0.043 A 
ATOM      8  N   UNL     1      -0.266  11.479   2.319  0.00  0.00    -0.269 N 
ATOM      9  C   UNL     1       0.899  11.238   2.935  0.00  0.00    +0.314 C 
ATOM     10  O   UNL     1       1.807  12.033   2.789  0.00  0.00    -0.252 OA
ATOM     11  N   UNL     1       1.111  10.157   3.707  0.00  0.00    -0.214 N 
ATOM     12  H   UNL     1      -0.346  12.280   1.777  0.00  0.00    +0.156 HD
ENDROOT
BRANCH  11  13
ATOM     13  C   UNL     1       2.351   9.960   4.325  0.00  0.00    +0.043 A 
ATOM     14  C   UNL     1       3.386   9.349   3.628  0.00  0.00    +0.025 A 
ATOM     15  C   UNL     1       4.609   9.155   4.240  0.00  0.00    +0.023 A 
ATOM     16  C   UNL     1       4.805   9.569   5.546  0.00  0.00    +0.059 A 
ATOM     17  C   UNL     1       3.775  10.178   6.243  0.00  0.00    +0.061 A 
ATOM     18  C   UNL     1       2.551  10.379   5.633  0.00  0.00    +0.045 A 
ATOM     19 CL   UNL     1       4.024  10.697   7.881  0.00  0.00    -0.082 Cl
ATOM     20 CL   UNL     1       6.344   9.325   6.311  0.00  0.00    -0.082 Cl
ENDBRANCH  11  13
BRANCH   1  22
ATOM     21  N   UNL     1       0.867   7.664   2.134  0.00  0.00    -0.313 N 
ATOM     22  C   UNL     1       0.514   7.839   3.422  0.00  0.00    +0.269 C 
ATOM     23  O   UNL     1       0.592   6.914   4.203  0.00  0.00    -0.270 OA
ATOM     24  H   UNL     1       0.805   8.404   1.509  0.00  0.00    +0.149 HD
BRANCH  21  25
ATOM     25  C   UNL     1       1.345   6.357   1.676  0.00  0.00    +0.086 C 
BRANCH  25  26
ATOM     26  C   UNL     1       1.677   6.430   0.184  0.00  0.00    -0.060 C 
BRANCH  26  28
ATOM     27  C   UNL     1       3.441   4.780   0.352  0.00  0.00    -0.096 C 
ATOM     28  N   UNL     1       2.137   5.100  -0.267  0.00  0.00    +0.382 N 
ATOM     29  H   UNL     1       1.449   4.394   0.020  0.00  0.00    -0.082 HD
BRANCH  28  30
ATOM     30  C   UNL     1       2.259   5.080  -1.740  0.00  0.00    -0.043 C 
BRANCH  30  31
ATOM     31  C   UNL     1       2.513   3.664  -2.188  0.00  0.00    -0.064 A 
ATOM     32  C   UNL     1       1.450   2.827  -2.471  0.00  0.00    +0.002 A 
ATOM     33  C   UNL     1       1.683   1.528  -2.882  0.00  0.00    +0.000 A 
ATOM     34  C   UNL     1       2.979   1.066  -3.011  0.00  0.00    +0.000 A 
ATOM     35  C   UNL     1       4.043   1.903  -2.728  0.00  0.00    +0.000 A 
ATOM     36  C   UNL     1       3.809   3.201  -2.317  0.00  0.00    +0.002 A 
ENDBRANCH  30  31
ENDBRANCH  28  30
ENDBRANCH  26  28
ENDBRANCH  25  26
ENDBRANCH  21  25
ENDBRANCH   1  22
BRANCH   1  37
ATOM     37  O   UNL     1      -0.245   9.085   5.294  0.00  0.00    -0.360 OA
ATOM     38  H   UNL     1      -0.913   8.424   5.521  0.00  0.00    +0.213 HD
ENDBRANCH   1  37
TORSDOF 8
