REMARK  Name = ZINC60211116
REMARK  12 active torsions:
REMARK  status: ('A' for Active; 'I' for Inactive)
REMARK    1  A    between atoms: C_1  and  C_2
REMARK    2  A    between atoms: C_2  and  N_3
REMARK    3  A    between atoms: N_3  and  C_4
REMARK    4  A    between atoms: N_3  and  S_6
REMARK    5  A    between atoms: C_4  and  C_5
REMARK    6  A    between atoms: S_6  and  C_9
REMARK    7  A    between atoms: C_13  and  N_15
REMARK    8  A    between atoms: C_16  and  C_18
REMARK    9  A    between atoms: C_18  and  N_19
REMARK   10  A    between atoms: N_19  and  C_20
REMARK   11  A    between atoms: C_22  and  C_27
REMARK   12  A    between atoms: C_25  and  C_26
REMARK                            x       y       z     vdW  Elec       q    Type
REMARK                         _______ _______ _______ _____ _____    ______ ____
ROOT
ATOM      1  N   UNL     1       4.633   2.308   4.420  0.00  0.00    -0.284 N 
ATOM      2  C   UNL     1       4.845   3.580   4.810  0.00  0.00    +0.234 C 
ATOM      3  O   UNL     1       4.638   4.493   4.039  0.00  0.00    -0.274 OA
ATOM      4  H   UNL     1       4.724   1.583   5.059  0.00  0.00    +0.155 HD
ENDROOT
BRANCH   1   9
ATOM      5  C   UNL     1       3.085   0.702   1.497  0.00  0.00    +0.107 A 
ATOM      6  C   UNL     1       3.584   1.486   0.473  0.00  0.00    +0.028 A 
ATOM      7  C   UNL     1       4.430   2.542   0.756  0.00  0.00    +0.004 A 
ATOM      8  C   UNL     1       4.780   2.817   2.064  0.00  0.00    +0.023 A 
ATOM      9  C   UNL     1       4.280   2.032   3.095  0.00  0.00    +0.035 A 
ATOM     10  C   UNL     1       3.426   0.975   2.807  0.00  0.00    +0.051 A 
BRANCH   5  11
ATOM     11  S   UNL     1       2.007  -0.643   1.130  0.00  0.00    +0.061 S 
ATOM     12  O   UNL     1       2.108  -1.553   2.217  0.00  0.00    -0.153 OA
ATOM     13  O   UNL     1       2.277  -1.026  -0.211  0.00  0.00    -0.153 OA
BRANCH  11  14
ATOM     14  N   UNL     1       0.461  -0.050   1.152  0.00  0.00    -0.177 NA
BRANCH  14  16
ATOM     15  C   UNL     1       0.054   1.998  -0.122  0.00  0.00    +0.022 C 
ATOM     16  C   UNL     1      -0.138   0.480  -0.076  0.00  0.00    +0.106 C 
ENDBRANCH  14  16
BRANCH  14  17
ATOM     17  C   UNL     1      -0.309  -0.057   2.398  0.00  0.00    +0.106 C 
ATOM     18  C   UNL     1      -1.180  -1.313   2.454  0.00  0.00    +0.022 C 
ENDBRANCH  14  17
ENDBRANCH  11  14
ENDBRANCH   5  11
ENDBRANCH   1   9
BRANCH   2  19
ATOM     19  C   UNL     1       5.339   3.869   6.204  0.00  0.00    +0.198 C 
BRANCH  19  20
ATOM     20  N   UNL     1       5.489   5.315   6.380  0.00  0.00    -0.335 N 
ATOM     21  H   UNL     1       5.277   5.917   5.649  0.00  0.00    +0.147 HD
BRANCH  20  22
ATOM     22  C   UNL     1       5.938   5.828   7.600  0.00  0.00    +0.031 A 
ATOM     23  C   UNL     1       6.247   4.967   8.642  0.00  0.00    +0.036 A 
ATOM     24  C   UNL     1       6.695   5.484   9.857  0.00  0.00    +0.038 A 
ATOM     25  C   UNL     1       6.829   6.865  10.016  0.00  0.00    +0.013 A 
ATOM     26  C   UNL     1       6.519   7.713   8.973  0.00  0.00    +0.006 A 
ATOM     27  C   UNL     1       6.080   7.200   7.766  0.00  0.00    -0.030 A 
ATOM     28  C   UNL     1       5.750   8.133   6.630  0.00  0.00    +0.045 C 
BRANCH  24  29
ATOM     29  C   UNL     1       7.026   4.574  10.974  0.00  0.00    +0.242 C 
ATOM     30  O   UNL     1       6.908   3.372  10.834  0.00  0.00    -0.270 OA
ATOM     31  N   UNL     1       7.459   5.076  12.148  0.00  0.00    -0.325 N 
ATOM     32  H   UNL     1       7.553   6.035  12.260  0.00  0.00    +0.145 HD
ATOM     33  H   UNL     1       7.676   4.478  12.880  0.00  0.00    +0.145 HD
ENDBRANCH  24  29
ENDBRANCH  20  22
ENDBRANCH  19  20
ENDBRANCH   2  19
TORSDOF 9
