REMARK  Name = ZINC38898420
REMARK  6 active torsions:
REMARK  status: ('A' for Active; 'I' for Inactive)
REMARK    1  A    between atoms: C_1  and  O_2
REMARK    2  A    between atoms: O_2  and  C_3
REMARK    3  A    between atoms: C_6  and  C_9
REMARK    4  A    between atoms: N_15  and  N_16
REMARK    5  A    between atoms: C_17  and  C_18
REMARK    6  A    between atoms: C_27  and  O_28
REMARK                            x       y       z     vdW  Elec       q    Type
REMARK                         _______ _______ _______ _____ _____    ______ ____
ROOT
ATOM      1  C   UNL     1      -4.994  -2.636   0.045  0.00  0.00    +0.264 C 
ATOM      2  N   UNL     1      -5.988  -1.856  -0.708  0.00  0.00    -0.189 NA
ATOM      3  N   UNL     1      -6.365  -2.538  -1.664  0.00  0.00    -0.219 N 
ATOM      4  C   UNL     1      -5.769  -3.759  -1.726  0.00  0.00    +0.174 C 
ATOM      5  S   UNL     1      -6.074  -4.939  -2.928  0.00  0.00    -0.015 S 
ATOM      6  N   UNL     1      -4.900  -3.906  -0.698  0.00  0.00    -0.172 N 
ATOM      7  H   UNL     1      -7.024  -2.234  -2.309  0.00  0.00    +0.176 HD
ENDROOT
BRANCH   1  11
ATOM      8  C   UNL     1      -1.220  -0.631   0.074  0.00  0.00    +0.120 A 
ATOM      9  C   UNL     1      -2.398   0.103   0.078  0.00  0.00    +0.046 A 
ATOM     10  C   UNL     1      -3.616  -0.547   0.069  0.00  0.00    +0.011 A 
ATOM     11  C   UNL     1      -3.663  -1.929   0.056  0.00  0.00    -0.002 A 
ATOM     12  C   UNL     1      -2.492  -2.663   0.052  0.00  0.00    +0.011 A 
ATOM     13  C   UNL     1      -1.271  -2.017   0.056  0.00  0.00    +0.046 A 
BRANCH   8  15
ATOM     14  C   UNL     1      -0.045   1.436   0.103  0.00  0.00    +0.277 C 
ATOM     15  O   UNL     1      -0.021   0.007   0.084  0.00  0.00    -0.495 OA
ENDBRANCH   8  15
ENDBRANCH   1  11
BRANCH   6  16
ATOM     16  N   UNL     1      -4.092  -5.013  -0.406  0.00  0.00    -0.183 NA
ATOM     17  C   UNL     1      -4.210  -6.106  -1.101  0.00  0.00    +0.142 C 
BRANCH  17  18
ATOM     18  C   UNL     1      -3.445  -7.302  -0.725  0.00  0.00    +0.044 A 
ATOM     19  C   UNL     1      -3.561  -8.537  -1.499  0.00  0.00    -0.006 A 
ATOM     20  C   UNL     1      -4.398  -8.622  -2.618  0.00  0.00    +0.009 A 
ATOM     21  C   UNL     1      -4.477  -9.792  -3.313  0.00  0.00    +0.001 A 
ATOM     22  C   UNL     1      -3.736 -10.906  -2.925  0.00  0.00    +0.001 A 
ATOM     23  C   UNL     1      -2.912 -10.857  -1.842  0.00  0.00    +0.008 A 
ATOM     24  C   UNL     1      -2.805  -9.667  -1.102  0.00  0.00    -0.017 A 
ATOM     25  C   UNL     1      -1.965  -9.580   0.021  0.00  0.00    +0.012 A 
ATOM     26  C   UNL     1      -1.869  -8.424   0.730  0.00  0.00    +0.046 A 
ATOM     27  C   UNL     1      -2.587  -7.283   0.375  0.00  0.00    +0.126 A 
BRANCH  27  28
ATOM     28  O   UNL     1      -2.457  -6.148   1.109  0.00  0.00    -0.506 OA
ATOM     29  H   UNL     1      -3.082  -6.080   1.843  0.00  0.00    +0.292 HD
ENDBRANCH  27  28
ENDBRANCH  17  18
ENDBRANCH   6  16
TORSDOF 5
