REMARK  Name = ZINC00969737
REMARK  8 active torsions:
REMARK  status: ('A' for Active; 'I' for Inactive)
REMARK    1  A    between atoms: C_1  and  C_2
REMARK    2  A    between atoms: C_2  and  O_3
REMARK    3  A    between atoms: O_3  and  C_4
REMARK    4  A    between atoms: C_6  and  C_21
REMARK    5  A    between atoms: C_9  and  O_10
REMARK    6  A    between atoms: O_10  and  C_11
REMARK    7  A    between atoms: C_11  and  C_12
REMARK    8  A    between atoms: N_14  and  C_15
REMARK                            x       y       z     vdW  Elec       q    Type
REMARK                         _______ _______ _______ _____ _____    ______ ____
ROOT
ATOM      1  C   UNL     1       0.783  -1.812  -1.333  0.00  0.00    +0.162 A 
ATOM      2  C   UNL     1       0.256  -2.670  -0.381  0.00  0.00    +0.056 A 
ATOM      3  C   UNL     1       0.372  -4.037  -0.543  0.00  0.00    -0.006 A 
ATOM      4  C   UNL     1       1.015  -4.553  -1.654  0.00  0.00    +0.011 A 
ATOM      5  C   UNL     1       1.544  -3.702  -2.607  0.00  0.00    +0.050 A 
ATOM      6  C   UNL     1       1.425  -2.330  -2.453  0.00  0.00    +0.163 A 
ENDROOT
BRANCH   3   7
ATOM      7  C   UNL     1      -0.202  -4.969   0.493  0.00  0.00    +0.190 C 
ATOM      8  N   UNL     1       0.589  -6.213   0.513  0.00  0.00    -0.316 N 
ATOM      9  C   UNL     1       1.754  -6.191   1.239  0.00  0.00    +0.080 A 
ATOM     10  C   UNL     1       1.960  -5.300   2.303  0.00  0.00    +0.068 A 
ATOM     11  C   UNL     1       3.253  -5.395   2.960  0.00  0.00    -0.023 A 
ATOM     12  C   UNL     1       4.073  -6.341   2.452  0.00  0.00    -0.005 A 
ATOM     13  S   UNL     1       3.149  -7.083   1.135  0.00  0.00    -0.078 S 
ATOM     14  C   UNL     1       5.458  -6.675   2.913  0.00  0.00    +0.043 C 
ATOM     15  C   UNL     1       5.958  -5.532   3.809  0.00  0.00    +0.005 C 
ATOM     16  C   UNL     1       4.869  -5.193   4.832  0.00  0.00    +0.005 C 
ATOM     17  C   UNL     1       3.687  -4.522   4.130  0.00  0.00    +0.037 C 
ATOM     18  C   UNL     1       0.858  -4.373   2.648  0.00  0.00    +0.248 C 
ATOM     19  O   UNL     1       0.890  -3.699   3.661  0.00  0.00    -0.270 OA
ATOM     20  N   UNL     1      -0.183  -4.307   1.793  0.00  0.00    -0.289 N 
ATOM     21  H   UNL     1       0.300  -7.008   0.038  0.00  0.00    +0.149 HD
ATOM     22  H   UNL     1      -0.961  -3.792   2.057  0.00  0.00    +0.151 HD
ENDBRANCH   3   7
BRANCH   1  23
ATOM     23  O   UNL     1       0.668  -0.466  -1.175  0.00  0.00    -0.489 OA
BRANCH  23  25
ATOM     24  C   UNL     1      -0.034   1.525   0.002  0.00  0.00    +0.048 C 
ATOM     25  C   UNL     1      -0.003  -0.005  -0.001  0.00  0.00    +0.226 C 
ENDBRANCH  23  25
ENDBRANCH   1  23
BRANCH   6  26
ATOM     26  O   UNL     1       1.939  -1.492  -3.393  0.00  0.00    -0.479 OA
BRANCH  26  27
ATOM     27  C   UNL     1       2.584  -2.095  -4.517  0.00  0.00    +0.325 C 
BRANCH  27  28
ATOM     28  C   UNL     1       3.087  -1.019  -5.444  0.00  0.00    +0.255 C 
ATOM     29  O   UNL     1       2.910   0.149  -5.170  0.00  0.00    -0.272 OA
ATOM     30  N   UNL     1       3.733  -1.355  -6.578  0.00  0.00    -0.283 N 
ATOM     31  H   UNL     1       3.934  -2.285  -6.765  0.00  0.00    +0.155 HD
BRANCH  30  32
ATOM     32  C   UNL     1       4.114  -0.361  -7.487  0.00  0.00    +0.033 A 
ATOM     33  C   UNL     1       4.082  -0.616  -8.851  0.00  0.00    +0.023 A 
ATOM     34  C   UNL     1       4.460   0.367  -9.745  0.00  0.00    +0.002 A 
ATOM     35  C   UNL     1       4.869   1.604  -9.283  0.00  0.00    +0.000 A 
ATOM     36  C   UNL     1       4.902   1.861  -7.924  0.00  0.00    +0.002 A 
ATOM     37  C   UNL     1       4.520   0.885  -7.025  0.00  0.00    +0.023 A 
ENDBRANCH  30  32
ENDBRANCH  27  28
ENDBRANCH  26  27
ENDBRANCH   6  26
TORSDOF 7
