REMARK  Name = ZINC06509943
REMARK  9 active torsions:
REMARK  status: ('A' for Active; 'I' for Inactive)
REMARK    1  A    between atoms: C_1  and  N_2
REMARK    2  A    between atoms: C_5  and  C_18
REMARK    3  A    between atoms: C_6  and  N_17
REMARK    4  A    between atoms: N_7  and  C_10
REMARK    5  A    between atoms: C_10  and  C_11
REMARK    6  A    between atoms: C_18  and  C_20
REMARK    7  A    between atoms: C_20  and  N_49
REMARK    8  A    between atoms: C_21  and  C_22
REMARK    9  A    between atoms: C_21  and  N_49
REMARK                            x       y       z     vdW  Elec       q    Type
REMARK                         _______ _______ _______ _____ _____    ______ ____
ROOT
ATOM      1  C   UNL     1       2.428   5.499  -0.208  0.00  0.00    +0.157 C 
ATOM      2  N   UNL     1       2.394   4.038  -0.105  0.00  0.00    -0.263 N 
ATOM      3  C   UNL     1       1.207   3.398  -0.094  0.00  0.00    +0.269 A 
ATOM      4  O   UNL     1       0.164   4.022  -0.168  0.00  0.00    -0.267 OA
ATOM      5  C   UNL     1       1.198   1.933   0.015  0.00  0.00    +0.118 A 
ATOM      6  C   UNL     1       2.436   1.273   0.091  0.00  0.00    +0.116 A 
ATOM      7  N   UNL     1       3.583   2.014   0.066  0.00  0.00    -0.277 N 
ATOM      8  C   UNL     1       3.547   3.352  -0.030  0.00  0.00    +0.333 A 
ATOM      9  O   UNL     1       4.595   3.966  -0.049  0.00  0.00    -0.246 OA
ENDROOT
BRANCH   6  10
ATOM     10  N   UNL     1       2.491  -0.083   0.188  0.00  0.00    -0.344 N 
ATOM     11  H   UNL     1       1.678  -0.608   0.123  0.00  0.00    +0.144 HD
ATOM     12  H   UNL     1       3.344  -0.525   0.322  0.00  0.00    +0.144 HD
ENDBRANCH   6  10
BRANCH   5  13
ATOM     13  C   UNL     1      -0.015   1.212   0.036  0.00  0.00    +0.155 C 
ATOM     14  O   UNL     1      -0.000  -0.002   0.013  0.00  0.00    -0.294 OA
BRANCH  13  15
ATOM     15  C   UNL     1      -1.329   1.949   0.081  0.00  0.00    -0.001 C 
BRANCH  15  16
ATOM     16  N   UNL     1      -2.432   0.970   0.090  0.00  0.00    +0.387 N 
ATOM     17  H   UNL     1      -2.343   0.365   0.915  0.00  0.00    -0.085 HD
ATOM     18  H   UNL     1      -2.383   0.397  -0.761  0.00  0.00    -0.085 HD
BRANCH  16  19
ATOM     19  C   UNL     1      -3.733   1.664   0.134  0.00  0.00    -0.046 C 
BRANCH  19  20
ATOM     20  C   UNL     1      -4.839   0.640   0.141  0.00  0.00    -0.064 A 
ATOM     21  C   UNL     1      -5.379   0.198  -1.052  0.00  0.00    +0.003 A 
ATOM     22  C   UNL     1      -6.389  -0.745  -1.046  0.00  0.00    +0.020 A 
ATOM     23  C   UNL     1      -6.868  -1.238   0.155  0.00  0.00    +0.041 A 
ATOM     24  C   UNL     1      -6.332  -0.790   1.349  0.00  0.00    +0.020 A 
ATOM     25  C   UNL     1      -5.317   0.149   1.341  0.00  0.00    +0.003 A 
ATOM     26 CL   UNL     1      -8.142  -2.417   0.164  0.00  0.00    -0.084 Cl
ENDBRANCH  19  20
ENDBRANCH  16  19
ENDBRANCH  15  16
ENDBRANCH  13  15
ENDBRANCH   5  13
BRANCH   7  27
ATOM     27  C   UNL     1       4.878   1.335   0.145  0.00  0.00    +0.163 C 
BRANCH  27  28
ATOM     28  C   UNL     1       5.357   1.001  -1.245  0.00  0.00    -0.028 A 
ATOM     29  C   UNL     1       5.023  -0.211  -1.819  0.00  0.00    +0.005 A 
ATOM     30  C   UNL     1       5.457  -0.515  -3.095  0.00  0.00    +0.000 A 
ATOM     31  C   UNL     1       6.235   0.390  -3.794  0.00  0.00    +0.000 A 
ATOM     32  C   UNL     1       6.573   1.600  -3.218  0.00  0.00    +0.000 A 
ATOM     33  C   UNL     1       6.134   1.906  -1.944  0.00  0.00    +0.005 A 
ENDBRANCH  27  28
ENDBRANCH   7  27
TORSDOF 8
