REMARK  Name = ZINC43509617
REMARK  9 active torsions:
REMARK  status: ('A' for Active; 'I' for Inactive)
REMARK    1  A    between atoms: C_1  and  C_2
REMARK    2  A    between atoms: C_4  and  O_22
REMARK    3  A    between atoms: C_8  and  C_21
REMARK    4  A    between atoms: C_9  and  C_10
REMARK    5  A    between atoms: C_9  and  O_12
REMARK    6  A    between atoms: C_10  and  O_11
REMARK    7  A    between atoms: C_14  and  O_20
REMARK    8  A    between atoms: C_17  and  C_18
REMARK    9  A    between atoms: C_17  and  C_19
REMARK                            x       y       z     vdW  Elec       q    Type
REMARK                         _______ _______ _______ _____ _____    ______ ____
ROOT
ATOM      1  C   UNL     1       0.337   1.775   0.087  0.00  0.00    +0.042 C 
ATOM      2  C   UNL     1       0.212   0.287   0.308  0.00  0.00    -0.040 C 
ATOM      3  C   UNL     1      -0.228  -0.428  -0.673  0.00  0.00    +0.006 C 
ATOM      4  C   UNL     1      -0.412  -1.921  -0.598  0.00  0.00    +0.142 C 
ATOM      5  C   UNL     1       0.340  -2.480   0.603  0.00  0.00    +0.036 C 
ATOM      6  C   UNL     1       0.065  -1.678   1.865  0.00  0.00    +0.011 C 
ATOM      7  C   UNL     1       0.614  -0.252   1.646  0.00  0.00    +0.115 C 
ATOM      8  C   UNL     1       0.814  -2.258   3.066  0.00  0.00    +0.041 C 
ATOM      9  C   UNL     1       0.613  -3.757   3.224  0.00  0.00    +0.116 C 
ATOM     10  C   UNL     1       0.993  -4.498   1.952  0.00  0.00    +0.038 C 
ATOM     11  C   UNL     1       0.217  -3.982   0.738  0.00  0.00    -0.026 C 
ATOM     12  C   UNL     1      -1.221  -4.487   0.812  0.00  0.00    +0.011 C 
ATOM     13  C   UNL     1       0.867  -4.637  -0.504  0.00  0.00    +0.011 C 
ATOM     14  C   UNL     1      -1.425  -1.561   2.192  0.00  0.00    +0.015 C 
ENDROOT
BRANCH   7  15
ATOM     15  O   UNL     1       2.039  -0.271   1.730  0.00  0.00    -0.381 OA
ATOM     16  H   UNL     1       2.451   0.598   1.632  0.00  0.00    +0.211 HD
ENDBRANCH   7  15
BRANCH   9  17
ATOM     17  O   UNL     1      -0.713  -4.065   3.643  0.00  0.00    -0.392 OA
ATOM     18  H   UNL     1      -0.880  -5.011   3.755  0.00  0.00    +0.210 HD
ENDBRANCH   9  17
BRANCH   4  19
ATOM     19  O   UNL     1      -1.807  -2.194  -0.579  0.00  0.00    -0.387 OA
ATOM     20  H   UNL     1      -2.281  -1.875  -1.359  0.00  0.00    +0.210 HD
ENDBRANCH   4  19
BRANCH   7  21
ATOM     21  C   UNL     1       0.057   0.667   2.736  0.00  0.00    +0.195 C 
BRANCH  21  22
ATOM     22  O   UNL     1       0.497   0.209   4.016  0.00  0.00    -0.392 OA
ATOM     23  H   UNL     1       0.181   0.745   4.756  0.00  0.00    +0.210 HD
ENDBRANCH  21  22
ENDBRANCH   7  21
TORSDOF 5
