REMARK  Name = ZINC46085119
REMARK  10 active torsions:
REMARK  status: ('A' for Active; 'I' for Inactive)
REMARK    1  A    between atoms: C_1  and  C_2
REMARK    2  A    between atoms: N_9  and  O_10
REMARK    3  A    between atoms: N_13  and  C_14
REMARK    4  A    between atoms: C_14  and  C_15
REMARK    5  A    between atoms: C_15  and  O_16
REMARK    6  A    between atoms: O_16  and  C_17
REMARK    7  A    between atoms: C_20  and  C_23
REMARK    8  A    between atoms: C_23  and  C_24
REMARK    9  A    between atoms: C_23  and  C_25
REMARK   10  A    between atoms: C_23  and  C_26
REMARK                            x       y       z     vdW  Elec       q    Type
REMARK                         _______ _______ _______ _____ _____    ______ ____
ROOT
ATOM      1  C   UNL     1      -0.018   1.503   0.010  0.00  0.00    +0.044 C 
ATOM      2  C   UNL     1       0.002  -0.004   0.002  0.00  0.00    -0.039 A 
ATOM      3  C   UNL     1       0.006  -0.691  -1.196  0.00  0.00    +0.004 A 
ATOM      4  C   UNL     1       0.025  -2.075  -1.202  0.00  0.00    +0.002 A 
ATOM      5  C   UNL     1       0.040  -2.783  -0.017  0.00  0.00    +0.024 A 
ATOM      6  C   UNL     1       0.037  -2.109   1.199  0.00  0.00    +0.046 A 
ATOM      7  C   UNL     1       0.023  -0.708   1.200  0.00  0.00    +0.033 A 
ATOM      8  C   UNL     1       0.030  -0.289   2.622  0.00  0.00    +0.173 C 
ATOM      9  N   UNL     1       0.016   0.925   3.092  0.00  0.00    -0.082 NA
ATOM     10  C   UNL     1       0.054  -1.559   3.393  0.00  0.00    +0.273 C 
ATOM     11  O   UNL     1       0.065  -1.662   4.604  0.00  0.00    -0.268 OA
ATOM     12  N   UNL     1       0.050  -2.573   2.511  0.00  0.00    -0.262 N 
ENDROOT
BRANCH   9  13
ATOM     13  O   UNL     1       0.025   1.143   4.492  0.00  0.00    -0.409 OA
ATOM     14  H   UNL     1       0.014   2.076   4.745  0.00  0.00    +0.328 HD
ENDBRANCH   9  13
BRANCH  12  15
ATOM     15  C   UNL     1       0.071  -3.990   2.884  0.00  0.00    +0.155 C 
BRANCH  15  16
ATOM     16  C   UNL     1       1.521  -4.463   3.007  0.00  0.00    +0.248 C 
BRANCH  16  17
ATOM     17  O   UNL     1       2.156  -3.778   4.088  0.00  0.00    -0.490 OA
BRANCH  17  18
ATOM     18  C   UNL     1       3.457  -4.085   4.334  0.00  0.00    +0.121 A 
ATOM     19  C   UNL     1       4.111  -5.022   3.547  0.00  0.00    +0.046 A 
ATOM     20  C   UNL     1       5.433  -5.332   3.798  0.00  0.00    +0.008 A 
ATOM     21  C   UNL     1       6.105  -4.709   4.834  0.00  0.00    -0.042 A 
ATOM     22  C   UNL     1       5.456  -3.775   5.620  0.00  0.00    +0.008 A 
ATOM     23  C   UNL     1       4.135  -3.458   5.369  0.00  0.00    +0.046 A 
BRANCH  21  24
ATOM     24  C   UNL     1       7.548  -5.050   5.106  0.00  0.00    -0.013 C 
ATOM     25  C   UNL     1       8.390  -4.727   3.871  0.00  0.00    +0.015 C 
ATOM     26  C   UNL     1       8.050  -4.228   6.295  0.00  0.00    +0.015 C 
ATOM     27  C   UNL     1       7.668  -6.540   5.430  0.00  0.00    +0.015 C 
ENDBRANCH  21  24
ENDBRANCH  17  18
ENDBRANCH  16  17
ENDBRANCH  15  16
ENDBRANCH  12  15
TORSDOF 6
