REMARK  Name = ZINC44170653
REMARK  5 active torsions:
REMARK  status: ('A' for Active; 'I' for Inactive)
REMARK    1  A    between atoms: C_4  and  C_7
REMARK    2  A    between atoms: C_16  and  O_31
REMARK    3  A    between atoms: C_18  and  O_30
REMARK    4  A    between atoms: C_20  and  O_23
REMARK    5  A    between atoms: O_23  and  C_24
REMARK                            x       y       z     vdW  Elec       q    Type
REMARK                         _______ _______ _______ _____ _____    ______ ____
ROOT
ATOM      1  C   UNL     1       3.711  -0.707  -0.038  0.00  0.00    +0.282 C 
ATOM      2  O   UNL     1       4.392  -0.430  -1.262  0.00  0.00    -0.345 OA
ATOM      3  C   UNL     1       3.706  -0.882  -2.436  0.00  0.00    +0.197 C 
ATOM      4  C   UNL     1       3.469  -2.388  -2.305  0.00  0.00    +0.179 C 
ATOM      5  C   UNL     1       2.708  -2.646  -0.998  0.00  0.00    +0.184 C 
ATOM      6  O   UNL     1       3.470  -2.114   0.082  0.00  0.00    -0.339 OA
ATOM      7  C   UNL     1       2.505  -4.153  -0.842  0.00  0.00    +0.180 C 
ATOM      8  C   UNL     1       1.732  -4.668  -2.062  0.00  0.00    +0.214 C 
ATOM      9  C   UNL     1       2.485  -4.300  -3.342  0.00  0.00    +0.339 C 
ATOM     10  O   UNL     1       2.695  -2.885  -3.394  0.00  0.00    -0.331 OA
ENDROOT
BRANCH   1  14
ATOM     11  C   UNL     1      -0.016   1.379   0.014  0.00  0.00    +0.000 A 
ATOM     12  C   UNL     1       0.122   0.194   0.711  0.00  0.00    +0.000 A 
ATOM     13  C   UNL     1       1.328  -0.482   0.694  0.00  0.00    +0.008 A 
ATOM     14  C   UNL     1       2.396   0.029  -0.020  0.00  0.00    +0.008 A 
ATOM     15  C   UNL     1       2.258   1.214  -0.718  0.00  0.00    +0.008 A 
ATOM     16  C   UNL     1       1.052   1.890  -0.700  0.00  0.00    +0.000 A 
ENDBRANCH   1  14
BRANCH   8  17
ATOM     17  O   UNL     1       0.433  -4.074  -2.088  0.00  0.00    -0.383 OA
ATOM     18  H   UNL     1      -0.114  -4.354  -2.835  0.00  0.00    +0.210 HD
ENDBRANCH   8  17
BRANCH   7  19
ATOM     19  O   UNL     1       3.775  -4.804  -0.763  0.00  0.00    -0.386 OA
ATOM     20  H   UNL     1       3.720  -5.764  -0.663  0.00  0.00    +0.210 HD
ENDBRANCH   7  19
BRANCH   9  21
ATOM     21  O   UNL     1       3.748  -4.967  -3.357  0.00  0.00    -0.461 OA
BRANCH  21  22
ATOM     22  C   UNL     1       4.504  -4.831  -4.479  0.00  0.00    +0.124 A 
ATOM     23  C   UNL     1       4.042  -4.066  -5.540  0.00  0.00    +0.046 A 
ATOM     24  C   UNL     1       4.812  -3.929  -6.678  0.00  0.00    +0.004 A 
ATOM     25  C   UNL     1       6.043  -4.553  -6.761  0.00  0.00    +0.000 A 
ATOM     26  C   UNL     1       6.506  -5.316  -5.705  0.00  0.00    +0.004 A 
ATOM     27  C   UNL     1       5.742  -5.451  -4.562  0.00  0.00    +0.046 A 
ENDBRANCH  21  22
ENDBRANCH   9  21
TORSDOF 5
