REMARK  Name = ZINC66960610
REMARK  7 active torsions:
REMARK  status: ('A' for Active; 'I' for Inactive)
REMARK    1  A    between atoms: C_1  and  C_2
REMARK    2  A    between atoms: C_4  and  C_7
REMARK    3  A    between atoms: C_7  and  N_12
REMARK    4  A    between atoms: C_13  and  C_15
REMARK    5  A    between atoms: C_15  and  N_16
REMARK    6  A    between atoms: C_19  and  C_23
REMARK    7  A    between atoms: C_19  and  C_24
REMARK                            x       y       z     vdW  Elec       q    Type
REMARK                         _______ _______ _______ _____ _____    ______ ____
ROOT
ATOM      1  C   UNL     1      -4.387  -1.986   2.275  0.00  0.00    +0.213 C 
ENDROOT
BRANCH   1   2
ATOM      2  N   UNL     1      -5.168  -0.757   2.120  0.00  0.00    -0.215 N 
ATOM      3  C   UNL     1      -4.820   0.434   2.647  0.00  0.00    +0.251 C 
ATOM      4  O   UNL     1      -3.837   0.680   3.313  0.00  0.00    -0.272 OA
ATOM      5  C   UNL     1      -5.911   1.401   2.232  0.00  0.00    +0.135 C 
ATOM      6  N   UNL     1      -6.834   0.564   1.446  0.00  0.00    -0.281 N 
ATOM      7  C   UNL     1      -6.313  -0.676   1.433  0.00  0.00    +0.310 C 
ATOM      8  O   UNL     1      -6.828  -1.619   0.864  0.00  0.00    -0.252 OA
ATOM      9  C   UNL     1      -6.618   1.974   3.462  0.00  0.00    +0.047 C 
ATOM     10  H   UNL     1      -7.656   0.853   1.018  0.00  0.00    +0.152 HD
BRANCH   5  11
ATOM     11  C   UNL     1      -5.343   2.507   1.381  0.00  0.00    -0.016 A 
ATOM     12  C   UNL     1      -4.035   2.917   1.562  0.00  0.00    +0.006 A 
ATOM     13  C   UNL     1      -3.514   3.932   0.782  0.00  0.00    +0.000 A 
ATOM     14  C   UNL     1      -4.301   4.538  -0.180  0.00  0.00    +0.000 A 
ATOM     15  C   UNL     1      -5.609   4.128  -0.361  0.00  0.00    +0.000 A 
ATOM     16  C   UNL     1      -6.128   3.110   0.416  0.00  0.00    +0.006 A 
ENDBRANCH   5  11
ENDBRANCH   1   2
BRANCH   1  18
ATOM     17  N   UNL     1      -2.557  -3.150   1.086  0.00  0.00    -0.301 N 
ATOM     18  C   UNL     1      -3.390  -2.093   1.150  0.00  0.00    +0.232 C 
ATOM     19  O   UNL     1      -3.338  -1.228   0.302  0.00  0.00    -0.274 OA
ATOM     20  H   UNL     1      -2.598  -3.842   1.764  0.00  0.00    +0.150 HD
BRANCH  17  21
ATOM     21  C   UNL     1      -1.588  -3.254  -0.008  0.00  0.00    +0.097 C 
ATOM     22  C   UNL     1      -2.315  -3.374  -1.370  0.00  0.00    +0.034 C 
ATOM     23  C   UNL     1      -2.696  -4.874  -1.424  0.00  0.00    +0.003 C 
ATOM     24  C   UNL     1      -1.487  -5.595  -0.793  0.00  0.00    +0.003 C 
ATOM     25  C   UNL     1      -0.782  -4.565   0.107  0.00  0.00    +0.034 C 
BRANCH  21  29
ATOM     26  C   UNL     1      -0.018   1.503   0.010  0.00  0.00    +0.112 C 
ATOM     27  C   UNL     1       0.002  -0.004   0.002  0.00  0.00    +0.224 A 
ATOM     28  N   UNL     1      -1.044  -0.783   0.003  0.00  0.00    -0.194 NA
ATOM     29  C   UNL     1      -0.663  -2.065  -0.006  0.00  0.00    +0.195 A 
ATOM     30  N   UNL     1       0.638  -2.118  -0.012  0.00  0.00    -0.059 NA
ATOM     31  O   UNL     1       1.097  -0.774  -0.013  0.00  0.00    -0.338 OA
ENDBRANCH  21  29
ENDBRANCH  17  21
ENDBRANCH   1  18
TORSDOF 5
