REMARK  Name = ZINC22716135
REMARK  3 active torsions:
REMARK  status: ('A' for Active; 'I' for Inactive)
REMARK    1  A    between atoms: C_1  and  C_2
REMARK    2  A    between atoms: C_33  and  N_37
REMARK    3  A    between atoms: C_34  and  C_35
REMARK                            x       y       z     vdW  Elec       q    Type
REMARK                         _______ _______ _______ _____ _____    ______ ____
ROOT
ATOM      1  C   UNL     1      -0.019   1.526   0.010  0.00  0.00    +0.012 C 
ATOM      2  C   UNL     1       0.002  -0.004   0.002  0.00  0.00    +0.020 C 
ATOM      3  C   UNL     1       0.725  -0.490  -1.257  0.00  0.00    +0.034 C 
ATOM      4  C   UNL     1       0.781  -2.031  -1.322  0.00  0.00    +0.043 C 
ATOM      5  C   UNL     1      -0.652  -2.550  -1.335  0.00  0.00    +0.026 C 
ATOM      6  C   UNL     1      -0.667  -4.052  -1.621  0.00  0.00    +0.002 C 
ATOM      7  C   UNL     1      -0.116  -4.263  -3.033  0.00  0.00    +0.000 C 
ATOM      8  C   UNL     1       1.344  -3.825  -3.076  0.00  0.00    +0.002 C 
ATOM      9  C   UNL     1       1.551  -2.409  -2.574  0.00  0.00    +0.026 C 
ATOM     10  N   UNL     1       1.465  -2.495  -0.103  0.00  0.00    -0.263 N 
ATOM     11  C   UNL     1       1.417  -1.724   1.061  0.00  0.00    +0.045 A 
ATOM     12  C   UNL     1       0.735  -0.514   1.209  0.00  0.00    -0.023 A 
ATOM     13  C   UNL     1       0.794   0.092   2.439  0.00  0.00    +0.006 A 
ATOM     14  C   UNL     1       1.522  -0.474   3.477  0.00  0.00    +0.001 A 
ATOM     15  C   UNL     1       2.209  -1.676   3.333  0.00  0.00    +0.007 A 
ATOM     16  C   UNL     1       2.134  -2.295   2.104  0.00  0.00    -0.001 A 
ATOM     17  C   UNL     1       2.681  -3.572   1.553  0.00  0.00    +0.148 C 
ATOM     18  C   UNL     1       2.171  -3.614   0.119  0.00  0.00    +0.241 C 
ATOM     19  O   UNL     1       2.386  -4.518  -0.659  0.00  0.00    -0.273 OA
ATOM     20  C   UNL     1       4.183  -3.563   1.550  0.00  0.00    +0.104 A 
ATOM     21  C   UNL     1       4.882  -4.391   2.380  0.00  0.00    +0.152 A 
ATOM     22  C   UNL     1       6.351  -4.354   2.316  0.00  0.00    +0.060 A 
ATOM     23  C   UNL     1       7.126  -5.179   3.134  0.00  0.00    +0.015 A 
ATOM     24  C   UNL     1       8.500  -5.127   3.047  0.00  0.00    +0.001 A 
ATOM     25  C   UNL     1       9.111  -4.261   2.152  0.00  0.00    +0.004 A 
ATOM     26  C   UNL     1       8.357  -3.439   1.341  0.00  0.00    +0.047 A 
ATOM     27  C   UNL     1       6.969  -3.474   1.414  0.00  0.00    +0.143 A 
ATOM     28  O   UNL     1       6.222  -2.673   0.629  0.00  0.00    -0.422 OA
ATOM     29  C   UNL     1       4.884  -2.696   0.696  0.00  0.00    +0.346 A 
ATOM     30  O   UNL     1       4.258  -1.928  -0.013  0.00  0.00    -0.245 OA
ATOM     31  O   UNL     1       4.264  -5.220   3.240  0.00  0.00    -0.440 OA
ATOM     32  C   UNL     1       2.958  -5.502   3.100  0.00  0.00    +0.199 C 
ATOM     33  C   UNL     1       2.149  -4.753   2.311  0.00  0.00    +0.110 C 
ENDROOT
BRANCH  32  34
ATOM     34  N   UNL     1       2.427  -6.573   3.774  0.00  0.00    -0.328 N 
ATOM     35  H   UNL     1       2.994  -7.117   4.344  0.00  0.00    +0.145 HD
ATOM     36  H   UNL     1       1.486  -6.787   3.682  0.00  0.00    +0.145 HD
ENDBRANCH  32  34
BRANCH  33  37
ATOM     37  C   UNL     1       0.762  -5.099   2.205  0.00  0.00    +0.102 C 
ATOM     38  N   UNL     1      -0.337  -5.373   2.122  0.00  0.00    -0.191 NA
ENDBRANCH  33  37
TORSDOF 2
