REMARK  Name = ZINC25151361
REMARK  5 active torsions:
REMARK  status: ('A' for Active; 'I' for Inactive)
REMARK    1  A    between atoms: C_1  and  C_2
REMARK    2  A    between atoms: C_2  and  C_20
REMARK    3  A    between atoms: C_4  and  N_10
REMARK    4  A    between atoms: C_6  and  C_8
REMARK    5  A    between atoms: C_6  and  C_9
REMARK                            x       y       z     vdW  Elec       q    Type
REMARK                         _______ _______ _______ _____ _____    ______ ____
ROOT
ATOM      1  C   UNL     1       3.370   7.992   1.714  0.00  0.00    -0.010 C 
ATOM      2  C   UNL     1       4.224   7.394   0.589  0.00  0.00    -0.072 C 
ATOM      3  C   UNL     1       4.078   5.875   0.589  0.00  0.00    +0.009 C 
ATOM      4  C   UNL     1       2.724   5.471   0.006  0.00  0.00    +0.069 C 
ATOM      5  C   UNL     1       2.639   5.989  -1.430  0.00  0.00    +0.009 C 
ATOM      6  C   UNL     1       2.771   7.509  -1.456  0.00  0.00    -0.072 C 
ATOM      7  N   UNL     1       3.900   7.993  -0.689  0.00  0.00    +0.386 N 
ATOM      8  C   UNL     1       1.461   8.145  -0.974  0.00  0.00    -0.010 C 
ATOM      9  C   UNL     1       2.970   7.934  -2.928  0.00  0.00    -0.010 C 
ATOM     10  C   UNL     1       5.699   7.720   0.913  0.00  0.00    -0.010 C 
ATOM     11  H   UNL     1       3.684   9.062  -0.549  0.00  0.00    -0.084 HD
ATOM     12  H   UNL     1       4.752   7.878  -1.375  0.00  0.00    -0.084 HD
ENDROOT
BRANCH   4  13
ATOM     13  N   UNL     1       2.618   4.006  -0.001  0.00  0.00    -0.325 N 
ATOM     14  C   UNL     1       1.371   3.402   0.007  0.00  0.00    +0.137 A 
ATOM     15  C   UNL     1       1.250   2.023   0.001  0.00  0.00    +0.077 A 
ATOM     16  C   UNL     1      -0.017   1.402   0.010  0.00  0.00    +0.083 A 
ATOM     17  C   UNL     1       0.002  -0.004   0.002  0.00  0.00    +0.036 A 
ATOM     18  C   UNL     1       1.175  -0.665  -0.013  0.00  0.00    +0.048 A 
ATOM     19  S   UNL     1       2.377   0.655  -0.017  0.00  0.00    -0.092 S 
ATOM     20  N   UNL     1      -1.081   2.243   0.030  0.00  0.00    -0.235 NA
ATOM     21  C   UNL     1      -0.924   3.541   0.030  0.00  0.00    +0.224 A 
ATOM     22  N   UNL     1       0.256   4.134   0.022  0.00  0.00    -0.220 NA
ATOM     23  H   UNL     1       3.528   3.389  -0.013  0.00  0.00    +0.148 HD
ENDBRANCH   4  13
TORSDOF 1
