REMARK  Name = ZINC52341960
REMARK  6 active torsions:
REMARK  status: ('A' for Active; 'I' for Inactive)
REMARK    1  A    between atoms: C_1  and  C_2
REMARK    2  A    between atoms: C_3  and  C_21
REMARK    3  A    between atoms: N_4  and  C_12
REMARK    4  A    between atoms: C_7  and  N_11
REMARK    5  A    between atoms: C_12  and  C_14
REMARK    6  A    between atoms: C_12  and  C_15
REMARK                            x       y       z     vdW  Elec       q    Type
REMARK                         _______ _______ _______ _____ _____    ______ ____
ROOT
ATOM      1  C   UNL     1      -0.018   1.503   0.010  0.00  0.00    +0.046 C 
ATOM      2  C   UNL     1       0.002  -0.004   0.002  0.00  0.00    -0.017 A 
ATOM      3  C   UNL     1       0.008  -0.799  -1.081  0.00  0.00    +0.021 A 
ATOM      4  N   UNL     1       0.028  -2.113  -0.692  0.00  0.00    -0.326 N 
ATOM      5  C   UNL     1       0.035  -2.198   0.673  0.00  0.00    +0.146 A 
ATOM      6  C   UNL     1       0.026  -0.882   1.171  0.00  0.00    +0.062 A 
ATOM      7  C   UNL     1       0.036  -0.687   2.560  0.00  0.00    +0.129 A 
ATOM      8  N   UNL     1       0.058  -1.759   3.347  0.00  0.00    -0.220 NA
ATOM      9  C   UNL     1       0.070  -2.978   2.838  0.00  0.00    +0.225 A 
ATOM     10  N   UNL     1       0.052  -3.207   1.543  0.00  0.00    -0.218 NA
ATOM     11  C   UNL     1      -0.005  -0.318  -2.509  0.00  0.00    +0.064 C 
ENDROOT
BRANCH   7  12
ATOM     12  N   UNL     1       0.025   0.587   3.098  0.00  0.00    -0.343 N 
ATOM     13  H   UNL     1       0.009   1.361   2.512  0.00  0.00    +0.144 HD
ATOM     14  H   UNL     1       0.032   0.708   4.060  0.00  0.00    +0.144 HD
ENDBRANCH   7  12
BRANCH   4  15
ATOM     15  C   UNL     1       0.039  -3.259  -1.605  0.00  0.00    +0.089 C 
ATOM     16  C   UNL     1      -1.198  -4.124  -1.352  0.00  0.00    +0.031 C 
BRANCH  15  17
ATOM     17  C   UNL     1       1.300  -4.091  -1.364  0.00  0.00    +0.012 C 
ATOM     18  C   UNL     1       2.537  -3.225  -1.617  0.00  0.00    +0.005 C 
ATOM     19  C   UNL     1       3.799  -4.057  -1.376  0.00  0.00    +0.000 C 
ATOM     20  C   UNL     1       3.810  -5.254  -2.330  0.00  0.00    +0.000 C 
ATOM     21  C   UNL     1       2.574  -6.119  -2.077  0.00  0.00    +0.000 C 
ATOM     22  C   UNL     1       1.312  -5.287  -2.318  0.00  0.00    +0.005 C 
ENDBRANCH  15  17
ENDBRANCH   4  15
TORSDOF 3
