REMARK  Name = ZINC02240885
REMARK  6 active torsions:
REMARK  status: ('A' for Active; 'I' for Inactive)
REMARK    1  A    between atoms: C_1  and  C_2
REMARK    2  A    between atoms: C_12  and  C_14
REMARK    3  A    between atoms: N_16  and  C_17
REMARK    4  A    between atoms: C_18  and  C_26
REMARK    5  A    between atoms: C_26  and  O_28
REMARK    6  A    between atoms: O_28  and  C_29
REMARK                            x       y       z     vdW  Elec       q    Type
REMARK                         _______ _______ _______ _____ _____    ______ ____
ROOT
ATOM      1  C   UNL     1      -0.014   1.211   0.009  0.00  0.00    +0.284 C 
ATOM      2  O   UNL     1       0.002  -0.004   0.002  0.00  0.00    -0.266 OA
ATOM      3  N   UNL     1       1.143   1.901   0.001  0.00  0.00    -0.273 N 
ATOM      4  H   UNL     1       1.130   2.871   0.007  0.00  0.00    +0.156 HD
ENDROOT
BRANCH   1  16
ATOM      5  C   UNL     1      -3.402   7.669   0.062  0.00  0.00    +0.045 C 
ATOM      6  C   UNL     1      -3.494   6.165   0.053  0.00  0.00    -0.029 A 
ATOM      7  C   UNL     1      -2.340   5.411   0.043  0.00  0.00    +0.051 A 
ATOM      8  C   UNL     1      -2.416   4.023   0.035  0.00  0.00    +0.140 A 
ATOM      9  C   UNL     1      -3.679   3.405   0.038  0.00  0.00    +0.065 A 
ATOM     10  C   UNL     1      -4.839   4.178   0.048  0.00  0.00    +0.035 A 
ATOM     11  C   UNL     1      -4.741   5.553   0.056  0.00  0.00    +0.045 A 
ATOM     12 CL   UNL     1      -6.180   6.523   0.069  0.00  0.00    -0.083 Cl
ATOM     13  C   UNL     1      -3.739   1.931   0.030  0.00  0.00    +0.193 A 
ATOM     14  O   UNL     1      -4.802   1.336   0.033  0.00  0.00    -0.287 OA
ATOM     15  C   UNL     1      -2.455   1.214   0.020  0.00  0.00    +0.103 A 
ATOM     16  C   UNL     1      -1.307   1.934   0.019  0.00  0.00    +0.194 A 
ATOM     17  O   UNL     1      -1.295   3.275   0.032  0.00  0.00    -0.450 OA
ENDBRANCH   1  16
BRANCH   3  18
ATOM     18  C   UNL     1       2.351   1.225  -0.014  0.00  0.00    +0.087 A 
ATOM     19  C   UNL     1       3.636   1.754  -0.029  0.00  0.00    +0.091 A 
ATOM     20  C   UNL     1       4.747   0.817  -0.039  0.00  0.00    -0.021 A 
ATOM     21  C   UNL     1       4.398  -0.488  -0.043  0.00  0.00    -0.004 A 
ATOM     22  S   UNL     1       2.628  -0.485  -0.026  0.00  0.00    -0.077 S 
ATOM     23  C   UNL     1       5.320  -1.669  -0.060  0.00  0.00    +0.043 C 
ATOM     24  C   UNL     1       6.723  -1.182  -0.450  0.00  0.00    +0.005 C 
ATOM     25  C   UNL     1       7.068   0.051   0.391  0.00  0.00    +0.005 C 
ATOM     26  C   UNL     1       6.211   1.238  -0.051  0.00  0.00    +0.037 C 
BRANCH  19  27
ATOM     27  C   UNL     1       3.862   3.201  -0.031  0.00  0.00    +0.342 C 
ATOM     28  O   UNL     1       3.970   3.801   1.022  0.00  0.00    -0.245 OA
BRANCH  27  29
ATOM     29  O   UNL     1       3.952   3.868  -1.200  0.00  0.00    -0.464 OA
ATOM     30  C   UNL     1       4.177   5.300  -1.125  0.00  0.00    +0.280 C 
ENDBRANCH  27  29
ENDBRANCH  19  27
ENDBRANCH   3  18
TORSDOF 4
