REMARK  Name = ZINC16677530
REMARK  6 active torsions:
REMARK  status: ('A' for Active; 'I' for Inactive)
REMARK    1  A    between atoms: C_1  and  O_2
REMARK    2  A    between atoms: O_2  and  C_3
REMARK    3  A    between atoms: C_7  and  C_10
REMARK    4  A    between atoms: C_8  and  O_9
REMARK    5  A    between atoms: N_11  and  N_12
REMARK    6  A    between atoms: C_13  and  C_15
REMARK                            x       y       z     vdW  Elec       q    Type
REMARK                         _______ _______ _______ _____ _____    ______ ____
ROOT
ATOM      1  N   UNL     1      -7.338  -1.122   1.527  0.00  0.00    -0.204 N 
ATOM      2  C   UNL     1      -6.121  -1.699   1.464  0.00  0.00    +0.276 C 
ATOM      3  O   UNL     1      -5.867  -2.484   0.575  0.00  0.00    -0.270 OA
ATOM      4  H   UNL     1      -7.518  -0.441   2.194  0.00  0.00    +0.177 HD
ENDROOT
BRANCH   2   5
ATOM      5  C   UNL     1      -5.076  -1.368   2.498  0.00  0.00    +0.297 C 
ATOM      6  C   UNL     1      -4.636   0.093   2.340  0.00  0.00    +0.283 C 
ATOM      7  O   UNL     1      -3.643   0.373   3.333  0.00  0.00    -0.484 OA
ATOM      8  C   UNL     1      -2.647  -0.544   3.478  0.00  0.00    +0.163 A 
ATOM      9  C   UNL     1      -1.507  -0.179   4.138  0.00  0.00    +0.058 A 
ATOM     10  C   UNL     1      -0.466  -1.106   4.304  0.00  0.00    -0.014 A 
ATOM     11  C   UNL     1       0.719  -0.760   4.976  0.00  0.00    +0.008 A 
ATOM     12  C   UNL     1       1.706  -1.686   5.123  0.00  0.00    +0.001 A 
ATOM     13  C   UNL     1       1.560  -2.976   4.618  0.00  0.00    +0.001 A 
ATOM     14  C   UNL     1       0.426  -3.348   3.962  0.00  0.00    +0.008 A 
ATOM     15  C   UNL     1      -0.614  -2.419   3.790  0.00  0.00    -0.014 A 
ATOM     16  C   UNL     1      -1.798  -2.767   3.119  0.00  0.00    +0.058 A 
ATOM     17  C   UNL     1      -2.793  -1.843   2.968  0.00  0.00    +0.164 A 
ATOM     18  O   UNL     1      -3.930  -2.204   2.311  0.00  0.00    -0.472 OA
ENDBRANCH   2   5
BRANCH   1  20
ATOM     19  C   UNL     1      -9.475  -0.873   0.613  0.00  0.00    +0.142 C 
ATOM     20  N   UNL     1      -8.342  -1.506   0.629  0.00  0.00    -0.187 NA
BRANCH  19  25
ATOM     21  C   UNL     1     -11.028   1.939   2.575  0.00  0.00    +0.163 A 
ATOM     22  C   UNL     1      -9.919   2.734   2.818  0.00  0.00    +0.069 A 
ATOM     23  C   UNL     1      -8.672   2.359   2.347  0.00  0.00    +0.045 A 
ATOM     24  C   UNL     1      -8.521   1.187   1.635  0.00  0.00    +0.033 A 
ATOM     25  C   UNL     1      -9.631   0.378   1.378  0.00  0.00    +0.041 A 
ATOM     26  C   UNL     1     -10.892   0.758   1.855  0.00  0.00    +0.167 A 
ATOM     27 CL   UNL     1      -7.292   3.364   2.660  0.00  0.00    -0.083 Cl
BRANCH  21  29
ATOM     28  C   UNL     1     -12.317   3.539   3.772  0.00  0.00    +0.277 C 
ATOM     29  O   UNL     1     -12.250   2.314   3.040  0.00  0.00    -0.491 OA
ENDBRANCH  21  29
BRANCH  26  30
ATOM     30  O   UNL     1     -11.977  -0.024   1.615  0.00  0.00    -0.503 OA
ATOM     31  H   UNL     1     -12.184  -0.639   2.331  0.00  0.00    +0.292 HD
ENDBRANCH  26  30
ENDBRANCH  19  25
ENDBRANCH   1  20
TORSDOF 5
