REMARK  Name = ZINC52096723
REMARK  7 active torsions:
REMARK  status: ('A' for Active; 'I' for Inactive)
REMARK    1  A    between atoms: C_1  and  N_2
REMARK    2  A    between atoms: C_4  and  S_7
REMARK    3  A    between atoms: S_7  and  N_10
REMARK    4  A    between atoms: N_10  and  C_11
REMARK    5  A    between atoms: C_14  and  C_17
REMARK    6  A    between atoms: C_17  and  C_18
REMARK    7  A    between atoms: N_19  and  O_20
REMARK                            x       y       z     vdW  Elec       q    Type
REMARK                         _______ _______ _______ _____ _____    ______ ____
ROOT
ATOM      1  C   UNL     1      -1.831  -5.077  -2.710  0.00  0.00    +0.074 A 
ATOM      2  C   UNL     1      -0.805  -5.843  -3.249  0.00  0.00    +0.027 A 
ATOM      3  C   UNL     1      -1.103  -6.953  -4.014  0.00  0.00    +0.006 A 
ATOM      4  C   UNL     1      -2.420  -7.303  -4.245  0.00  0.00    -0.040 A 
ATOM      5  C   UNL     1      -3.444  -6.543  -3.710  0.00  0.00    +0.006 A 
ATOM      6  C   UNL     1      -3.154  -5.435  -2.939  0.00  0.00    +0.027 A 
ENDROOT
BRANCH   1   7
ATOM      7  N   UNL     1      -1.534  -3.954  -1.936  0.00  0.00    -0.096 NA
BRANCH   7   8
ATOM      8  S   UNL     1       0.044  -3.529  -1.664  0.00  0.00    +0.108 S 
ATOM      9  O   UNL     1       0.583  -3.145  -2.921  0.00  0.00    -0.147 OA
ATOM     10  O   UNL     1       0.613  -4.565  -0.875  0.00  0.00    -0.147 OA
BRANCH   8  14
ATOM     11  C   UNL     1      -0.018   1.461   0.010  0.00  0.00    +0.150 C 
ATOM     12  N   UNL     1       0.002  -0.004   0.002  0.00  0.00    -0.340 N 
ATOM     13  C   UNL     1       0.008  -0.810  -1.104  0.00  0.00    +0.134 A 
ATOM     14  C   UNL     1       0.028  -2.081  -0.660  0.00  0.00    +0.195 A 
ATOM     15  N   UNL     1       0.034  -2.052   0.681  0.00  0.00    -0.330 N 
ATOM     16  C   UNL     1       0.024  -0.811   1.085  0.00  0.00    +0.175 A 
ATOM     17  H   UNL     1       0.048  -2.831   1.260  0.00  0.00    +0.168 HD
ENDBRANCH   8  14
ENDBRANCH   7   8
ENDBRANCH   1   7
BRANCH   4  18
ATOM     18  C   UNL     1      -2.741  -8.515  -5.081  0.00  0.00    +0.109 C 
BRANCH  18  19
ATOM     19  C   UNL     1      -2.838  -9.728  -4.192  0.00  0.00    +0.136 C 
ATOM     20  N   UNL     1      -2.652  -9.612  -2.919  0.00  0.00    -0.076 NA
ATOM     21  N   UNL     1      -3.124 -10.960  -4.736  0.00  0.00    -0.344 N 
ATOM     22  H   UNL     1      -3.264 -11.047  -5.692  0.00  0.00    +0.144 HD
ATOM     23  H   UNL     1      -3.186 -11.741  -4.164  0.00  0.00    +0.144 HD
BRANCH  20  24
ATOM     24  O   UNL     1      -2.742 -10.751  -2.083  0.00  0.00    -0.408 OA
ATOM     25  H   UNL     1      -2.588 -10.566  -1.147  0.00  0.00    +0.328 HD
ENDBRANCH  20  24
ENDBRANCH  18  19
ENDBRANCH   4  18
TORSDOF 6
