REMARK  Name = ZINC49526817
REMARK  7 active torsions:
REMARK  status: ('A' for Active; 'I' for Inactive)
REMARK    1  A    between atoms: C_1  and  C_2
REMARK    2  A    between atoms: C_2  and  C_4
REMARK    3  A    between atoms: C_2  and  N_11
REMARK    4  A    between atoms: C_12  and  C_14
REMARK    5  A    between atoms: N_16  and  C_17
REMARK    6  A    between atoms: C_17  and  C_18
REMARK    7  A    between atoms: C_18  and  N_20
REMARK                            x       y       z     vdW  Elec       q    Type
REMARK                         _______ _______ _______ _____ _____    ______ ____
ROOT
ATOM      1  N   UNL     1      -1.372  -0.511   0.012  0.00  0.00    -0.301 N 
ATOM      2  C   UNL     1      -2.029  -0.655   1.181  0.00  0.00    +0.299 C 
ATOM      3  O   UNL     1      -1.481  -0.365   2.224  0.00  0.00    -0.265 OA
ATOM      4  H   UNL     1      -1.810  -0.743  -0.822  0.00  0.00    +0.150 HD
ENDROOT
BRANCH   2   5
ATOM      5  C   UNL     1      -3.431  -1.173   1.191  0.00  0.00    +0.299 C 
ATOM      6  O   UNL     1      -3.978  -1.463   0.148  0.00  0.00    -0.265 OA
ATOM      7  N   UNL     1      -4.087  -1.317   2.360  0.00  0.00    -0.302 N 
ATOM      8  H   UNL     1      -3.649  -1.085   3.194  0.00  0.00    +0.150 HD
BRANCH   7   9
ATOM      9  C   UNL     1      -5.461  -1.824   2.370  0.00  0.00    +0.163 C 
BRANCH   9  10
ATOM     10  C   UNL     1      -5.962  -1.889   3.790  0.00  0.00    +0.064 C 
ATOM     11  S   UNL     1      -5.012  -1.436   4.994  0.00  0.00    -0.039 S 
BRANCH  10  12
ATOM     12  N   UNL     1      -7.210  -2.329   4.045  0.00  0.00    -0.354 N 
ATOM     13  H   UNL     1      -7.786  -2.603   3.314  0.00  0.00    +0.143 HD
ATOM     14  H   UNL     1      -7.532  -2.371   4.959  0.00  0.00    +0.143 HD
ENDBRANCH  10  12
ENDBRANCH   9  10
ENDBRANCH   7   9
ENDBRANCH   2   5
BRANCH   1  16
ATOM     15  C   UNL     1      -0.019   1.526   0.010  0.00  0.00    +0.033 C 
ATOM     16  C   UNL     1       0.002  -0.004   0.002  0.00  0.00    +0.101 C 
BRANCH  16  17
ATOM     17  C   UNL     1       0.707  -0.490  -1.238  0.00  0.00    -0.027 A 
ATOM     18  C   UNL     1       0.037  -0.521  -2.447  0.00  0.00    +0.007 A 
ATOM     19  C   UNL     1       0.684  -0.967  -3.584  0.00  0.00    +0.020 A 
ATOM     20  C   UNL     1       2.002  -1.382  -3.513  0.00  0.00    +0.041 A 
ATOM     21  C   UNL     1       2.672  -1.350  -2.303  0.00  0.00    +0.020 A 
ATOM     22  C   UNL     1       2.026  -0.899  -1.167  0.00  0.00    +0.007 A 
ATOM     23 CL   UNL     1       2.814  -1.942  -4.941  0.00  0.00    -0.084 Cl
ENDBRANCH  16  17
ENDBRANCH   1  16
TORSDOF 6
