REMARK  Name = ZINC04123973
REMARK  6 active torsions:
REMARK  status: ('A' for Active; 'I' for Inactive)
REMARK    1  A    between atoms: C_1  and  C_2
REMARK    2  A    between atoms: N_7  and  C_8
REMARK    3  A    between atoms: C_8  and  C_10
REMARK    4  A    between atoms: C_8  and  C_17
REMARK    5  A    between atoms: C_15  and  C_16
REMARK    6  A    between atoms: C_26  and  O_27
REMARK                            x       y       z     vdW  Elec       q    Type
REMARK                         _______ _______ _______ _____ _____    ______ ____
ROOT
ATOM      1  C   UNL     1      -1.148   1.742   0.518  0.00  0.00    +0.136 C 
ENDROOT
BRANCH   1   8
ATOM      2  C   UNL     1      -1.443   1.726  -4.598  0.00  0.00    +0.044 C 
ATOM      3  C   UNL     1      -2.124   0.967  -3.489  0.00  0.00    -0.046 A 
ATOM      4  C   UNL     1      -3.082   0.002  -3.772  0.00  0.00    +0.021 A 
ATOM      5  C   UNL     1      -3.687  -0.676  -2.733  0.00  0.00    +0.084 A 
ATOM      6  C   UNL     1      -2.459   0.495  -1.168  0.00  0.00    +0.097 A 
ATOM      7  C   UNL     1      -1.809   1.216  -2.165  0.00  0.00    +0.045 A 
ATOM      8  N   UNL     1      -2.152   0.734   0.166  0.00  0.00    -0.320 N 
ATOM      9  H   UNL     1      -2.602   0.234   0.865  0.00  0.00    +0.148 HD
ATOM     10  N   UNL     1      -3.398  -0.462  -1.421  0.00  0.00    -0.350 N 
ATOM     11  H   UNL     1      -3.858  -0.987  -0.669  0.00  0.00    +0.166 HD
ENDBRANCH   1   8
BRANCH   1  12
ATOM     12  C   UNL     1      -1.430   2.271   1.900  0.00  0.00    +0.021 A 
ATOM     13  C   UNL     1      -0.652   1.839   2.971  0.00  0.00    +0.010 A 
ATOM     14  C   UNL     1      -0.876   2.302   4.232  0.00  0.00    +0.010 A 
ATOM     15  C   UNL     1      -1.915   3.220   4.462  0.00  0.00    +0.004 A 
ATOM     16  C   UNL     1      -2.182   3.716   5.752  0.00  0.00    +0.011 A 
ATOM     17  C   UNL     1      -3.207   4.606   5.901  0.00  0.00    +0.020 A 
ATOM     18  C   UNL     1      -3.954   4.997   4.792  0.00  0.00    +0.111 A 
ATOM     19  N   UNL     1      -3.703   4.532   3.592  0.00  0.00    -0.251 NA
ATOM     20  C   UNL     1      -2.714   3.659   3.378  0.00  0.00    +0.113 A 
ATOM     21  C   UNL     1      -2.448   3.162   2.085  0.00  0.00    +0.148 A 
BRANCH  21  22
ATOM     22  O   UNL     1      -3.200   3.568   1.029  0.00  0.00    -0.504 OA
ATOM     23  H   UNL     1      -3.977   3.017   0.865  0.00  0.00    +0.292 HD
ENDBRANCH  21  22
ENDBRANCH   1  12
BRANCH   1  24
ATOM     24  C   UNL     1       0.223   1.118   0.488  0.00  0.00    -0.020 A 
ATOM     25  C   UNL     1       0.362  -0.251   0.626  0.00  0.00    +0.006 A 
ATOM     26  C   UNL     1       1.619  -0.825   0.593  0.00  0.00    +0.000 A 
ATOM     27  C   UNL     1       2.737  -0.030   0.422  0.00  0.00    +0.000 A 
ATOM     28  C   UNL     1       2.598   1.338   0.284  0.00  0.00    +0.004 A 
ATOM     29  C   UNL     1       1.341   1.912   0.318  0.00  0.00    -0.045 A 
ATOM     30  C   UNL     1       1.189   3.404   0.167  0.00  0.00    +0.044 C 
ENDBRANCH   1  24
TORSDOF 4
