REMARK  Name = ZINC06909253
REMARK  10 active torsions:
REMARK  status: ('A' for Active; 'I' for Inactive)
REMARK    1  A    between atoms: C_4  and  C_7
REMARK    2  A    between atoms: C_7  and  C_9
REMARK    3  A    between atoms: C_12  and  N_18
REMARK    4  A    between atoms: C_13  and  N_15
REMARK    5  A    between atoms: N_18  and  C_19
REMARK    6  A    between atoms: C_19  and  C_20
REMARK    7  A    between atoms: C_20  and  C_21
REMARK    8  A    between atoms: C_21  and  C_22
REMARK    9  A    between atoms: C_23  and  C_29
REMARK   10  A    between atoms: C_24  and  N_28
REMARK                            x       y       z     vdW  Elec       q    Type
REMARK                         _______ _______ _______ _____ _____    ______ ____
ROOT
ATOM      1  C   UNL     1       3.780  -2.196  -0.221  0.00  0.00    +0.025 A 
ATOM      2  C   UNL     1       2.610  -2.928   0.010  0.00  0.00    +0.013 A 
ATOM      3  C   UNL     1       2.688  -4.246   0.359  0.00  0.00    +0.026 A 
ATOM      4  C   UNL     1       3.931  -4.862   0.487  0.00  0.00    +0.058 A 
ATOM      5  C   UNL     1       5.097  -4.137   0.258  0.00  0.00    +0.148 A 
ATOM      6  C   UNL     1       5.026  -2.820  -0.098  0.00  0.00    +0.046 A 
ENDROOT
BRANCH   5   7
ATOM      7  N   UNL     1       6.416  -4.795   0.396  0.00  0.00    +0.058 N 
ATOM      8  O   UNL     1       7.347  -4.190   0.875  0.00  0.00    -0.126 OA
ATOM      9  O   UNL     1       6.562  -5.938   0.029  0.00  0.00    -0.126 OA
ENDBRANCH   5   7
BRANCH   1  10
ATOM     10  C   UNL     1       3.700  -0.774  -0.599  0.00  0.00    +0.193 C 
ATOM     11  O   UNL     1       4.616  -0.253  -1.206  0.00  0.00    -0.287 OA
BRANCH  10  15
ATOM     12  C   UNL     1       0.267   1.506   0.429  0.00  0.00    +0.000 A 
ATOM     13  C   UNL     1       1.114   1.950  -0.572  0.00  0.00    +0.001 A 
ATOM     14  C   UNL     1       2.230   1.214  -0.911  0.00  0.00    +0.012 A 
ATOM     15  C   UNL     1       2.505   0.020  -0.241  0.00  0.00    +0.022 A 
ATOM     16  C   UNL     1       1.647  -0.422   0.767  0.00  0.00    +0.012 A 
ATOM     17  C   UNL     1       0.533   0.324   1.096  0.00  0.00    +0.001 A 
ENDBRANCH  10  15
ENDBRANCH   1  10
BRANCH   4  18
ATOM     18  N   UNL     1       4.006  -6.203   0.843  0.00  0.00    -0.342 N 
ATOM     19  H   UNL     1       4.871  -6.619   0.983  0.00  0.00    +0.146 HD
BRANCH  18  20
ATOM     20  C   UNL     1       2.780  -6.987   1.008  0.00  0.00    +0.102 C 
BRANCH  20  21
ATOM     21  C   UNL     1       3.141  -8.422   1.399  0.00  0.00    +0.025 C 
BRANCH  21  22
ATOM     22  C   UNL     1       1.861  -9.241   1.571  0.00  0.00    +0.060 C 
BRANCH  22  23
ATOM     23  C   UNL     1       2.216 -10.654   1.956  0.00  0.00    +0.082 A 
ATOM     24  C   UNL     1       2.456 -11.722   1.061  0.00  0.00    +0.113 A 
ATOM     25  C   UNL     1       2.749 -12.843   1.833  0.00  0.00    +0.129 A 
ATOM     26  N   UNL     1       2.688 -12.461   3.126  0.00  0.00    -0.263 N 
ATOM     27  H   UNL     1       2.847 -13.032   3.894  0.00  0.00    +0.190 HD
ATOM     28  N   UNL     1       2.362 -11.101   3.172  0.00  0.00    -0.176 NA
BRANCH  25  29
ATOM     29  N   UNL     1       3.047 -14.108   1.364  0.00  0.00    -0.342 N 
ATOM     30  H   UNL     1       3.065 -14.279   0.410  0.00  0.00    +0.144 HD
ATOM     31  H   UNL     1       3.238 -14.824   1.989  0.00  0.00    +0.144 HD
ENDBRANCH  25  29
BRANCH  24  32
ATOM     32  C   UNL     1       2.405 -11.663  -0.369  0.00  0.00    +0.104 C 
ATOM     33  N   UNL     1       2.365 -11.616  -1.504  0.00  0.00    -0.191 NA
ENDBRANCH  24  32
ENDBRANCH  22  23
ENDBRANCH  21  22
ENDBRANCH  20  21
ENDBRANCH  18  20
ENDBRANCH   4  18
TORSDOF 10
