REMARK  Name = ZINC13464817
REMARK  5 active torsions:
REMARK  status: ('A' for Active; 'I' for Inactive)
REMARK    1  A    between atoms: C_1  and  C_2
REMARK    2  A    between atoms: C_2  and  O_3
REMARK    3  A    between atoms: O_3  and  C_4
REMARK    4  A    between atoms: C_4  and  C_6
REMARK    5  A    between atoms: C_9  and  N_12
REMARK                            x       y       z     vdW  Elec       q    Type
REMARK                         _______ _______ _______ _____ _____    ______ ____
ROOT
ATOM      1  N   UNL     1       3.348  -3.880  -5.852  0.00  0.00    -0.226 NA
ATOM      2  C   UNL     1       4.207  -4.869  -5.724  0.00  0.00    +0.160 C 
ATOM      3  N   UNL     1       4.918  -5.482  -6.714  0.00  0.00    -0.313 N 
ATOM      4  C   UNL     1       5.822  -6.562  -6.368  0.00  0.00    +0.065 C 
ATOM      5  C   UNL     1       5.399  -7.839  -7.110  0.00  0.00    +0.031 C 
ATOM      6  C   UNL     1       5.416  -7.579  -8.617  0.00  0.00    +0.002 C 
ATOM      7  C   UNL     1       6.830  -7.194  -9.054  0.00  0.00    +0.000 C 
ATOM      8  C   UNL     1       7.266  -5.930  -8.310  0.00  0.00    +0.002 C 
ATOM      9  C   UNL     1       7.248  -6.192  -6.803  0.00  0.00    +0.031 C 
ATOM     10  C   UNL     1       5.851  -6.872  -4.880  0.00  0.00    +0.009 C 
ATOM     11  C   UNL     1       6.558  -7.784  -4.238  0.00  0.00    +0.022 C 
ATOM     12  S   UNL     1       4.695  -5.686  -4.221  0.00  0.00    -0.057 S 
ATOM     13  H   UNL     1       4.819  -5.201  -7.637  0.00  0.00    +0.149 HD
ENDROOT
BRANCH   1  17
ATOM     14  C   UNL     1       1.452  -2.346  -2.522  0.00  0.00    +0.059 A 
ATOM     15  C   UNL     1       1.992  -1.480  -3.482  0.00  0.00    +0.017 A 
ATOM     16  C   UNL     1       2.618  -1.987  -4.582  0.00  0.00    +0.028 A 
ATOM     17  C   UNL     1       2.722  -3.373  -4.752  0.00  0.00    +0.067 A 
ATOM     18  C   UNL     1       2.183  -4.239  -3.793  0.00  0.00    +0.028 A 
ATOM     19  C   UNL     1       1.561  -3.732  -2.690  0.00  0.00    +0.017 A 
BRANCH  14  20
ATOM     20  C   UNL     1       0.776  -1.799  -1.335  0.00  0.00    +0.339 C 
ATOM     21  O   UNL     1       0.312  -2.550  -0.500  0.00  0.00    -0.245 OA
BRANCH  20  22
ATOM     22  O   UNL     1       0.671  -0.465  -1.174  0.00  0.00    -0.461 OA
BRANCH  22  24
ATOM     23  C   UNL     1      -0.019   1.526   0.010  0.00  0.00    +0.048 C 
ATOM     24  C   UNL     1       0.002  -0.004   0.002  0.00  0.00    +0.229 C 
ENDBRANCH  22  24
ENDBRANCH  20  22
ENDBRANCH  14  20
ENDBRANCH   1  17
TORSDOF 4
