REMARK  Name = ZINC08676894
REMARK  9 active torsions:
REMARK  status: ('A' for Active; 'I' for Inactive)
REMARK    1  A    between atoms: C_1  and  C_2
REMARK    2  A    between atoms: C_5  and  C_32
REMARK    3  A    between atoms: C_10  and  C_12
REMARK    4  A    between atoms: N_14  and  C_15
REMARK    5  A    between atoms: C_16  and  C_29
REMARK    6  A    between atoms: C_21  and  C_25
REMARK    7  A    between atoms: C_25  and  C_26
REMARK    8  A    between atoms: C_25  and  C_27
REMARK    9  A    between atoms: C_25  and  C_28
REMARK                            x       y       z     vdW  Elec       q    Type
REMARK                         _______ _______ _______ _____ _____    ______ ____
ROOT
ATOM      1  C   UNL     1       1.079  -4.961   3.188  0.00  0.00    +0.288 C 
ATOM      2  O   UNL     1       0.522  -6.038   3.102  0.00  0.00    -0.266 OA
ATOM      3  N   UNL     1       2.117  -4.804   4.032  0.00  0.00    -0.272 N 
ATOM      4  H   UNL     1       2.561  -3.945   4.100  0.00  0.00    +0.156 HD
ENDROOT
BRANCH   1  12
ATOM      5  C   UNL     1      -0.019   1.526   0.010  0.00  0.00    +0.028 C 
ATOM      6  C   UNL     1       0.002  -0.004   0.002  0.00  0.00    +0.072 C 
ATOM      7  C   UNL     1      -1.435  -0.538   0.021  0.00  0.00    +0.054 C 
ATOM      8  C   UNL     1      -1.419  -2.070  -0.045  0.00  0.00    +0.178 C 
ATOM      9  N   UNL     1      -0.478  -2.576   0.954  0.00  0.00    -0.224 N 
ATOM     10  C   UNL     1       0.502  -1.831   1.528  0.00  0.00    +0.215 A 
ATOM     11  N   UNL     1       1.149  -2.586   2.370  0.00  0.00    -0.189 NA
ATOM     12  C   UNL     1       0.616  -3.824   2.365  0.00  0.00    +0.238 A 
ATOM     13  N   UNL     1      -0.385  -3.854   1.507  0.00  0.00    -0.143 NA
ATOM     14  N   UNL     1       0.708  -0.496   1.201  0.00  0.00    -0.311 N 
ATOM     15  H   UNL     1       1.280   0.080   1.731  0.00  0.00    +0.149 HD
BRANCH   8  16
ATOM     16  C   UNL     1      -2.820  -2.611   0.245  0.00  0.00    +0.365 C 
ATOM     17  F   UNL     1      -2.803  -4.008   0.183  0.00  0.00    -0.207 F 
ATOM     18  F   UNL     1      -3.221  -2.205   1.522  0.00  0.00    -0.207 F 
ENDBRANCH   8  16
ENDBRANCH   1  12
BRANCH   3  19
ATOM     19  C   UNL     1       2.551  -5.872   4.804  0.00  0.00    +0.090 A 
ATOM     20  C   UNL     1       3.589  -5.893   5.721  0.00  0.00    +0.084 A 
ATOM     21  C   UNL     1       3.844  -7.148   6.406  0.00  0.00    -0.018 A 
ATOM     22  C   UNL     1       3.014  -8.152   6.047  0.00  0.00    -0.004 A 
ATOM     23  S   UNL     1       1.934  -7.433   4.846  0.00  0.00    -0.077 S 
ATOM     24  C   UNL     1       3.023  -9.556   6.569  0.00  0.00    +0.047 C 
ATOM     25  C   UNL     1       4.356  -9.791   7.296  0.00  0.00    -0.000 C 
ATOM     26  C   UNL     1       4.615  -8.620   8.247  0.00  0.00    +0.009 C 
ATOM     27  C   UNL     1       4.938  -7.358   7.443  0.00  0.00    +0.037 C 
BRANCH  25  28
ATOM     28  C   UNL     1       4.280 -11.095   8.093  0.00  0.00    -0.035 C 
ATOM     29  C   UNL     1       4.008 -12.261   7.141  0.00  0.00    +0.011 C 
ATOM     30  C   UNL     1       5.608 -11.328   8.817  0.00  0.00    +0.011 C 
ATOM     31  C   UNL     1       3.150 -11.000   9.120  0.00  0.00    +0.011 C 
ENDBRANCH  25  28
BRANCH  20  32
ATOM     32  C   UNL     1       4.377  -4.727   5.983  0.00  0.00    +0.102 C 
ATOM     33  N   UNL     1       5.003  -3.801   6.190  0.00  0.00    -0.191 NA
ENDBRANCH  20  32
ENDBRANCH   3  19
TORSDOF 5
