REMARK  Name = ZINC37420640
REMARK  3 active torsions:
REMARK  status: ('A' for Active; 'I' for Inactive)
REMARK    1  A    between atoms: C_4  and  N_13
REMARK    2  A    between atoms: C_5  and  S_7
REMARK    3  A    between atoms: S_7  and  C_8
REMARK                            x       y       z     vdW  Elec       q    Type
REMARK                         _______ _______ _______ _____ _____    ______ ____
ROOT
ATOM      1  C   UNL     1       0.033   1.370   0.405  0.00  0.00    +0.004 A 
ATOM      2  C   UNL     1       1.181   2.088   0.126  0.00  0.00    +0.040 A 
ATOM      3  C   UNL     1       2.353   1.427  -0.200  0.00  0.00    +0.145 A 
ATOM      4  C   UNL     1       2.377   0.039  -0.247  0.00  0.00    +0.074 A 
ATOM      5  C   UNL     1       1.218  -0.683   0.035  0.00  0.00    +0.038 A 
ATOM      6  C   UNL     1       0.048  -0.011   0.360  0.00  0.00    +0.017 A 
ATOM      7  F   UNL     1       3.473   2.131  -0.473  0.00  0.00    -0.204 F 
ENDROOT
BRANCH   4   8
ATOM      8  N   UNL     1       3.561  -0.633  -0.578  0.00  0.00    -0.355 N 
ATOM      9  H   UNL     1       4.366  -0.129  -0.774  0.00  0.00    +0.142 HD
ATOM     10  H   UNL     1       3.575  -1.602  -0.610  0.00  0.00    +0.142 HD
ENDBRANCH   4   8
BRANCH   5  11
ATOM     11  S   UNL     1       1.239  -2.444  -0.023  0.00  0.00    -0.059 S 
BRANCH  11  12
ATOM     12  C   UNL     1      -0.457  -2.896   0.140  0.00  0.00    +0.163 A 
ATOM     13  N   UNL     1      -1.545  -2.137   0.154  0.00  0.00    -0.135 NA
ATOM     14  N   UNL     1      -2.698  -2.632   0.281  0.00  0.00    -0.149 NA
ATOM     15  C   UNL     1      -2.897  -3.928   0.407  0.00  0.00    +0.182 A 
ATOM     16  S   UNL     1      -1.206  -4.512   0.326  0.00  0.00    -0.047 S 
ENDBRANCH  11  12
ENDBRANCH   5  11
TORSDOF 3
