REMARK  Name = ZINC39362808
REMARK  10 active torsions:
REMARK  status: ('A' for Active; 'I' for Inactive)
REMARK    1  A    between atoms: C_1  and  C_2
REMARK    2  A    between atoms: C_2  and  O_3
REMARK    3  A    between atoms: O_3  and  C_4
REMARK    4  A    between atoms: C_9  and  N_10
REMARK    5  A    between atoms: C_11  and  C_13
REMARK    6  A    between atoms: C_13  and  S_14
REMARK    7  A    between atoms: S_14  and  C_15
REMARK    8  A    between atoms: C_18  and  C_28
REMARK    9  A    between atoms: N_20  and  C_21
REMARK   10  A    between atoms: C_28  and  C_29
REMARK                            x       y       z     vdW  Elec       q    Type
REMARK                         _______ _______ _______ _____ _____    ______ ____
ROOT
ATOM      1  C   UNL     1       4.914  -0.788  -7.750  0.00  0.00    +0.180 C 
ATOM      2  N   UNL     1       4.802   0.484  -7.566  0.00  0.00    -0.162 NA
ATOM      3  N   UNL     1       5.485   1.208  -8.552  0.00  0.00    -0.246 N 
ATOM      4  C   UNL     1       6.089   0.208  -9.450  0.00  0.00    +0.187 C 
ATOM      5  N   UNL     1       5.683  -1.082  -8.867  0.00  0.00    -0.258 N 
ATOM      6  H   UNL     1       5.547   2.173  -8.628  0.00  0.00    +0.170 HD
ENDROOT
BRANCH   5   7
ATOM      7  C   UNL     1       6.007  -2.355  -9.348  0.00  0.00    +0.038 A 
ATOM      8  C   UNL     1       5.717  -2.697 -10.662  0.00  0.00    +0.026 A 
ATOM      9  C   UNL     1       6.038  -3.955 -11.134  0.00  0.00    +0.040 A 
ATOM     10  C   UNL     1       6.649  -4.874 -10.298  0.00  0.00    +0.124 A 
ATOM     11  C   UNL     1       6.940  -4.535  -8.988  0.00  0.00    +0.040 A 
ATOM     12  C   UNL     1       6.626  -3.277  -8.513  0.00  0.00    +0.026 A 
ATOM     13  F   UNL     1       6.962  -6.104 -10.762  0.00  0.00    -0.205 F 
ENDBRANCH   5   7
BRANCH   1  14
ATOM     14  S   UNL     1       4.186  -2.005  -6.705  0.00  0.00    -0.079 S 
BRANCH  14  15
ATOM     15  C   UNL     1       3.319  -1.035  -5.441  0.00  0.00    +0.173 C 
BRANCH  15  17
ATOM     16  N   UNL     1       1.934  -1.467  -3.438  0.00  0.00    -0.282 N 
ATOM     17  C   UNL     1       2.642  -1.967  -4.469  0.00  0.00    +0.228 C 
ATOM     18  O   UNL     1       2.736  -3.168  -4.615  0.00  0.00    -0.275 OA
ATOM     19  H   UNL     1       1.791  -0.510  -3.366  0.00  0.00    +0.155 HD
BRANCH  16  25
ATOM     20  C   UNL     1       0.292  -1.942  -1.723  0.00  0.00    +0.142 A 
ATOM     21  C   UNL     1      -0.232  -2.801  -0.770  0.00  0.00    +0.047 A 
ATOM     22  C   UNL     1       0.351  -4.036  -0.557  0.00  0.00    +0.004 A 
ATOM     23  C   UNL     1       1.458  -4.419  -1.294  0.00  0.00    +0.002 A 
ATOM     24  C   UNL     1       1.986  -3.568  -2.246  0.00  0.00    +0.027 A 
ATOM     25  C   UNL     1       1.403  -2.329  -2.469  0.00  0.00    +0.076 A 
BRANCH  20  26
ATOM     26  O   UNL     1      -0.281  -0.727  -1.933  0.00  0.00    -0.490 OA
BRANCH  26  28
ATOM     27  C   UNL     1      -1.919   0.998  -1.508  0.00  0.00    +0.048 C 
ATOM     28  C   UNL     1      -1.417  -0.398  -1.131  0.00  0.00    +0.226 C 
ENDBRANCH  26  28
ENDBRANCH  20  26
ENDBRANCH  16  25
ENDBRANCH  15  17
ENDBRANCH  14  15
ENDBRANCH   1  14
BRANCH   4  29
ATOM     29  C   UNL     1       7.613   0.339  -9.450  0.00  0.00    +0.097 C 
BRANCH  29  30
ATOM     30  C   UNL     1       8.000   1.705  -9.956  0.00  0.00    +0.029 A 
ATOM     31  N   UNL     1       8.107   1.935 -11.301  0.00  0.00    -0.311 N 
ATOM     32  C   UNL     1       8.451   3.151 -11.763  0.00  0.00    +0.327 A 
ATOM     33  O   UNL     1       8.540   3.334 -12.961  0.00  0.00    -0.247 OA
ATOM     34  N   UNL     1       8.697   4.169 -10.916  0.00  0.00    -0.275 N 
ATOM     35  C   UNL     1       8.603   3.982  -9.584  0.00  0.00    +0.254 A 
ATOM     36  O   UNL     1       8.826   4.902  -8.818  0.00  0.00    -0.268 OA
ATOM     37  C   UNL     1       8.237   2.709  -9.085  0.00  0.00    +0.091 A 
ATOM     38  H   UNL     1       8.944   5.039 -11.266  0.00  0.00    +0.173 HD
ATOM     39  H   UNL     1       7.933   1.215 -11.927  0.00  0.00    +0.170 HD
ENDBRANCH  29  30
ENDBRANCH   4  29
TORSDOF 9
