REMARK  Name = ZINC37560215
REMARK  4 active torsions:
REMARK  status: ('A' for Active; 'I' for Inactive)
REMARK    1  A    between atoms: C_1  and  C_2
REMARK    2  A    between atoms: C_2  and  C_4
REMARK    3  A    between atoms: C_2  and  N_14
REMARK    4  A    between atoms: N_18  and  C_20
REMARK                            x       y       z     vdW  Elec       q    Type
REMARK                         _______ _______ _______ _____ _____    ______ ____
ROOT
ATOM      1  C   UNL     1      -0.019   1.526   0.010  0.00  0.00    +0.033 C 
ATOM      2  C   UNL     1       0.002  -0.004   0.002  0.00  0.00    +0.099 C 
ENDROOT
BRANCH   2   3
ATOM      3  C   UNL     1       0.731  -0.503   1.223  0.00  0.00    -0.027 A 
ATOM      4  C   UNL     1       0.083  -0.559   2.443  0.00  0.00    +0.006 A 
ATOM      5  C   UNL     1       0.758  -1.015   3.557  0.00  0.00    +0.004 A 
ATOM      6  C   UNL     1       2.083  -1.419   3.462  0.00  0.00    -0.044 A 
ATOM      7  C   UNL     1       2.727  -1.368   2.247  0.00  0.00    -0.044 A 
ATOM      8  C   UNL     1       2.045  -0.911   1.126  0.00  0.00    +0.009 A 
ATOM      9  C   UNL     1       4.157  -1.805   2.067  0.00  0.00    +0.035 C 
ATOM     10  C   UNL     1       4.873  -1.866   3.415  0.00  0.00    +0.005 C 
ATOM     11  C   UNL     1       4.019  -2.696   4.380  0.00  0.00    +0.005 C 
ATOM     12  C   UNL     1       2.762  -1.898   4.719  0.00  0.00    +0.035 C 
ENDBRANCH   2   3
BRANCH   2  13
ATOM     13  N   UNL     1      -1.372  -0.511   0.012  0.00  0.00    -0.321 N 
ATOM     14  C   UNL     1      -2.077  -0.648  -1.189  0.00  0.00    +0.141 A 
ATOM     15  C   UNL     1      -1.590  -0.343  -2.471  0.00  0.00    +0.064 A 
ATOM     16  C   UNL     1      -2.571  -0.611  -3.362  0.00  0.00    +0.110 A 
ATOM     17  N   UNL     1      -3.640  -1.068  -2.676  0.00  0.00    -0.273 N 
ATOM     18  N   UNL     1      -3.307  -1.088  -1.316  0.00  0.00    -0.157 NA
ATOM     19  C   UNL     1      -4.923  -1.476  -3.255  0.00  0.00    +0.172 C 
ATOM     20  H   UNL     1      -1.794  -0.752   0.852  0.00  0.00    +0.148 HD
ENDBRANCH   2  13
TORSDOF 2
