REMARK  Name = ZINC05137831
REMARK  4 active torsions:
REMARK  status: ('A' for Active; 'I' for Inactive)
REMARK    1  A    between atoms: C_1  and  C_2
REMARK    2  A    between atoms: C_5  and  N_9
REMARK    3  A    between atoms: C_6  and  C_8
REMARK    4  A    between atoms: N_12  and  C_13
REMARK                            x       y       z     vdW  Elec       q    Type
REMARK                         _______ _______ _______ _____ _____    ______ ____
ROOT
ATOM      1  N   UNL     1       0.086  -4.173  -0.019  0.00  0.00    -0.269 N 
ATOM      2  C   UNL     1      -0.019  -4.840  -1.186  0.00  0.00    +0.308 C 
ATOM      3  O   UNL     1      -0.019  -4.229  -2.237  0.00  0.00    -0.252 OA
ATOM      4  N   UNL     1      -0.124  -6.184  -1.187  0.00  0.00    -0.268 N 
ATOM      5  H   UNL     1       0.147  -4.663   0.816  0.00  0.00    +0.156 HD
ATOM      6  H   UNL     1      -0.202  -6.665  -0.348  0.00  0.00    +0.156 HD
ENDROOT
BRANCH   4   7
ATOM      7  C   UNL     1      -0.121  -6.889  -2.406  0.00  0.00    +0.045 A 
ATOM      8  C   UNL     1      -0.136  -6.214  -3.582  0.00  0.00    +0.069 A 
ATOM      9  S   UNL     1      -0.124  -7.545  -4.772  0.00  0.00    -0.099 S 
ATOM     10  C   UNL     1      -0.099  -8.895  -3.623  0.00  0.00    -0.005 A 
ATOM     11  C   UNL     1      -0.096  -8.287  -2.406  0.00  0.00    -0.016 A 
ATOM     12  C   UNL     1      -0.074  -9.122  -1.128  0.00  0.00    +0.038 C 
ATOM     13  C   UNL     1      -0.515 -10.547  -1.463  0.00  0.00    +0.005 C 
ATOM     14  C   UNL     1       0.326 -11.098  -2.619  0.00  0.00    +0.005 C 
ATOM     15  C   UNL     1      -0.078 -10.362  -3.909  0.00  0.00    +0.043 C 
ENDBRANCH   4   7
BRANCH   1  20
ATOM     16  C   UNL     1       0.170   1.499   0.007  0.00  0.00    +0.044 C 
ATOM     17  C   UNL     1       0.147  -0.008   0.001  0.00  0.00    -0.050 A 
ATOM     18  C   UNL     1       0.734  -0.702  -1.042  0.00  0.00    +0.005 A 
ATOM     19  C   UNL     1       0.716  -2.082  -1.052  0.00  0.00    +0.024 A 
ATOM     20  C   UNL     1       0.107  -2.774  -0.013  0.00  0.00    +0.038 A 
ATOM     21  C   UNL     1      -0.482  -2.075   1.033  0.00  0.00    -0.029 A 
ATOM     22  C   UNL     1      -0.455  -0.694   1.039  0.00  0.00    +0.008 A 
ATOM     23  C   UNL     1      -1.144  -2.822   2.162  0.00  0.00    +0.045 C 
ENDBRANCH   1  20
TORSDOF 2
