REMARK  Name = ZINC09449917
REMARK  13 active torsions:
REMARK  status: ('A' for Active; 'I' for Inactive)
REMARK    1  A    between atoms: C_1  and  C_2
REMARK    2  A    between atoms: C_2  and  C_3
REMARK    3  A    between atoms: C_2  and  C_4
REMARK    4  A    between atoms: C_4  and  N_5
REMARK    5  A    between atoms: C_6  and  N_31
REMARK    6  A    between atoms: C_7  and  C_14
REMARK    7  A    between atoms: N_10  and  C_13
REMARK    8  A    between atoms: C_14  and  C_16
REMARK    9  A    between atoms: C_16  and  O_17
REMARK   10  A    between atoms: O_17  and  C_18
REMARK   11  A    between atoms: C_18  and  C_20
REMARK   12  A    between atoms: C_20  and  O_21
REMARK   13  A    between atoms: O_21  and  C_22
REMARK                            x       y       z     vdW  Elec       q    Type
REMARK                         _______ _______ _______ _____ _____    ______ ____
ROOT
ATOM      1  C   UNL     1      -5.197  -4.293   0.001  0.00  0.00    +0.209 C 
ATOM      2  O   UNL     1      -4.138  -4.889   0.006  0.00  0.00    -0.288 OA
ENDROOT
BRANCH   1   5
ATOM      3  N   UNL     1      -7.625  -7.066  -0.094  0.00  0.00    -0.281 N 
ATOM      4  C   UNL     1      -6.425  -6.414  -0.108  0.00  0.00    +0.116 A 
ATOM      5  C   UNL     1      -6.411  -5.012   0.004  0.00  0.00    +0.123 A 
ATOM      6  C   UNL     1      -7.701  -4.320   0.117  0.00  0.00    +0.269 A 
ATOM      7  O   UNL     1      -7.750  -3.108   0.211  0.00  0.00    -0.267 OA
ATOM      8  N   UNL     1      -8.832  -5.056   0.115  0.00  0.00    -0.263 N 
ATOM      9  C   UNL     1      -8.782  -6.394   0.011  0.00  0.00    +0.333 A 
ATOM     10  O   UNL     1      -9.824  -7.021   0.013  0.00  0.00    -0.246 OA
ATOM     11  C   UNL     1     -10.130  -4.388   0.226  0.00  0.00    +0.157 C 
BRANCH   4  12
ATOM     12  N   UNL     1      -5.261  -7.109  -0.222  0.00  0.00    -0.344 N 
ATOM     13  H   UNL     1      -4.411  -6.647  -0.153  0.00  0.00    +0.144 HD
ATOM     14  H   UNL     1      -5.282  -8.068  -0.372  0.00  0.00    +0.144 HD
ENDBRANCH   4  12
BRANCH   3  15
ATOM     15  C   UNL     1      -7.649  -8.526  -0.203  0.00  0.00    +0.131 C 
BRANCH  15  17
ATOM     16  C   UNL     1      -6.446  -8.489  -2.393  0.00  0.00    +0.009 C 
ATOM     17  C   UNL     1      -7.726  -8.927  -1.678  0.00  0.00    +0.003 C 
ATOM     18  C   UNL     1      -7.877 -10.445  -1.787  0.00  0.00    +0.009 C 
ENDBRANCH  15  17
ENDBRANCH   3  15
ENDBRANCH   1   5
BRANCH   1  19
ATOM     19  C   UNL     1      -5.213  -2.787  -0.010  0.00  0.00    +0.311 C 
BRANCH  19  20
ATOM     20  O   UNL     1      -3.850  -2.287  -0.011  0.00  0.00    -0.454 OA
BRANCH  20  21
ATOM     21  C   UNL     1      -3.688  -0.955  -0.020  0.00  0.00    +0.346 C 
ATOM     22  O   UNL     1      -4.655  -0.230  -0.026  0.00  0.00    -0.247 OA
BRANCH  21  23
ATOM     23  C   UNL     1      -2.302  -0.364  -0.022  0.00  0.00    +0.349 C 
BRANCH  23  24
ATOM     24  O   UNL     1      -2.393   1.062  -0.032  0.00  0.00    -0.481 OA
BRANCH  24  25
ATOM     25  C   UNL     1      -1.224   1.755  -0.035  0.00  0.00    +0.122 A 
ATOM     26  C   UNL     1      -0.013   1.076  -0.028  0.00  0.00    +0.046 A 
ATOM     27  C   UNL     1       1.172   1.784  -0.037  0.00  0.00    +0.007 A 
ATOM     28  C   UNL     1       1.158   3.169  -0.047  0.00  0.00    -0.044 A 
ATOM     29  C   UNL     1      -0.046   3.848  -0.048  0.00  0.00    -0.041 A 
ATOM     30  C   UNL     1      -1.236   3.141  -0.038  0.00  0.00    +0.049 A 
ATOM     31  C   UNL     1       0.207   5.340  -0.060  0.00  0.00    +0.036 C 
ATOM     32  C   UNL     1       1.676   5.497  -0.507  0.00  0.00    +0.009 C 
ATOM     33  C   UNL     1       2.303   4.160  -0.058  0.00  0.00    +0.036 C 
ENDBRANCH  24  25
ENDBRANCH  23  24
ENDBRANCH  21  23
ENDBRANCH  20  21
ENDBRANCH  19  20
ENDBRANCH   1  19
TORSDOF 10
