REMARK  Name = ZINC12371655
REMARK  5 active torsions:
REMARK  status: ('A' for Active; 'I' for Inactive)
REMARK    1  A    between atoms: C_1  and  O_2
REMARK    2  A    between atoms: O_2  and  C_3
REMARK    3  A    between atoms: C_7  and  C_15
REMARK    4  A    between atoms: C_8  and  O_9
REMARK    5  A    between atoms: O_9  and  C_10
REMARK                            x       y       z     vdW  Elec       q    Type
REMARK                         _______ _______ _______ _____ _____    ______ ____
ROOT
ATOM      1  C   UNL     1       1.711   4.084  -3.114  0.00  0.00    +0.162 A 
ATOM      2  C   UNL     1       2.141   3.032  -3.907  0.00  0.00    +0.049 A 
ATOM      3  C   UNL     1       2.288   1.770  -3.361  0.00  0.00    +0.004 A 
ATOM      4  C   UNL     1       2.008   1.555  -2.024  0.00  0.00    +0.008 A 
ATOM      5  C   UNL     1       1.579   2.601  -1.227  0.00  0.00    +0.006 A 
ATOM      6  C   UNL     1       1.424   3.866  -1.770  0.00  0.00    +0.166 A 
ENDROOT
BRANCH   5   7
ATOM      7  C   UNL     1       1.275   2.363   0.229  0.00  0.00    +0.072 C 
ATOM      8  C   UNL     1       2.558   1.952   0.967  0.00  0.00    +0.109 C 
ATOM      9  C   UNL     1       2.882   0.510   0.701  0.00  0.00    +0.219 C 
ATOM     10  O   UNL     1       4.046   0.196   0.565  0.00  0.00    -0.275 OA
ATOM     11  N   UNL     1       1.946  -0.450   0.605  0.00  0.00    -0.270 N 
ATOM     12  C   UNL     1       0.579  -0.068   0.531  0.00  0.00    +0.138 A 
ATOM     13  C   UNL     1       0.288   1.256   0.361  0.00  0.00    +0.041 A 
ATOM     14  S   UNL     1      -1.480   1.264   0.339  0.00  0.00    -0.055 S 
ATOM     15  C   UNL     1      -1.705  -0.448   0.550  0.00  0.00    +0.158 A 
ATOM     16  N   UNL     1      -0.463  -0.889   0.617  0.00  0.00    -0.210 NA
ATOM     17  N   UNL     1      -2.888  -1.167   0.625  0.00  0.00    -0.337 N 
ATOM     18  H   UNL     1       2.199  -1.386   0.587  0.00  0.00    +0.156 HD
ATOM     19  H   UNL     1      -2.864  -2.129   0.742  0.00  0.00    +0.144 HD
ATOM     20  H   UNL     1      -3.740  -0.707   0.560  0.00  0.00    +0.144 HD
ENDBRANCH   5   7
BRANCH   1  22
ATOM     21  C   UNL     1       1.872   5.473  -5.037  0.00  0.00    +0.277 C 
ATOM     22  O   UNL     1       1.565   5.325  -3.650  0.00  0.00    -0.491 OA
ENDBRANCH   1  22
BRANCH   6  23
ATOM     23  O   UNL     1       0.997   4.895  -0.989  0.00  0.00    -0.485 OA
BRANCH  23  24
ATOM     24  C   UNL     1      -0.416   5.065  -0.856  0.00  0.00    +0.174 C 
ATOM     25  C   UNL     1      -0.931   6.053  -1.923  0.00  0.00    +0.044 C 
ATOM     26  C   UNL     1      -2.035   6.858  -1.193  0.00  0.00    +0.004 C 
ATOM     27  C   UNL     1      -1.450   7.028   0.231  0.00  0.00    +0.004 C 
ATOM     28  C   UNL     1      -0.746   5.685   0.513  0.00  0.00    +0.044 C 
ENDBRANCH  23  24
ENDBRANCH   6  23
TORSDOF 4
