REMARK  Name = ZINC58133322
REMARK  8 active torsions:
REMARK  status: ('A' for Active; 'I' for Inactive)
REMARK    1  A    between atoms: C_1  and  C_2
REMARK    2  A    between atoms: C_2  and  C_4
REMARK    3  A    between atoms: C_2  and  N_16
REMARK    4  A    between atoms: C_8  and  C_10
REMARK    5  A    between atoms: C_17  and  C_19
REMARK    6  A    between atoms: C_20  and  C_21
REMARK    7  A    between atoms: C_25  and  O_27
REMARK    8  A    between atoms: O_27  and  C_28
REMARK                            x       y       z     vdW  Elec       q    Type
REMARK                         _______ _______ _______ _____ _____    ______ ____
ROOT
ATOM      1  N   UNL     1       0.711  -0.489   1.189  0.00  0.00    -0.302 N 
ATOM      2  C   UNL     1       0.051  -0.633   2.355  0.00  0.00    +0.237 C 
ATOM      3  O   UNL     1      -1.133  -0.360   2.423  0.00  0.00    -0.271 OA
ATOM      4  H   UNL     1       1.654  -0.707   1.135  0.00  0.00    +0.150 HD
ENDROOT
BRANCH   1   6
ATOM      5  C   UNL     1      -0.019   1.526   0.010  0.00  0.00    +0.036 C 
ATOM      6  C   UNL     1       0.002  -0.004   0.002  0.00  0.00    +0.134 C 
BRANCH   6   7
ATOM      7  C   UNL     1       0.707  -0.490  -1.238  0.00  0.00    +0.105 A 
ATOM      8  N   UNL     1       2.031  -0.739  -1.341  0.00  0.00    -0.348 N 
ATOM      9  H   UNL     1       2.691  -0.638  -0.637  0.00  0.00    +0.167 HD
ATOM     10  C   UNL     1       2.271  -1.159  -2.619  0.00  0.00    +0.110 A 
ATOM     11  C   UNL     1       1.074  -1.154  -3.262  0.00  0.00    +0.064 A 
ATOM     12  N   UNL     1       0.138  -0.744  -2.382  0.00  0.00    -0.342 N 
ATOM     13  H   UNL     1      -0.809  -0.650  -2.572  0.00  0.00    +0.167 HD
BRANCH  11  14
ATOM     14  C   UNL     1       0.839  -1.537  -4.676  0.00  0.00    -0.000 A 
ATOM     15  C   UNL     1      -0.447  -1.479  -5.212  0.00  0.00    +0.010 A 
ATOM     16  C   UNL     1      -0.660  -1.837  -6.527  0.00  0.00    +0.001 A 
ATOM     17  C   UNL     1       0.399  -2.253  -7.314  0.00  0.00    +0.000 A 
ATOM     18  C   UNL     1       1.677  -2.313  -6.788  0.00  0.00    +0.001 A 
ATOM     19  C   UNL     1       1.903  -1.951  -5.475  0.00  0.00    +0.010 A 
ENDBRANCH  11  14
ENDBRANCH   6   7
ENDBRANCH   1   6
BRANCH   2  20
ATOM     20  C   UNL     1       0.759  -1.118   3.540  0.00  0.00    +0.068 C 
ATOM     21  C   UNL     1       0.098  -1.262   4.709  0.00  0.00    +0.013 C 
BRANCH  21  22
ATOM     22  C   UNL     1       0.809  -1.749   5.900  0.00  0.00    -0.018 A 
ATOM     23  C   UNL     1       0.126  -1.905   7.110  0.00  0.00    +0.057 A 
ATOM     24  C   UNL     1       0.796  -2.364   8.230  0.00  0.00    +0.166 A 
ATOM     25  C   UNL     1       2.151  -2.672   8.153  0.00  0.00    +0.204 A 
ATOM     26  C   UNL     1       2.835  -2.517   6.948  0.00  0.00    +0.166 A 
ATOM     27  C   UNL     1       2.170  -2.064   5.825  0.00  0.00    +0.057 A 
ATOM     28  O   UNL     1       2.822  -3.132   9.243  0.00  0.00    -0.482 OA
ATOM     29  C   UNL     1       2.204  -2.921  10.517  0.00  0.00    +0.270 C 
ATOM     30  C   UNL     1       0.726  -3.321  10.406  0.00  0.00    +0.270 C 
ATOM     31  O   UNL     1       0.115  -2.505   9.401  0.00  0.00    -0.485 OA
BRANCH  26  32
ATOM     32  O   UNL     1       4.159  -2.817   6.877  0.00  0.00    -0.491 OA
ATOM     33  C   UNL     1       4.799  -2.635   5.612  0.00  0.00    +0.277 C 
ENDBRANCH  26  32
ENDBRANCH  21  22
ENDBRANCH   2  20
TORSDOF 6
