REMARK  Name = ZINC65566182
REMARK  9 active torsions:
REMARK  status: ('A' for Active; 'I' for Inactive)
REMARK    1  A    between atoms: C_1  and  C_2
REMARK    2  A    between atoms: C_4  and  O_23
REMARK    3  A    between atoms: C_7  and  N_8
REMARK    4  A    between atoms: C_9  and  C_11
REMARK    5  A    between atoms: C_11  and  C_12
REMARK    6  A    between atoms: C_12  and  C_13
REMARK    7  A    between atoms: C_14  and  C_22
REMARK    8  A    between atoms: C_16  and  C_21
REMARK    9  A    between atoms: O_23  and  C_24
REMARK                            x       y       z     vdW  Elec       q    Type
REMARK                         _______ _______ _______ _____ _____    ______ ____
ROOT
ATOM      1  N   UNL     1      -0.013  -0.056   2.406  0.00  0.00    -0.285 N 
ATOM      2  C   UNL     1       0.114  -0.835   3.499  0.00  0.00    +0.218 C 
ATOM      3  O   UNL     1       0.320  -2.024   3.375  0.00  0.00    -0.275 OA
ATOM      4  H   UNL     1      -0.124   0.902   2.505  0.00  0.00    +0.155 HD
ENDROOT
BRANCH   1  11
ATOM      5  C   UNL     1      -1.344   1.304   0.293  0.00  0.00    +0.046 C 
ATOM      6  C   UNL     1      -0.622   0.000   0.070  0.00  0.00    -0.026 A 
ATOM      7  C   UNL     1      -0.590  -0.564  -1.190  0.00  0.00    +0.051 A 
ATOM      8  C   UNL     1       0.074  -1.764  -1.396  0.00  0.00    +0.132 A 
ATOM      9  C   UNL     1       0.707  -2.399  -0.336  0.00  0.00    +0.048 A 
ATOM     10  C   UNL     1       0.675  -1.835   0.924  0.00  0.00    +0.027 A 
ATOM     11  C   UNL     1       0.015  -0.631   1.129  0.00  0.00    +0.037 A 
BRANCH   8  12
ATOM     12  O   UNL     1       0.105  -2.320  -2.637  0.00  0.00    -0.424 OA
BRANCH  12  13
ATOM     13  C   UNL     1       0.772  -1.659  -3.613  0.00  0.00    +0.323 A 
ATOM     14  N   UNL     1       1.282  -0.466  -3.353  0.00  0.00    -0.203 NA
ATOM     15  C   UNL     1       1.939   0.207  -4.283  0.00  0.00    +0.118 A 
ATOM     16  C   UNL     1       2.089  -0.352  -5.542  0.00  0.00    +0.040 A 
ATOM     17  C   UNL     1       1.542  -1.603  -5.780  0.00  0.00    +0.118 A 
ATOM     18  N   UNL     1       0.901  -2.224  -4.803  0.00  0.00    -0.203 NA
ENDBRANCH  12  13
ENDBRANCH   8  12
ENDBRANCH   1  11
BRANCH   2  19
ATOM     19  C   UNL     1      -0.002  -0.229   4.874  0.00  0.00    +0.101 C 
BRANCH  19  20
ATOM     20  C   UNL     1       0.180  -1.322   5.930  0.00  0.00    +0.051 C 
BRANCH  20  21
ATOM     21  C   UNL     1       0.065  -0.716   7.304  0.00  0.00    +0.038 A 
ATOM     22  C   UNL     1      -1.121  -0.732   7.975  0.00  0.00    +0.049 A 
ATOM     23  N   UNL     1      -1.205  -0.190   9.192  0.00  0.00    -0.239 NA
ATOM     24  C   UNL     1      -0.169   0.361   9.767  0.00  0.00    +0.107 A 
ATOM     25  N   UNL     1       1.031   0.410   9.157  0.00  0.00    -0.311 N 
ATOM     26  H   UNL     1       1.786   0.825   9.603  0.00  0.00    +0.170 HD
ATOM     27  C   UNL     1       1.184  -0.125   7.927  0.00  0.00    +0.255 A 
ATOM     28  O   UNL     1       2.266  -0.094   7.364  0.00  0.00    -0.268 OA
ATOM     29  C   UNL     1      -0.321   0.958  11.143  0.00  0.00    +0.086 C 
ATOM     30  C   UNL     1      -2.336  -1.360   7.343  0.00  0.00    +0.066 C 
ENDBRANCH  20  21
ENDBRANCH  19  20
ENDBRANCH   2  19
TORSDOF 6
