REMARK  Name = ZINC29541545
REMARK  7 active torsions:
REMARK  status: ('A' for Active; 'I' for Inactive)
REMARK    1  A    between atoms: C_1  and  C_2
REMARK    2  A    between atoms: C_2  and  C_3
REMARK    3  A    between atoms: N_8  and  C_10
REMARK    4  A    between atoms: C_10  and  N_11
REMARK    5  A    between atoms: C_14  and  C_18
REMARK    6  A    between atoms: C_14  and  C_25
REMARK    7  A    between atoms: C_18  and  C_19
REMARK                            x       y       z     vdW  Elec       q    Type
REMARK                         _______ _______ _______ _____ _____    ______ ____
ROOT
ATOM      1  N   UNL     1       1.290  -1.228  -1.679  0.00  0.00    -0.241 N 
ATOM      2  C   UNL     1       0.300  -0.325  -1.534  0.00  0.00    +0.250 C 
ATOM      3  O   UNL     1      -0.374   0.170  -2.412  0.00  0.00    -0.272 OA
ATOM      4  C   UNL     1       0.202  -0.060  -0.045  0.00  0.00    +0.142 C 
ATOM      5  N   UNL     1       1.247  -0.924   0.531  0.00  0.00    -0.281 N 
ATOM      6  C   UNL     1       1.826  -1.565  -0.500  0.00  0.00    +0.308 C 
ATOM      7  O   UNL     1       2.735  -2.362  -0.375  0.00  0.00    -0.252 OA
ATOM      8  H   UNL     1       1.410  -0.940   1.618  0.00  0.00    +0.152 HD
ENDROOT
BRANCH   4   9
ATOM      9  C   UNL     1       0.488   1.389   0.255  0.00  0.00    -0.015 A 
ATOM     10  C   UNL     1      -0.554   2.290   0.370  0.00  0.00    +0.006 A 
ATOM     11  C   UNL     1      -0.292   3.618   0.650  0.00  0.00    +0.000 A 
ATOM     12  C   UNL     1       1.013   4.048   0.805  0.00  0.00    +0.000 A 
ATOM     13  C   UNL     1       2.055   3.148   0.685  0.00  0.00    +0.000 A 
ATOM     14  C   UNL     1       1.793   1.819   0.410  0.00  0.00    +0.006 A 
ENDBRANCH   4   9
BRANCH   1  15
ATOM     15  C   UNL     1       1.727  -1.771  -2.967  0.00  0.00    +0.043 C 
BRANCH  15  20
ATOM     16  C   UNL     1       3.452   0.151  -5.708  0.00  0.00    -0.028 C 
ATOM     17  C   UNL     1       4.897   0.000  -5.225  0.00  0.00    -0.000 C 
ATOM     18  C   UNL     1       4.926   0.076  -3.696  0.00  0.00    -0.018 C 
ATOM     19  C   UNL     1       4.022  -1.014  -3.118  0.00  0.00    -0.077 C 
ATOM     20  N   UNL     1       2.651  -0.826  -3.609  0.00  0.00    +0.391 N 
ATOM     21  C   UNL     1       2.590  -0.942  -5.072  0.00  0.00    -0.073 C 
ATOM     22  H   UNL     1       2.335   0.193  -3.341  0.00  0.00    -0.079 HD
BRANCH  16  24
ATOM     23  C   UNL     1       4.169   1.179  -7.869  0.00  0.00    +0.004 C 
ATOM     24  C   UNL     1       3.406   0.017  -7.231  0.00  0.00    -0.002 C 
ENDBRANCH  16  24
ENDBRANCH  15  20
ENDBRANCH   1  15
BRANCH   4  25
ATOM     25  C   UNL     1      -1.177  -0.456   0.486  0.00  0.00    +0.075 C 
BRANCH  25  26
ATOM     26  C   UNL     1      -1.399  -1.929   0.259  0.00  0.00    -0.045 A 
ATOM     27  C   UNL     1      -2.064  -2.361  -0.873  0.00  0.00    +0.004 A 
ATOM     28  C   UNL     1      -2.263  -3.712  -1.084  0.00  0.00    +0.000 A 
ATOM     29  C   UNL     1      -1.807  -4.631  -0.157  0.00  0.00    +0.000 A 
ATOM     30  C   UNL     1      -1.147  -4.199   0.978  0.00  0.00    +0.000 A 
ATOM     31  C   UNL     1      -0.943  -2.847   1.186  0.00  0.00    +0.004 A 
ENDBRANCH  25  26
ENDBRANCH   4  25
TORSDOF 6
