REMARK  Name = ZINC20457638
REMARK  7 active torsions:
REMARK  status: ('A' for Active; 'I' for Inactive)
REMARK    1  A    between atoms: C_3  and  O_29
REMARK    2  A    between atoms: C_6  and  C_7
REMARK    3  A    between atoms: C_10  and  C_21
REMARK    4  A    between atoms: C_16  and  N_20
REMARK    5  A    between atoms: C_17  and  C_18
REMARK    6  A    between atoms: O_29  and  C_30
REMARK    7  A    between atoms: C_30  and  C_31
REMARK                            x       y       z     vdW  Elec       q    Type
REMARK                         _______ _______ _______ _____ _____    ______ ____
ROOT
ATOM      1  C   UNL     1      -1.424  -0.787   0.004  0.00  0.00    +0.102 C 
ATOM      2  C   UNL     1      -1.354  -1.756   1.156  0.00  0.00    +0.054 A 
ATOM      3  C   UNL     1      -1.423  -1.503   2.529  0.00  0.00    +0.100 A 
ATOM      4  N   UNL     1      -1.317  -2.657   3.160  0.00  0.00    -0.171 NA
ATOM      5  N   UNL     1      -1.177  -3.673   2.202  0.00  0.00    -0.246 N 
ATOM      6  H   UNL     1      -1.079  -4.621   2.385  0.00  0.00    +0.192 HD
ATOM      7  C   UNL     1      -1.203  -3.101   0.980  0.00  0.00    +0.223 A 
ATOM      8  O   UNL     1      -1.106  -3.673  -0.246  0.00  0.00    -0.423 OA
ATOM      9  C   UNL     1      -1.436  -2.920  -1.315  0.00  0.00    +0.200 C 
ATOM     10  C   UNL     1      -1.602  -1.578  -1.268  0.00  0.00    +0.098 C 
ENDROOT
BRANCH   3  11
ATOM     11  C   UNL     1      -1.589  -0.172   3.165  0.00  0.00    +0.004 A 
ATOM     12  C   UNL     1      -2.491   0.748   2.636  0.00  0.00    +0.011 A 
ATOM     13  C   UNL     1      -2.642   1.984   3.230  0.00  0.00    +0.022 A 
ATOM     14  C   UNL     1      -1.898   2.311   4.351  0.00  0.00    +0.059 A 
ATOM     15  C   UNL     1      -1.000   1.400   4.881  0.00  0.00    +0.060 A 
ATOM     16  C   UNL     1      -0.847   0.158   4.296  0.00  0.00    +0.031 A 
ATOM     17 CL   UNL     1      -0.070   1.817   6.287  0.00  0.00    -0.082 Cl
ATOM     18 CL   UNL     1      -2.092   3.868   5.094  0.00  0.00    -0.082 Cl
ENDBRANCH   3  11
BRANCH   1  24
ATOM     19  C   UNL     1      -0.194   1.392  -0.034  0.00  0.00    +0.008 A 
ATOM     20  C   UNL     1       0.974   2.126  -0.099  0.00  0.00    +0.046 A 
ATOM     21  C   UNL     1       2.196   1.475  -0.199  0.00  0.00    +0.121 A 
ATOM     22  C   UNL     1       2.240   0.089  -0.233  0.00  0.00    +0.046 A 
ATOM     23  C   UNL     1       1.068  -0.640  -0.168  0.00  0.00    +0.008 A 
ATOM     24  C   UNL     1      -0.148   0.011  -0.068  0.00  0.00    -0.034 A 
BRANCH  21  25
ATOM     25  O   UNL     1       3.347   2.195  -0.264  0.00  0.00    -0.483 OA
BRANCH  25  26
ATOM     26  C   UNL     1       4.567   1.458  -0.366  0.00  0.00    +0.324 C 
BRANCH  26  27
ATOM     27  C   UNL     1       5.729   2.417  -0.426  0.00  0.00    +0.248 C 
ATOM     28  O   UNL     1       5.531   3.613  -0.386  0.00  0.00    -0.272 OA
ATOM     29  N   UNL     1       6.987   1.945  -0.524  0.00  0.00    -0.327 N 
ATOM     30  H   UNL     1       7.146   0.988  -0.556  0.00  0.00    +0.145 HD
ATOM     31  H   UNL     1       7.735   2.562  -0.563  0.00  0.00    +0.145 HD
ENDBRANCH  26  27
ENDBRANCH  25  26
ENDBRANCH  21  25
ENDBRANCH   1  24
BRANCH   9  32
ATOM     32  N   UNL     1      -1.615  -3.551  -2.520  0.00  0.00    -0.328 N 
ATOM     33  H   UNL     1      -1.503  -4.513  -2.585  0.00  0.00    +0.145 HD
ATOM     34  H   UNL     1      -1.852  -3.036  -3.307  0.00  0.00    +0.145 HD
ENDBRANCH   9  32
BRANCH  10  35
ATOM     35  C   UNL     1      -1.958  -0.884  -2.469  0.00  0.00    +0.101 C 
ATOM     36  N   UNL     1      -2.241  -0.333  -3.421  0.00  0.00    -0.191 NA
ENDBRANCH  10  35
TORSDOF 7
