REMARK  Name = ZINC11868278
REMARK  9 active torsions:
REMARK  status: ('A' for Active; 'I' for Inactive)
REMARK    1  A    between atoms: C_1  and  N_68
REMARK    2  A    between atoms: C_2  and  N_68
REMARK    3  A    between atoms: C_3  and  C_4
REMARK    4  A    between atoms: C_3  and  N_68
REMARK    5  A    between atoms: C_4  and  N_5
REMARK    6  A    between atoms: C_9  and  C_12
REMARK    7  A    between atoms: C_9  and  C_26
REMARK    8  A    between atoms: C_12  and  C_13
REMARK    9  A    between atoms: C_18  and  N_70
REMARK                            x       y       z     vdW  Elec       q    Type
REMARK                         _______ _______ _______ _____ _____    ______ ____
ROOT
ATOM      1  N   UNL     1      -0.698   1.558   1.213  0.00  0.00    -0.243 N 
ATOM      2  C   UNL     1      -0.396   2.717   1.812  0.00  0.00    +0.223 C 
ATOM      3  O   UNL     1       0.456   3.496   1.443  0.00  0.00    -0.275 OA
ATOM      4  C   UNL     1      -1.289   2.902   3.019  0.00  0.00    +0.117 C 
ATOM      5  C   UNL     1      -2.163   1.631   3.020  0.00  0.00    +0.090 C 
ATOM      6  C   UNL     1      -1.675   0.864   1.810  0.00  0.00    +0.233 C 
ATOM      7  O   UNL     1      -2.101  -0.209   1.440  0.00  0.00    -0.274 OA
ENDROOT
BRANCH   5   8
ATOM      8  C   UNL     1      -1.941   0.832   4.279  0.00  0.00    -0.013 A 
ATOM      9  C   UNL     1      -3.014   0.498   5.084  0.00  0.00    +0.006 A 
ATOM     10  C   UNL     1      -2.811  -0.238   6.236  0.00  0.00    +0.000 A 
ATOM     11  C   UNL     1      -1.534  -0.632   6.590  0.00  0.00    +0.001 A 
ATOM     12  C   UNL     1      -0.459  -0.294   5.788  0.00  0.00    +0.020 A 
ATOM     13  C   UNL     1      -0.662   0.439   4.632  0.00  0.00    +0.045 A 
ATOM     14 CL   UNL     1       0.686   0.863   3.625  0.00  0.00    -0.083 Cl
ENDBRANCH   5   8
BRANCH   1  15
ATOM     15  C   UNL     1      -0.013   1.086   0.008  0.00  0.00    +0.098 C 
BRANCH  15  16
ATOM     16  C   UNL     1      -0.753   1.593  -1.232  0.00  0.00    -0.060 C 
BRANCH  16  19
ATOM     17  C   UNL     1      -0.150  -0.343  -2.555  0.00  0.00    -0.097 C 
ATOM     18  C   UNL     1      -0.600   1.774  -3.641  0.00  0.00    -0.097 C 
ATOM     19  N   UNL     1      -0.037   1.126  -2.438  0.00  0.00    +0.377 N 
ATOM     20  H   UNL     1       0.955   1.379  -2.356  0.00  0.00    -0.083 HD
ENDBRANCH  16  19
ENDBRANCH  15  16
ENDBRANCH   1  15
BRANCH   5  21
ATOM     21  C   UNL     1      -3.641   1.993   2.868  0.00  0.00    +0.117 C 
BRANCH  21  22
ATOM     22  C   UNL     1      -4.459   0.732   2.764  0.00  0.00    +0.217 C 
ATOM     23  O   UNL     1      -3.913  -0.350   2.807  0.00  0.00    -0.276 OA
ATOM     24  N   UNL     1      -5.798   0.806   2.623  0.00  0.00    -0.302 N 
ATOM     25  C   UNL     1      -6.474   2.110   2.575  0.00  0.00    +0.106 C 
ATOM     26  C   UNL     1      -7.582   2.134   3.626  0.00  0.00    +0.004 C 
ATOM     27  C   UNL     1      -8.510   0.936   3.414  0.00  0.00    -0.065 C 
ATOM     28  C   UNL     1      -7.716  -0.362   3.578  0.00  0.00    +0.004 C 
ATOM     29  C   UNL     1      -6.609  -0.415   2.520  0.00  0.00    +0.106 C 
BRANCH  27  35
ATOM     30  C   UNL     1     -10.459  -0.208   4.287  0.00  0.00    -0.050 C 
ATOM     31  C   UNL     1     -11.535  -0.157   5.375  0.00  0.00    +0.141 C 
ATOM     32  O   UNL     1     -12.269   1.065   5.255  0.00  0.00    -0.383 OA
ATOM     33  C   UNL     1     -11.457   2.237   5.366  0.00  0.00    +0.141 C 
ATOM     34  C   UNL     1     -10.380   2.210   4.279  0.00  0.00    -0.050 C 
ATOM     35  N   UNL     1      -9.583   0.974   4.431  0.00  0.00    +0.385 N 
ATOM     36  H   UNL     1      -9.158   0.964   5.366  0.00  0.00    -0.081 HD
ENDBRANCH  27  35
ENDBRANCH  21  22
ENDBRANCH   5  21
TORSDOF 7
