REMARK  Name = ZINC49805373
REMARK  6 active torsions:
REMARK  status: ('A' for Active; 'I' for Inactive)
REMARK    1  A    between atoms: C_3  and  O_14
REMARK    2  A    between atoms: C_6  and  C_7
REMARK    3  A    between atoms: C_7  and  C_9
REMARK    4  A    between atoms: C_7  and  C_12
REMARK    5  A    between atoms: C_9  and  C_10
REMARK    6  A    between atoms: C_10  and  O_11
REMARK                            x       y       z     vdW  Elec       q    Type
REMARK                         _______ _______ _______ _____ _____    ______ ____
ROOT
ATOM      1  C   UNL     1      -0.017   1.378   0.010  0.00  0.00    +0.008 A 
ATOM      2  C   UNL     1       1.169   2.087   0.002  0.00  0.00    +0.046 A 
ATOM      3  C   UNL     1       2.380   1.409  -0.013  0.00  0.00    +0.117 A 
ATOM      4  C   UNL     1       2.396   0.022  -0.021  0.00  0.00    +0.046 A 
ATOM      5  C   UNL     1       1.207  -0.681  -0.013  0.00  0.00    +0.008 A 
ATOM      6  C   UNL     1       0.002  -0.004   0.002  0.00  0.00    -0.030 A 
ENDROOT
BRANCH   3   7
ATOM      7  O   UNL     1       3.548   2.104  -0.021  0.00  0.00    -0.507 OA
ATOM      8  H   UNL     1       3.895   2.300   0.860  0.00  0.00    +0.292 HD
ENDBRANCH   3   7
BRANCH   6   9
ATOM      9  C   UNL     1      -1.293  -0.774   0.011  0.00  0.00    +0.123 C 
BRANCH   9  10
ATOM     10  C   UNL     1      -1.373  -1.615  -1.195  0.00  0.00    +0.071 C 
ATOM     11  N   UNL     1      -1.434  -2.264  -2.126  0.00  0.00    -0.196 NA
ENDBRANCH   9  10
BRANCH   9  12
ATOM     12  C   UNL     1      -1.351  -1.661   1.256  0.00  0.00    +0.051 C 
BRANCH  12  13
ATOM     13  C   UNL     1      -2.716  -2.348   1.330  0.00  0.00    +0.157 C 
BRANCH  13  14
ATOM     14  O   UNL     1      -2.770  -3.176   2.493  0.00  0.00    -0.395 OA
ATOM     15  H   UNL     1      -3.609  -3.644   2.604  0.00  0.00    +0.209 HD
ENDBRANCH  13  14
ENDBRANCH  12  13
ENDBRANCH   9  12
ENDBRANCH   6   9
TORSDOF 6
