REMARK  Name = ZINC06623935
REMARK  3 active torsions:
REMARK  status: ('A' for Active; 'I' for Inactive)
REMARK    1  A    between atoms: C_1  and  C_2
REMARK    2  A    between atoms: C_2  and  C_3
REMARK    3  A    between atoms: N_25  and  C_28
REMARK                            x       y       z     vdW  Elec       q    Type
REMARK                         _______ _______ _______ _____ _____    ______ ____
ROOT
ATOM      1  C   UNL     1       0.000   1.080   2.488  0.00  0.00    +0.217 C 
ATOM      2  O   UNL     1       0.994   0.397   2.363  0.00  0.00    -0.276 OA
ATOM      3  N   UNL     1      -0.453   1.393   3.718  0.00  0.00    -0.278 N 
ATOM      4  C   UNL     1      -1.655   2.226   3.891  0.00  0.00    +0.114 C 
ATOM      5  C   UNL     1      -1.272   3.522   4.602  0.00  0.00    +0.056 C 
ATOM      6  C   UNL     1      -0.372   3.203   5.768  0.00  0.00    -0.015 A 
ATOM      7  C   UNL     1      -0.059   4.027   6.917  0.00  0.00    +0.003 A 
ATOM      8  C   UNL     1      -0.462   5.310   7.301  0.00  0.00    +0.010 A 
ATOM      9  C   UNL     1       0.045   5.792   8.482  0.00  0.00    +0.001 A 
ATOM     10  C   UNL     1       0.915   5.053   9.266  0.00  0.00    +0.002 A 
ATOM     11  C   UNL     1       1.332   3.782   8.910  0.00  0.00    +0.026 A 
ATOM     12  C   UNL     1       0.834   3.266   7.715  0.00  0.00    +0.047 A 
ATOM     13  N   UNL     1       1.033   2.075   7.078  0.00  0.00    -0.355 N 
ATOM     14  H   UNL     1       1.601   1.359   7.401  0.00  0.00    +0.166 HD
ATOM     15  C   UNL     1       0.309   2.043   5.916  0.00  0.00    +0.058 A 
ATOM     16  C   UNL     1       0.241   0.917   4.918  0.00  0.00    +0.181 C 
ATOM     17  C   UNL     1      -0.430  -0.285   5.496  0.00  0.00    +0.012 A 
ATOM     18  C   UNL     1      -1.701  -0.475   5.996  0.00  0.00    +0.008 A 
ATOM     19  C   UNL     1      -2.011  -1.746   6.466  0.00  0.00    +0.000 A 
ATOM     20  C   UNL     1      -1.087  -2.770   6.433  0.00  0.00    +0.002 A 
ATOM     21  C   UNL     1       0.193  -2.588   5.933  0.00  0.00    +0.024 A 
ATOM     22  C   UNL     1       0.517  -1.317   5.457  0.00  0.00    +0.042 A 
ATOM     23  N   UNL     1       1.704  -0.860   4.911  0.00  0.00    -0.272 N 
ATOM     24  C   UNL     1       1.633   0.444   4.565  0.00  0.00    +0.254 C 
ATOM     25  O   UNL     1       2.517   1.108   4.066  0.00  0.00    -0.272 OA
ATOM     26  C   UNL     1       2.896  -1.692   4.729  0.00  0.00    +0.138 C 
ENDROOT
BRANCH   1  28
ATOM     27  C   UNL     1      -0.013   1.086   0.008  0.00  0.00    +0.013 C 
ATOM     28  C   UNL     1      -0.729   1.579   1.267  0.00  0.00    +0.092 C 
ENDBRANCH   1  28
TORSDOF 1
