REMARK  Name = ZINC09135801
REMARK  9 active torsions:
REMARK  status: ('A' for Active; 'I' for Inactive)
REMARK    1  A    between atoms: C_1  and  C_2
REMARK    2  A    between atoms: N_4  and  C_5
REMARK    3  A    between atoms: C_9  and  N_11
REMARK    4  A    between atoms: C_12  and  C_14
REMARK    5  A    between atoms: N_16  and  C_17
REMARK    6  A    between atoms: C_17  and  C_18
REMARK    7  A    between atoms: C_18  and  C_20
REMARK    8  A    between atoms: C_18  and  N_67
REMARK    9  A    between atoms: N_29  and  C_30
REMARK                            x       y       z     vdW  Elec       q    Type
REMARK                         _______ _______ _______ _____ _____    ______ ____
ROOT
ATOM      1  C   UNL     1       3.864  -3.185  -0.814  0.00  0.00    +0.299 C 
ATOM      2  O   UNL     1       2.847  -3.030  -0.170  0.00  0.00    -0.265 OA
ATOM      3  N   UNL     1       4.801  -2.217  -0.838  0.00  0.00    -0.309 N 
ATOM      4  H   UNL     1       5.614  -2.341  -1.352  0.00  0.00    +0.149 HD
ENDROOT
BRANCH   1   6
ATOM      5  N   UNL     1       3.140  -5.417  -1.557  0.00  0.00    -0.278 N 
ATOM      6  C   UNL     1       4.077  -4.449  -1.581  0.00  0.00    +0.303 C 
ATOM      7  O   UNL     1       5.094  -4.604  -2.224  0.00  0.00    -0.265 OA
ATOM      8  H   UNL     1       2.359  -5.323  -0.990  0.00  0.00    +0.155 HD
BRANCH   5  13
ATOM      9  C   UNL     1       4.019  -7.598  -4.387  0.00  0.00    +0.035 A 
ATOM     10  C   UNL     1       3.602  -8.832  -3.903  0.00  0.00    +0.023 A 
ATOM     11  C   UNL     1       3.036  -8.928  -2.646  0.00  0.00    +0.004 A 
ATOM     12  C   UNL     1       2.882  -7.798  -1.867  0.00  0.00    +0.023 A 
ATOM     13  C   UNL     1       3.297  -6.560  -2.345  0.00  0.00    +0.036 A 
ATOM     14  C   UNL     1       3.861  -6.460  -3.610  0.00  0.00    +0.046 A 
BRANCH   9  18
ATOM     15  C   UNL     1       4.893  -8.313  -7.978  0.00  0.00    +0.109 C 
ATOM     16  C   UNL     1       4.193  -8.334  -6.643  0.00  0.00    +0.214 C 
ATOM     17  O   UNL     1       3.271  -9.099  -6.454  0.00  0.00    -0.276 OA
ATOM     18  N   UNL     1       4.593  -7.503  -5.660  0.00  0.00    -0.286 N 
ATOM     19  H   UNL     1       5.277  -6.839  -5.835  0.00  0.00    +0.155 HD
ENDBRANCH   9  18
ENDBRANCH   5  13
ENDBRANCH   1   6
BRANCH   3  20
ATOM     20  C   UNL     1       4.592  -0.977  -0.086  0.00  0.00    +0.094 C 
BRANCH  20  21
ATOM     21  C   UNL     1       5.742  -0.008  -0.370  0.00  0.00    -0.020 C 
BRANCH  21  22
ATOM     22  C   UNL     1       7.028  -0.583   0.167  0.00  0.00    -0.059 A 
ATOM     23  C   UNL     1       7.324  -0.477   1.514  0.00  0.00    +0.004 A 
ATOM     24  C   UNL     1       8.499  -1.006   2.003  0.00  0.00    +0.023 A 
ATOM     25  C   UNL     1       9.400  -1.640   1.145  0.00  0.00    +0.033 A 
ATOM     26  C   UNL     1       9.099  -1.742  -0.201  0.00  0.00    -0.026 A 
ATOM     27  C   UNL     1       7.913  -1.212  -0.685  0.00  0.00    +0.007 A 
ATOM     28  C   UNL     1      10.024  -2.423  -1.178  0.00  0.00    +0.038 C 
ATOM     29  C   UNL     1      11.408  -2.589  -0.546  0.00  0.00    +0.024 C 
ATOM     30  C   UNL     1      11.217  -3.160   0.865  0.00  0.00    +0.105 C 
ATOM     31  N   UNL     1      10.577  -2.141   1.699  0.00  0.00    -0.333 N 
ATOM     32  C   UNL     1      10.347  -2.644   3.060  0.00  0.00    +0.129 C 
ENDBRANCH  21  22
BRANCH  21  37
ATOM     33  C   UNL     1       6.577   2.241   0.045  0.00  0.00    -0.078 C 
ATOM     34  C   UNL     1       5.917   3.616   0.317  0.00  0.00    -0.020 C 
ATOM     35  C   UNL     1       4.493   3.435  -0.257  0.00  0.00    -0.020 C 
ATOM     36  C   UNL     1       4.258   1.913  -0.277  0.00  0.00    -0.078 C 
ATOM     37  N   UNL     1       5.466   1.306   0.284  0.00  0.00    +0.385 N 
ATOM     38  H   UNL     1       5.345   1.162   1.293  0.00  0.00    -0.081 HD
ENDBRANCH  21  37
ENDBRANCH  20  21
ENDBRANCH   3  20
TORSDOF 7
