REMARK  Name = ZINC15354562
REMARK  14 active torsions:
REMARK  status: ('A' for Active; 'I' for Inactive)
REMARK    1  A    between atoms: C_1  and  C_2
REMARK    2  A    between atoms: C_2  and  O_3
REMARK    3  A    between atoms: O_3  and  C_4
REMARK    4  A    between atoms: C_6  and  C_18
REMARK    5  A    between atoms: C_9  and  O_10
REMARK    6  A    between atoms: O_10  and  C_11
REMARK    7  A    between atoms: C_11  and  C_12
REMARK    8  A    between atoms: N_14  and  C_15
REMARK    9  A    between atoms: N_14  and  C_16
REMARK   10  A    between atoms: N_19  and  N_20
REMARK   11  A    between atoms: C_21  and  C_23
REMARK   12  A    between atoms: C_23  and  N_24
REMARK   13  A    between atoms: C_25  and  C_30
REMARK   14  A    between atoms: C_27  and  C_29
REMARK                            x       y       z     vdW  Elec       q    Type
REMARK                         _______ _______ _______ _____ _____    ______ ____
ROOT
ATOM      1  C   UNL     1      -1.569  -2.545   1.211  0.00  0.00    +0.164 A 
ATOM      2  C   UNL     1      -1.732  -3.918   1.207  0.00  0.00    +0.059 A 
ATOM      3  C   UNL     1      -1.826  -4.604  -0.006  0.00  0.00    -0.001 A 
ATOM      4  C   UNL     1      -1.754  -3.900  -1.211  0.00  0.00    +0.028 A 
ATOM      5  C   UNL     1      -1.597  -2.529  -1.200  0.00  0.00    +0.064 A 
ATOM      6  C   UNL     1      -1.498  -1.849   0.006  0.00  0.00    +0.177 A 
ATOM      7 BR   UNL     1      -1.508  -1.576  -2.830  0.00  0.00    -0.046 Br
ENDROOT
BRANCH   3   8
ATOM      8  C   UNL     1      -2.001  -6.068  -0.015  0.00  0.00    +0.138 C 
ATOM      9  N   UNL     1      -2.088  -6.704  -1.143  0.00  0.00    -0.188 NA
BRANCH   9  10
ATOM     10  N   UNL     1      -2.254  -8.095  -1.152  0.00  0.00    -0.205 N 
ATOM     11  C   UNL     1      -2.345  -8.755  -2.324  0.00  0.00    +0.254 C 
ATOM     12  O   UNL     1      -2.282  -8.145  -3.370  0.00  0.00    -0.272 OA
ATOM     13  H   UNL     1      -2.304  -8.583  -0.316  0.00  0.00    +0.177 HD
BRANCH  11  14
ATOM     14  C   UNL     1      -2.523 -10.252  -2.333  0.00  0.00    +0.241 C 
BRANCH  14  15
ATOM     15  N   UNL     1      -2.594 -10.726  -3.718  0.00  0.00    -0.259 N 
ATOM     16  C   UNL     1      -3.716 -10.859  -4.455  0.00  0.00    +0.037 A 
ATOM     17  C   UNL     1      -3.356 -11.320  -5.675  0.00  0.00    +0.047 A 
ATOM     18  C   UNL     1      -1.966 -11.484  -5.680  0.00  0.00    +0.060 A 
ATOM     19  N   UNL     1      -1.509 -11.128  -4.507  0.00  0.00    -0.176 NA
ATOM     20  C   UNL     1      -1.140 -11.984  -6.837  0.00  0.00    +0.067 C 
ATOM     21  C   UNL     1      -5.119 -10.546  -4.002  0.00  0.00    +0.065 C 
ENDBRANCH  14  15
ENDBRANCH  11  14
ENDBRANCH   9  10
ENDBRANCH   3   8
BRANCH   1  22
ATOM     22  O   UNL     1      -1.477  -1.874   2.390  0.00  0.00    -0.489 OA
BRANCH  22  24
ATOM     23  C   UNL     1      -1.435  -1.731   4.802  0.00  0.00    +0.048 C 
ATOM     24  C   UNL     1      -1.556  -2.652   3.587  0.00  0.00    +0.226 C 
ENDBRANCH  22  24
ENDBRANCH   1  22
BRANCH   6  25
ATOM     25  O   UNL     1      -1.339  -0.499   0.012  0.00  0.00    -0.478 OA
BRANCH  25  26
ATOM     26  C   UNL     1       0.002  -0.004   0.002  0.00  0.00    +0.325 C 
BRANCH  26  27
ATOM     27  C   UNL     1      -0.018   1.503   0.010  0.00  0.00    +0.253 C 
ATOM     28  O   UNL     1      -1.077   2.095   0.018  0.00  0.00    -0.272 OA
ATOM     29  N   UNL     1       1.139   2.192   0.003  0.00  0.00    -0.305 N 
ATOM     30  C   UNL     1       1.120   3.657   0.011  0.00  0.00    +0.131 C 
ATOM     31  C   UNL     1       2.418   1.477  -0.013  0.00  0.00    +0.131 C 
ENDBRANCH  26  27
ENDBRANCH  25  26
ENDBRANCH   6  25
TORSDOF 9
