REMARK  Name = ZINC15277505
REMARK  6 active torsions:
REMARK  status: ('A' for Active; 'I' for Inactive)
REMARK    1  A    between atoms: C_1  and  O_2
REMARK    2  A    between atoms: O_2  and  C_3
REMARK    3  A    between atoms: C_5  and  C_13
REMARK    4  A    between atoms: C_7  and  N_10
REMARK    5  A    between atoms: C_8  and  O_9
REMARK    6  A    between atoms: C_18  and  C_23
REMARK                            x       y       z     vdW  Elec       q    Type
REMARK                         _______ _______ _______ _____ _____    ______ ____
ROOT
ATOM      1  C   UNL     1      -3.856  -4.312   0.099  0.00  0.00    +0.136 C 
ATOM      2  C   UNL     1      -2.726  -3.329  -0.095  0.00  0.00    +0.036 C 
ATOM      3  C   UNL     1      -2.272  -2.872  -1.274  0.00  0.00    +0.017 C 
ATOM      4  C   UNL     1      -1.105  -1.899  -1.324  0.00  0.00    +0.060 C 
ATOM      5  C   UNL     1      -1.129  -0.994  -0.093  0.00  0.00    +0.039 C 
ATOM      6  C   UNL     1      -1.021  -1.889   1.148  0.00  0.00    +0.088 C 
ATOM      7  C   UNL     1      -2.138  -2.889   1.115  0.00  0.00    +0.163 C 
ATOM      8  O   UNL     1      -2.554  -3.337   2.165  0.00  0.00    -0.292 OA
ATOM      9  N   UNL     1      -2.777  -3.214  -2.486  0.00  0.00    -0.316 N 
ATOM     10  C   UNL     1      -3.064  -4.514  -2.887  0.00  0.00    +0.052 A 
ATOM     11  C   UNL     1      -2.428  -5.112  -3.961  0.00  0.00    +0.025 A 
ATOM     12  C   UNL     1      -2.835  -6.368  -4.377  0.00  0.00    +0.002 A 
ATOM     13  C   UNL     1      -3.867  -7.018  -3.724  0.00  0.00    +0.002 A 
ATOM     14  C   UNL     1      -4.490  -6.429  -2.638  0.00  0.00    +0.025 A 
ATOM     15  C   UNL     1      -4.073  -5.179  -2.208  0.00  0.00    +0.049 A 
ATOM     16  N   UNL     1      -4.639  -4.566  -1.092  0.00  0.00    -0.331 N 
ATOM     17  H   UNL     1      -2.988  -2.435  -3.234  0.00  0.00    +0.152 HD
ATOM     18  H   UNL     1      -5.699  -4.275  -1.126  0.00  0.00    +0.147 HD
ENDROOT
BRANCH   1  21
ATOM     19  C   UNL     1      -3.079  -7.304   2.270  0.00  0.00    +0.164 A 
ATOM     20  C   UNL     1      -3.607  -6.101   1.830  0.00  0.00    +0.055 A 
ATOM     21  C   UNL     1      -3.277  -5.618   0.578  0.00  0.00    -0.017 A 
ATOM     22  C   UNL     1      -2.411  -6.327  -0.234  0.00  0.00    +0.042 A 
ATOM     23  C   UNL     1      -1.877  -7.526   0.201  0.00  0.00    +0.171 A 
ATOM     24  C   UNL     1      -2.208  -8.018   1.453  0.00  0.00    +0.189 A 
BRANCH  23  25
ATOM     25  N   UNL     1      -0.951  -8.283  -0.671  0.00  0.00    +0.060 N 
ATOM     26  O   UNL     1      -0.660  -7.851  -1.771  0.00  0.00    -0.126 OA
ATOM     27  O   UNL     1      -0.480  -9.339  -0.287  0.00  0.00    -0.126 OA
ENDBRANCH  23  25
BRANCH  19  29
ATOM     28  C   UNL     1      -4.307  -6.996   4.284  0.00  0.00    +0.277 C 
ATOM     29  O   UNL     1      -3.407  -7.783   3.500  0.00  0.00    -0.491 OA
ENDBRANCH  19  29
BRANCH  24  30
ATOM     30  O   UNL     1      -1.684  -9.197   1.883  0.00  0.00    -0.502 OA
ATOM     31  H   UNL     1      -0.996  -9.761   1.236  0.00  0.00    +0.292 HD
ENDBRANCH  24  30
ENDBRANCH   1  21
BRANCH   5  32
ATOM     32  C   UNL     1       0.036  -0.040  -0.137  0.00  0.00    -0.006 A 
ATOM     33  C   UNL     1       0.030   1.315  -0.144  0.00  0.00    +0.011 A 
ATOM     34  C   UNL     1       1.234   1.991  -0.188  0.00  0.00    +0.008 A 
ATOM     35  C   UNL     1       2.387   1.278  -0.223  0.00  0.00    +0.045 A 
ATOM     36  S   UNL     1       1.783  -0.401  -0.194  0.00  0.00    -0.101 S 
ENDBRANCH   5  32
TORSDOF 5
