REMARK  Name = ZINC00517397
REMARK  8 active torsions:
REMARK  status: ('A' for Active; 'I' for Inactive)
REMARK    1  A    between atoms: C_1  and  C_2
REMARK    2  A    between atoms: C_2  and  C_3
REMARK    3  A    between atoms: C_7  and  C_12
REMARK    4  A    between atoms: C_8  and  C_11
REMARK    5  A    between atoms: C_15  and  O_18
REMARK    6  A    between atoms: O_18  and  C_19
REMARK    7  A    between atoms: C_23  and  O_24
REMARK    8  A    between atoms: O_24  and  C_25
REMARK                            x       y       z     vdW  Elec       q    Type
REMARK                         _______ _______ _______ _____ _____    ______ ____
ROOT
ATOM      1  C   UNL     1       0.767  -0.252  -1.327  0.00  0.00    -0.005 C 
ATOM      2  C   UNL     1       2.092  -0.561  -1.271  0.00  0.00    +0.020 C 
ATOM      3  C   UNL     1       2.700  -1.254  -2.330  0.00  0.00    +0.045 C 
ATOM      4  C   UNL     1       4.078  -1.576  -2.274  0.00  0.00    +0.064 C 
ATOM      5  C   UNL     1       4.932  -1.405  -1.162  0.00  0.00    +0.023 C 
ATOM      6  C   UNL     1       6.187  -1.843  -1.527  0.00  0.00    +0.028 C 
ATOM      7  N   UNL     1       6.135  -2.275  -2.814  0.00  0.00    -0.270 N 
ATOM      8  N   UNL     1       4.825  -2.117  -3.285  0.00  0.00    -0.266 N 
ATOM      9  C   UNL     1       7.410  -1.843  -0.647  0.00  0.00    +0.062 C 
ATOM     10  C   UNL     1       1.923  -1.628  -3.456  0.00  0.00    +0.191 C 
ATOM     11  O   UNL     1       2.437  -2.234  -4.390  0.00  0.00    -0.287 OA
ATOM     12  C   UNL     1       0.564  -1.300  -3.490  0.00  0.00    +0.097 C 
ATOM     13  C   UNL     1      -0.006  -0.623  -2.430  0.00  0.00    +0.127 C 
ATOM     14  H   UNL     1       6.879  -2.634  -3.321  0.00  0.00    +0.170 HD
ATOM     15  H   UNL     1       4.505  -2.349  -4.170  0.00  0.00    +0.170 HD
ENDROOT
BRANCH   5  16
ATOM     16  C   UNL     1       4.549  -0.852   0.160  0.00  0.00    -0.014 A 
ATOM     17  C   UNL     1       3.726  -1.587   1.012  0.00  0.00    +0.012 A 
ATOM     18  C   UNL     1       3.371  -1.071   2.240  0.00  0.00    +0.046 A 
ATOM     19  C   UNL     1       3.832   0.179   2.629  0.00  0.00    +0.120 A 
ATOM     20  C   UNL     1       4.651   0.914   1.783  0.00  0.00    +0.046 A 
ATOM     21  C   UNL     1       5.015   0.400   0.555  0.00  0.00    +0.012 A 
BRANCH  19  22
ATOM     22  O   UNL     1       3.480   0.686   3.840  0.00  0.00    -0.495 OA
ATOM     23  C   UNL     1       3.990   1.978   4.176  0.00  0.00    +0.277 C 
ENDBRANCH  19  22
ENDBRANCH   5  16
BRANCH   1  25
ATOM     24  C   UNL     1       0.110   1.990  -0.495  0.00  0.00    +0.009 C 
ATOM     25  C   UNL     1       0.126   0.492  -0.184  0.00  0.00    +0.035 C 
ENDBRANCH   1  25
BRANCH  13  26
ATOM     26  O   UNL     1      -1.326  -0.310  -2.463  0.00  0.00    -0.495 OA
ATOM     27  C   UNL     1      -2.061  -0.717  -3.619  0.00  0.00    +0.277 C 
ENDBRANCH  13  26
TORSDOF 4
