REMARK  Name = ZINC08763677
REMARK  6 active torsions:
REMARK  status: ('A' for Active; 'I' for Inactive)
REMARK    1  A    between atoms: C_3  and  C_10
REMARK    2  A    between atoms: C_5  and  N_7
REMARK    3  A    between atoms: C_12  and  C_24
REMARK    4  A    between atoms: C_14  and  C_19
REMARK    5  A    between atoms: C_14  and  O_23
REMARK    6  A    between atoms: C_24  and  C_26
REMARK                            x       y       z     vdW  Elec       q    Type
REMARK                         _______ _______ _______ _____ _____    ______ ____
ROOT
ATOM      1  C   UNL     1      -3.063   6.321   0.677  0.00  0.00    +0.118 C 
ATOM      2  C   UNL     1      -1.692   5.831   0.200  0.00  0.00    +0.144 C 
ATOM      3  C   UNL     1      -1.481   6.301  -1.243  0.00  0.00    +0.241 C 
ATOM      4  N   UNL     1      -2.596   5.833  -2.069  0.00  0.00    -0.291 N 
ATOM      5  C   UNL     1      -3.817   5.641  -1.548  0.00  0.00    +0.133 C 
ATOM      6  S   UNL     1      -5.075   5.106  -2.579  0.00  0.00    -0.019 S 
ATOM      7  N   UNL     1      -4.092   5.852  -0.253  0.00  0.00    -0.319 N 
ATOM      8  H   UNL     1      -2.448   5.657  -3.011  0.00  0.00    +0.151 HD
ATOM      9  H   UNL     1      -4.990   5.690   0.075  0.00  0.00    +0.148 HD
ENDROOT
BRANCH   1  12
ATOM     10  C   UNL     1      -3.214   5.996   4.436  0.00  0.00    +0.003 A 
ATOM     11  C   UNL     1      -2.959   6.496   3.172  0.00  0.00    +0.005 A 
ATOM     12  C   UNL     1      -3.341   5.777   2.055  0.00  0.00    -0.024 A 
ATOM     13  C   UNL     1      -3.984   4.562   2.201  0.00  0.00    +0.038 A 
ATOM     14  C   UNL     1      -4.235   4.060   3.464  0.00  0.00    +0.127 A 
ATOM     15  C   UNL     1      -3.852   4.779   4.582  0.00  0.00    +0.033 A 
BRANCH  14  16
ATOM     16  N   UNL     1      -4.917   2.756   3.621  0.00  0.00    +0.056 N 
ATOM     17  O   UNL     1      -5.141   2.316   4.734  0.00  0.00    -0.126 OA
ATOM     18  O   UNL     1      -5.255   2.123   2.637  0.00  0.00    -0.126 OA
ENDBRANCH  14  16
ENDBRANCH   1  12
BRANCH   3  19
ATOM     19  C   UNL     1      -1.425   7.830  -1.280  0.00  0.00    +0.436 C 
ATOM     20  F   UNL     1      -0.364   8.277  -0.485  0.00  0.00    -0.166 F 
ATOM     21  F   UNL     1      -1.232   8.258  -2.598  0.00  0.00    -0.166 F 
ATOM     22  F   UNL     1      -2.627   8.352  -0.791  0.00  0.00    -0.166 F 
ENDBRANCH   3  19
BRANCH   3  23
ATOM     23  O   UNL     1      -0.256   5.765  -1.746  0.00  0.00    -0.364 OA
ATOM     24  H   UNL     1      -0.058   6.022  -2.657  0.00  0.00    +0.212 HD
ENDBRANCH   3  23
BRANCH   2  25
ATOM     25  C   UNL     1      -1.646   4.326   0.254  0.00  0.00    +0.179 C 
ATOM     26  O   UNL     1      -2.639   3.678  -0.011  0.00  0.00    -0.291 OA
BRANCH  25  27
ATOM     27  C   UNL     1      -0.449   3.668   0.612  0.00  0.00    +0.055 A 
ATOM     28  C   UNL     1      -0.194   2.304   0.716  0.00  0.00    +0.019 A 
ATOM     29  C   UNL     1       1.070   1.934   1.092  0.00  0.00    +0.008 A 
ATOM     30  C   UNL     1       2.001   2.896   1.331  0.00  0.00    +0.046 A 
ATOM     31  S   UNL     1       1.134   4.369   1.044  0.00  0.00    -0.094 S 
ENDBRANCH  25  27
ENDBRANCH   2  25
TORSDOF 6
