REMARK  Name = ZINC50397300
REMARK  4 active torsions:
REMARK  status: ('A' for Active; 'I' for Inactive)
REMARK    1  A    between atoms: C_3  and  S_9
REMARK    2  A    between atoms: C_6  and  N_7
REMARK    3  A    between atoms: S_9  and  N_12
REMARK    4  A    between atoms: N_12  and  C_13
REMARK                            x       y       z     vdW  Elec       q    Type
REMARK                         _______ _______ _______ _____ _____    ______ ____
ROOT
ATOM      1  S   UNL     1       3.889   2.323  -0.023  0.00  0.00    +0.062 S 
ATOM      2  O   UNL     1       4.688   1.769  -1.059  0.00  0.00    -0.153 OA
ATOM      3  O   UNL     1       3.538   3.700   0.015  0.00  0.00    -0.153 OA
ENDROOT
BRANCH   1   6
ATOM      4  C   UNL     1      -0.017   1.385   0.010  0.00  0.00    +0.025 A 
ATOM      5  C   UNL     1       1.170   2.091   0.002  0.00  0.00    +0.033 A 
ATOM      6  C   UNL     1       2.377   1.418  -0.013  0.00  0.00    +0.140 A 
ATOM      7  C   UNL     1       2.401   0.033  -0.021  0.00  0.00    +0.151 A 
ATOM      8  C   UNL     1       1.216  -0.679  -0.014  0.00  0.00    +0.063 A 
ATOM      9  C   UNL     1       0.002  -0.004   0.002  0.00  0.00    +0.027 A 
ATOM     10  F   UNL     1       3.582  -0.622  -0.036  0.00  0.00    -0.203 F 
BRANCH   9  11
ATOM     11  N   UNL     1      -1.197  -0.720   0.010  0.00  0.00    -0.358 N 
ATOM     12  H   UNL     1      -2.044  -0.247   0.021  0.00  0.00    +0.142 HD
ATOM     13  H   UNL     1      -1.183  -1.690   0.005  0.00  0.00    +0.142 HD
ENDBRANCH   9  11
ENDBRANCH   1   6
BRANCH   1  14
ATOM     14  N   UNL     1       4.666   1.994   1.402  0.00  0.00    -0.178 NA
ATOM     15  H   UNL     1       4.810   2.700   2.051  0.00  0.00    +0.149 HD
BRANCH  14  16
ATOM     16  C   UNL     1       5.137   0.635   1.682  0.00  0.00    +0.162 C 
ATOM     17  C   UNL     1       6.451   0.703   2.465  0.00  0.00    +0.031 C 
ATOM     18  C   UNL     1       6.780  -0.702   2.983  0.00  0.00    +0.021 C 
ATOM     19  C   UNL     1       5.741  -1.092   4.035  0.00  0.00    +0.104 C 
ATOM     20  N   UNL     1       4.393  -0.881   3.524  0.00  0.00    -0.314 N 
ATOM     21  C   UNL     1       4.102  -0.096   2.488  0.00  0.00    +0.232 C 
ATOM     22  O   UNL     1       2.936   0.035   2.179  0.00  0.00    -0.274 OA
ATOM     23  H   UNL     1       3.662  -1.342   3.966  0.00  0.00    +0.149 HD
ENDBRANCH  14  16
ENDBRANCH   1  14
TORSDOF 4
