REMARK  Name = ZINC20833756
REMARK  7 active torsions:
REMARK  status: ('A' for Active; 'I' for Inactive)
REMARK    1  A    between atoms: C_6  and  C_7
REMARK    2  A    between atoms: N_8  and  N_9
REMARK    3  A    between atoms: C_12  and  S_15
REMARK    4  A    between atoms: S_15  and  C_16
REMARK    5  A    between atoms: C_16  and  C_17
REMARK    6  A    between atoms: N_19  and  N_20
REMARK    7  A    between atoms: C_21  and  C_23
REMARK                            x       y       z     vdW  Elec       q    Type
REMARK                         _______ _______ _______ _____ _____    ______ ____
ROOT
ATOM      1  N   UNL     1      -1.109  -0.835   0.008  0.00  0.00    -0.205 N 
ATOM      2  C   UNL     1       0.002  -0.004   0.002  0.00  0.00    +0.232 A 
ATOM      3  N   UNL     1      -0.017   1.363   0.009  0.00  0.00    -0.186 NA
ATOM      4  C   UNL     1       1.277   1.803  -0.000  0.00  0.00    +0.211 A 
ATOM      5  N   UNL     1       2.062   0.752  -0.014  0.00  0.00    -0.144 NA
ATOM      6  N   UNL     1       1.254  -0.392  -0.012  0.00  0.00    -0.245 N 
ATOM      7  H   UNL     1      -2.120  -0.401   0.019  0.00  0.00    +0.177 HD
ATOM      8  H   UNL     1       1.498  -1.465  -0.020  0.00  0.00    +0.192 HD
ENDROOT
BRANCH   1  10
ATOM      9  C   UNL     1      -1.984  -3.003   0.004  0.00  0.00    +0.138 C 
ATOM     10  N   UNL     1      -0.944  -2.226  -0.001  0.00  0.00    -0.188 NA
BRANCH   9  16
ATOM     11  C   UNL     1      -0.528  -5.022  -0.026  0.00  0.00    +0.010 A 
ATOM     12  C   UNL     1      -0.372  -6.392  -0.030  0.00  0.00    +0.016 A 
ATOM     13  C   UNL     1      -1.483  -7.218  -0.025  0.00  0.00    +0.018 A 
ATOM     14  C   UNL     1      -2.757  -6.675  -0.009  0.00  0.00    +0.016 A 
ATOM     15  C   UNL     1      -2.927  -5.307   0.000  0.00  0.00    +0.010 A 
ATOM     16  C   UNL     1      -1.810  -4.467  -0.005  0.00  0.00    -0.005 A 
ATOM     17 BR   UNL     1      -1.260  -9.096  -0.037  0.00  0.00    -0.050 Br
ENDBRANCH   9  16
ENDBRANCH   1  10
BRANCH   4  18
ATOM     18  S   UNL     1       1.798   3.486   0.003  0.00  0.00    -0.075 S 
BRANCH  18  19
ATOM     19  C   UNL     1       3.609   3.384  -0.015  0.00  0.00    +0.174 C 
BRANCH  19  20
ATOM     20  C   UNL     1       4.190   4.775  -0.014  0.00  0.00    +0.239 C 
ATOM     21  O   UNL     1       3.455   5.739  -0.003  0.00  0.00    -0.273 OA
ATOM     22  N   UNL     1       5.527   4.946  -0.025  0.00  0.00    -0.233 N 
ATOM     23  H   UNL     1       6.194   4.072  -0.036  0.00  0.00    +0.173 HD
BRANCH  22  24
ATOM     24  N   UNL     1       6.067   6.239  -0.025  0.00  0.00    -0.227 N 
ATOM     25  C   UNL     1       7.404   6.411  -0.036  0.00  0.00    +0.333 C 
ATOM     26  O   UNL     1       8.139   5.446  -0.047  0.00  0.00    -0.264 OA
ATOM     27  H   UNL     1       5.401   7.114  -0.014  0.00  0.00    +0.173 HD
BRANCH  25  28
ATOM     28  C   UNL     1       7.985   7.801  -0.035  0.00  0.00    +0.471 C 
ATOM     29  F   UNL     1       9.382   7.723  -0.048  0.00  0.00    -0.162 F 
ATOM     30  F   UNL     1       7.546   8.491  -1.170  0.00  0.00    -0.162 F 
ATOM     31  F   UNL     1       7.567   8.480   1.114  0.00  0.00    -0.162 F 
ENDBRANCH  25  28
ENDBRANCH  22  24
ENDBRANCH  19  20
ENDBRANCH  18  19
ENDBRANCH   4  18
TORSDOF 7
