REMARK  Name = ZINC04180963
REMARK  10 active torsions:
REMARK  status: ('A' for Active; 'I' for Inactive)
REMARK    1  A    between atoms: C_1  and  O_2
REMARK    2  A    between atoms: O_2  and  C_3
REMARK    3  A    between atoms: C_5  and  C_12
REMARK    4  A    between atoms: C_7  and  O_10
REMARK    5  A    between atoms: C_8  and  O_9
REMARK    6  A    between atoms: O_10  and  C_11
REMARK    7  A    between atoms: N_13  and  N_14
REMARK    8  A    between atoms: C_15  and  S_17
REMARK    9  A    between atoms: S_17  and  C_18
REMARK   10  A    between atoms: N_23  and  C_26
REMARK                            x       y       z     vdW  Elec       q    Type
REMARK                         _______ _______ _______ _____ _____    ______ ____
ROOT
ATOM      1  N   UNL     1      -7.170  -0.519  -0.342  0.00  0.00    -0.217 N 
ATOM      2  C   UNL     1      -8.482  -0.924  -0.251  0.00  0.00    +0.146 C 
ATOM      3  N   UNL     1      -8.778  -2.194  -0.302  0.00  0.00    -0.380 N 
ATOM      4  H   UNL     1      -6.950   0.425  -0.304  0.00  0.00    +0.176 HD
ATOM      5  H   UNL     1      -9.703  -2.480  -0.238  0.00  0.00    +0.158 HD
ATOM      6  H   UNL     1      -8.073  -2.852  -0.403  0.00  0.00    +0.158 HD
ENDROOT
BRANCH   1   8
ATOM      7  C   UNL     1      -4.914  -1.087  -0.574  0.00  0.00    +0.138 C 
ATOM      8  N   UNL     1      -6.152  -1.470  -0.488  0.00  0.00    -0.188 NA
BRANCH   7  11
ATOM      9  C   UNL     1      -1.507  -2.620  -0.965  0.00  0.00    +0.166 A 
ATOM     10  C   UNL     1      -2.510  -1.678  -0.820  0.00  0.00    +0.059 A 
ATOM     11  C   UNL     1      -3.842  -2.088  -0.728  0.00  0.00    +0.002 A 
ATOM     12  C   UNL     1      -4.157  -3.448  -0.782  0.00  0.00    +0.059 A 
ATOM     13  C   UNL     1      -3.150  -4.385  -0.926  0.00  0.00    +0.166 A 
ATOM     14  C   UNL     1      -1.824  -3.973  -1.023  0.00  0.00    +0.201 A 
BRANCH   9  16
ATOM     15  C   UNL     1       0.044  -0.817  -0.987  0.00  0.00    +0.277 C 
ATOM     16  O   UNL     1      -0.210  -2.221  -1.055  0.00  0.00    -0.491 OA
ENDBRANCH   9  16
BRANCH  14  17
ATOM     17  O   UNL     1      -0.836  -4.896  -1.171  0.00  0.00    -0.501 OA
ATOM     18  H   UNL     1      -0.471  -5.219  -0.335  0.00  0.00    +0.292 HD
ENDBRANCH  14  17
BRANCH  13  19
ATOM     19  O   UNL     1      -3.455  -5.709  -0.979  0.00  0.00    -0.491 OA
ATOM     20  C   UNL     1      -4.837  -6.060  -0.878  0.00  0.00    +0.277 C 
ENDBRANCH  13  19
ENDBRANCH   7  11
ENDBRANCH   1   8
BRANCH   2  21
ATOM     21  S   UNL     1      -9.763   0.272  -0.067  0.00  0.00    -0.078 S 
BRANCH  21  22
ATOM     22  C   UNL     1     -11.281  -0.719   0.006  0.00  0.00    +0.149 C 
ATOM     23  C   UNL     1     -12.521   0.194   0.098  0.00  0.00    +0.120 C 
ATOM     24  C   UNL     1     -13.144  -0.185   1.424  0.00  0.00    +0.228 C 
ATOM     25  O   UNL     1     -14.152   0.299   1.890  0.00  0.00    -0.275 OA
ATOM     26  N   UNL     1     -12.405  -1.142   2.000  0.00  0.00    -0.209 N 
ATOM     27  C   UNL     1     -11.332  -1.521   1.288  0.00  0.00    +0.240 C 
ATOM     28  O   UNL     1     -10.531  -2.369   1.618  0.00  0.00    -0.274 OA
BRANCH  26  29
ATOM     29  C   UNL     1     -12.727  -1.704   3.243  0.00  0.00    +0.044 A 
ATOM     30  C   UNL     1     -13.866  -2.487   3.378  0.00  0.00    +0.025 A 
ATOM     31  C   UNL     1     -14.181  -3.040   4.604  0.00  0.00    +0.017 A 
ATOM     32  C   UNL     1     -13.363  -2.813   5.697  0.00  0.00    +0.018 A 
ATOM     33  C   UNL     1     -12.228  -2.033   5.565  0.00  0.00    +0.017 A 
ATOM     34  C   UNL     1     -11.906  -1.483   4.340  0.00  0.00    +0.025 A 
ATOM     35 BR   UNL     1     -13.798  -3.570   7.375  0.00  0.00    -0.050 Br
ENDBRANCH  26  29
ENDBRANCH  21  22
ENDBRANCH   2  21
TORSDOF 8
