REMARK  Name = ZINC62587478
REMARK  15 active torsions:
REMARK  status: ('A' for Active; 'I' for Inactive)
REMARK    1  A    between atoms: C_1  and  C_2
REMARK    2  A    between atoms: C_2  and  C_3
REMARK    3  A    between atoms: C_3  and  C_4
REMARK    4  A    between atoms: C_4  and  N_5
REMARK    5  A    between atoms: N_5  and  C_6
REMARK    6  A    between atoms: C_7  and  N_19
REMARK    7  A    between atoms: N_8  and  C_15
REMARK    8  A    between atoms: C_15  and  C_16
REMARK    9  A    between atoms: C_16  and  C_17
REMARK   10  A    between atoms: C_16  and  C_18
REMARK   11  A    between atoms: C_20  and  C_22
REMARK   12  A    between atoms: C_22  and  N_23
REMARK   13  A    between atoms: N_23  and  C_24
REMARK   14  A    between atoms: C_24  and  C_31
REMARK   15  A    between atoms: C_33  and  C_36
REMARK                            x       y       z     vdW  Elec       q    Type
REMARK                         _______ _______ _______ _____ _____    ______ ____
ROOT
ATOM      1  N   UNL     1       1.498  -2.207  -2.609  0.00  0.00    -0.266 N 
ATOM      2  C   UNL     1       0.715  -2.755  -3.562  0.00  0.00    +0.203 C 
ATOM      3  O   UNL     1       1.164  -3.608  -4.299  0.00  0.00    -0.277 OA
ENDROOT
BRANCH   1   4
ATOM      4  C   UNL     1       2.867  -2.540  -2.544  0.00  0.00    +0.140 A 
ATOM      5  C   UNL     1       3.366  -3.250  -1.471  0.00  0.00    +0.127 A 
ATOM      6  N   UNL     1       4.706  -3.559  -1.435  0.00  0.00    -0.280 N 
ATOM      7  C   UNL     1       5.521  -3.175  -2.434  0.00  0.00    +0.331 A 
ATOM      8  O   UNL     1       6.702  -3.458  -2.384  0.00  0.00    -0.246 OA
ATOM      9  N   UNL     1       5.052  -2.483  -3.488  0.00  0.00    -0.273 N 
ATOM     10  H   UNL     1       5.660  -2.217  -4.196  0.00  0.00    +0.173 HD
ATOM     11  C   UNL     1       3.747  -2.159  -3.575  0.00  0.00    +0.277 A 
ATOM     12  O   UNL     1       3.331  -1.536  -4.537  0.00  0.00    -0.266 OA
BRANCH   5  13
ATOM     13  N   UNL     1       2.535  -3.642  -0.449  0.00  0.00    -0.343 N 
ATOM     14  H   UNL     1       1.607  -3.360  -0.444  0.00  0.00    +0.144 HD
ATOM     15  H   UNL     1       2.876  -4.201   0.266  0.00  0.00    +0.144 HD
ENDBRANCH   5  13
BRANCH   6  16
ATOM     16  C   UNL     1       5.250  -4.312  -0.302  0.00  0.00    +0.131 C 
BRANCH  16  17
ATOM     17  C   UNL     1       5.171  -5.811  -0.601  0.00  0.00    +0.003 C 
ATOM     18  C   UNL     1       6.084  -6.143  -1.783  0.00  0.00    +0.009 C 
ATOM     19  C   UNL     1       5.622  -6.600   0.630  0.00  0.00    +0.009 C 
ENDBRANCH  16  17
ENDBRANCH   6  16
ENDBRANCH   1   4
BRANCH   1  20
ATOM     20  C   UNL     1       0.926  -1.266  -1.643  0.00  0.00    +0.114 C 
BRANCH  20  21
ATOM     21  C   UNL     1       1.120   0.165  -2.148  0.00  0.00    +0.019 C 
BRANCH  21  23
ATOM     22  C   UNL     1       0.718   2.578  -1.643  0.00  0.00    +0.004 C 
ATOM     23  C   UNL     1       0.523   1.147  -1.138  0.00  0.00    -0.002 C 
ENDBRANCH  21  23
ENDBRANCH  20  21
ENDBRANCH   1  20
BRANCH   2  24
ATOM     24  C   UNL     1      -0.717  -2.308  -3.710  0.00  0.00    +0.017 C 
BRANCH  24  25
ATOM     25  N   UNL     1      -1.350  -3.050  -4.809  0.00  0.00    +0.393 N 
ATOM     26  H   UNL     1      -0.907  -2.801  -5.681  0.00  0.00    -0.084 HD
ATOM     27  H   UNL     1      -1.246  -4.040  -4.649  0.00  0.00    -0.084 HD
BRANCH  25  28
ATOM     28  C   UNL     1      -2.778  -2.710  -4.870  0.00  0.00    -0.003 C 
ATOM     29  C   UNL     1      -2.929  -1.178  -4.808  0.00  0.00    -0.005 C 
ATOM     30  C   UNL     1      -2.645  -0.494  -6.160  0.00  0.00    -0.001 C 
ATOM     31  C   UNL     1      -1.455  -1.086  -6.865  0.00  0.00    -0.000 C 
ATOM     32  C   UNL     1      -1.954  -2.170  -7.843  0.00  0.00    -0.000 C 
ATOM     33  C   UNL     1      -2.242  -3.430  -7.175  0.00  0.00    -0.001 C 
ATOM     34  C   UNL     1      -3.364  -3.296  -6.126  0.00  0.00    -0.005 C 
BRANCH  28  35
ATOM     35  C   UNL     1      -3.474  -3.315  -3.678  0.00  0.00    +0.161 A 
ATOM     36  N   UNL     1      -3.197  -3.046  -2.397  0.00  0.00    -0.198 NA
ATOM     37  C   UNL     1      -3.981  -3.736  -1.616  0.00  0.00    +0.224 A 
ATOM     38  O   UNL     1      -4.791  -4.476  -2.383  0.00  0.00    -0.338 OA
ATOM     39  N   UNL     1      -4.445  -4.180  -3.727  0.00  0.00    -0.063 NA
ATOM     40  C   UNL     1      -3.975  -3.706  -0.109  0.00  0.00    +0.112 C 
ENDBRANCH  28  35
ENDBRANCH  25  28
ENDBRANCH  24  25
ENDBRANCH   2  24
TORSDOF 11
