REMARK  Name = ZINC00377771
REMARK  5 active torsions:
REMARK  status: ('A' for Active; 'I' for Inactive)
REMARK    1  A    between atoms: C_4  and  C_7
REMARK    2  A    between atoms: C_12  and  N_21
REMARK    3  A    between atoms: C_16  and  N_20
REMARK    4  A    between atoms: C_17  and  C_18
REMARK    5  A    between atoms: N_21  and  C_22
REMARK                            x       y       z     vdW  Elec       q    Type
REMARK                         _______ _______ _______ _____ _____    ______ ____
ROOT
ATOM      1  C   UNL     1       3.775   1.996   0.333  0.00  0.00    +0.098 C 
ATOM      2  C   UNL     1       2.462   1.264   0.246  0.00  0.00    +0.008 A 
ATOM      3  C   UNL     1       1.280   1.983   0.263  0.00  0.00    +0.010 A 
ATOM      4  C   UNL     1       0.067   1.329   0.185  0.00  0.00    +0.024 A 
ATOM      5  C   UNL     1       0.029  -0.057   0.089  0.00  0.00    +0.035 A 
ATOM      6  C   UNL     1       1.213  -0.780   0.072  0.00  0.00    +0.069 A 
ATOM      7  C   UNL     1       2.432  -0.119   0.151  0.00  0.00    +0.136 A 
ATOM      8  O   UNL     1       3.580  -0.840   0.133  0.00  0.00    -0.441 OA
ATOM      9  C   UNL     1       4.743  -0.243  -0.177  0.00  0.00    +0.199 C 
ATOM     10  C   UNL     1       4.900   1.100  -0.103  0.00  0.00    +0.098 C 
ENDROOT
BRANCH   1  14
ATOM     11  C   UNL     1       4.443   3.228   4.368  0.00  0.00    +0.000 A 
ATOM     12  C   UNL     1       4.369   4.172   3.361  0.00  0.00    +0.000 A 
ATOM     13  C   UNL     1       4.153   3.773   2.055  0.00  0.00    +0.004 A 
ATOM     14  C   UNL     1       4.011   2.431   1.757  0.00  0.00    -0.035 A 
ATOM     15  C   UNL     1       4.080   1.488   2.765  0.00  0.00    +0.004 A 
ATOM     16  C   UNL     1       4.300   1.886   4.070  0.00  0.00    +0.000 A 
ENDBRANCH   1  14
BRANCH   9  17
ATOM     17  N   UNL     1       5.802  -1.016  -0.582  0.00  0.00    -0.328 N 
ATOM     18  H   UNL     1       6.648  -0.599  -0.810  0.00  0.00    +0.145 HD
ATOM     19  H   UNL     1       5.705  -1.980  -0.640  0.00  0.00    +0.145 HD
ENDBRANCH   9  17
BRANCH  10  20
ATOM     20  C   UNL     1       6.164   1.678  -0.449  0.00  0.00    +0.101 C 
ATOM     21  N   UNL     1       7.166   2.137  -0.722  0.00  0.00    -0.191 NA
ENDBRANCH  10  20
BRANCH   5  22
ATOM     22  N   UNL     1      -1.197  -0.721   0.010  0.00  0.00    -0.314 N 
ATOM     23  H   UNL     1      -1.981  -0.344   0.441  0.00  0.00    +0.152 HD
BRANCH  22  24
ATOM     24  C   UNL     1      -1.296  -1.926  -0.689  0.00  0.00    +0.031 A 
ATOM     25  C   UNL     1      -0.466  -2.169  -1.777  0.00  0.00    +0.023 A 
ATOM     26  C   UNL     1      -0.563  -3.364  -2.464  0.00  0.00    +0.002 A 
ATOM     27  C   UNL     1      -1.492  -4.313  -2.076  0.00  0.00    +0.000 A 
ATOM     28  C   UNL     1      -2.322  -4.072  -0.996  0.00  0.00    +0.002 A 
ATOM     29  C   UNL     1      -2.227  -2.881  -0.302  0.00  0.00    +0.023 A 
ENDBRANCH  22  24
ENDBRANCH   5  22
TORSDOF 5
