REMARK  Name = ZINC40365511
REMARK  3 active torsions:
REMARK  status: ('A' for Active; 'I' for Inactive)
REMARK    1  A    between atoms: C_5  and  C_8
REMARK    2  A    between atoms: C_5  and  N_11
REMARK    3  A    between atoms: C_8  and  N_10
REMARK                            x       y       z     vdW  Elec       q    Type
REMARK                         _______ _______ _______ _____ _____    ______ ____
ROOT
ATOM      1  C   UNL     1       0.613   2.381  -0.567  0.00  0.00    +0.000 C 
ATOM      2  C   UNL     1       2.113   2.433  -0.670  0.00  0.00    +0.000 C 
ATOM      3  C   UNL     1       2.615   2.180  -2.104  0.00  0.00    +0.002 C 
ATOM      4  C   UNL     1       1.852   1.044  -2.813  0.00  0.00    +0.033 C 
ATOM      5  C   UNL     1       1.598  -0.131  -1.907  0.00  0.00    +0.089 C 
ATOM      6  C   UNL     1       0.199   0.030  -1.278  0.00  0.00    +0.033 C 
ATOM      7  C   UNL     1       0.198   0.954  -0.154  0.00  0.00    +0.002 C 
ENDROOT
BRANCH   5   8
ATOM      8  N   UNL     1       2.612  -0.166  -0.850  0.00  0.00    -0.230 N 
ATOM      9  C   UNL     1       2.326  -0.449   0.449  0.00  0.00    +0.226 C 
ATOM     10  O   UNL     1       1.293  -0.910   0.885  0.00  0.00    -0.275 OA
ATOM     11  C   UNL     1       3.546  -0.076   1.231  0.00  0.00    +0.087 C 
ATOM     12  C   UNL     1       3.913  -0.875   2.462  0.00  0.00    +0.013 C 
ATOM     13  C   UNL     1       5.224  -0.264   2.996  0.00  0.00    +0.001 C 
ATOM     14  C   UNL     1       6.330  -0.287   1.948  0.00  0.00    +0.001 C 
ATOM     15  C   UNL     1       5.887   0.360   0.622  0.00  0.00    +0.013 C 
ATOM     16  C   UNL     1       4.646  -0.357   0.165  0.00  0.00    +0.087 C 
ATOM     17  C   UNL     1       3.932   0.076  -1.073  0.00  0.00    +0.226 C 
ATOM     18  O   UNL     1       4.428   0.550  -2.073  0.00  0.00    -0.275 OA
ENDBRANCH   5   8
BRANCH   5  19
ATOM     19  C   UNL     1       1.651  -1.407  -2.707  0.00  0.00    +0.071 C 
ATOM     20  S   UNL     1       2.722  -2.536  -2.341  0.00  0.00    -0.038 S 
BRANCH  19  21
ATOM     21  N   UNL     1       0.795  -1.596  -3.731  0.00  0.00    -0.354 N 
ATOM     22  H   UNL     1       0.145  -0.911  -3.953  0.00  0.00    +0.143 HD
ATOM     23  H   UNL     1       0.828  -2.418  -4.245  0.00  0.00    +0.143 HD
ENDBRANCH  19  21
ENDBRANCH   5  19
TORSDOF 3
