REMARK  Name = ZINC22060537
REMARK  9 active torsions:
REMARK  status: ('A' for Active; 'I' for Inactive)
REMARK    1  A    between atoms: C_1  and  C_2
REMARK    2  A    between atoms: C_2  and  C_4
REMARK    3  A    between atoms: C_2  and  N_11
REMARK    4  A    between atoms: N_11  and  C_12
REMARK    5  A    between atoms: C_12  and  C_13
REMARK    6  A    between atoms: N_15  and  C_16
REMARK    7  A    between atoms: C_16  and  C_17
REMARK    8  A    between atoms: C_22  and  O_23
REMARK    9  A    between atoms: O_23  and  C_24
REMARK                            x       y       z     vdW  Elec       q    Type
REMARK                         _______ _______ _______ _____ _____    ______ ____
ROOT
ATOM      1  C   UNL     1      -4.389   2.456   3.192  0.00  0.00    +0.196 C 
ATOM      2  O   UNL     1      -4.528   3.652   3.330  0.00  0.00    -0.278 OA
ATOM      3  N   UNL     1      -3.160   1.907   3.271  0.00  0.00    -0.313 N 
ATOM      4  H   UNL     1      -3.034   0.821   3.146  0.00  0.00    +0.149 HD
ENDROOT
BRANCH   1   5
ATOM      5  C   UNL     1      -5.589   1.582   2.934  0.00  0.00    +0.016 C 
BRANCH   5   6
ATOM      6  N   UNL     1      -6.800   2.413   2.894  0.00  0.00    +0.389 N 
ATOM      7  H   UNL     1      -6.691   3.157   2.091  0.00  0.00    -0.084 HD
ATOM      8  H   UNL     1      -6.906   2.929   3.860  0.00  0.00    -0.084 HD
BRANCH   6  10
ATOM      9  C   UNL     1      -8.163   1.388   1.136  0.00  0.00    -0.009 C 
ATOM     10  C   UNL     1      -7.993   1.593   2.643  0.00  0.00    -0.042 C 
BRANCH  10  11
ATOM     11  C   UNL     1      -9.208   2.293   3.196  0.00  0.00    -0.043 A 
ATOM     12  C   UNL     1      -9.207   3.667   3.342  0.00  0.00    +0.003 A 
ATOM     13  C   UNL     1     -10.322   4.309   3.849  0.00  0.00    +0.000 A 
ATOM     14  C   UNL     1     -11.438   3.577   4.209  0.00  0.00    +0.001 A 
ATOM     15  C   UNL     1     -11.440   2.203   4.063  0.00  0.00    +0.020 A 
ATOM     16  C   UNL     1     -10.326   1.560   3.550  0.00  0.00    +0.043 A 
ATOM     17 CL   UNL     1     -10.331  -0.165   3.359  0.00  0.00    -0.083 Cl
ENDBRANCH  10  11
ENDBRANCH   6  10
ENDBRANCH   5   6
ENDBRANCH   1   5
BRANCH   3  18
ATOM     18  C   UNL     1      -1.993   2.756   3.522  0.00  0.00    +0.143 C 
BRANCH  18  19
ATOM     19  C   UNL     1      -0.751   1.903   3.563  0.00  0.00    +0.012 A 
ATOM     20  C   UNL     1      -0.207   1.531   4.777  0.00  0.00    +0.009 A 
ATOM     21  C   UNL     1       0.932   0.749   4.816  0.00  0.00    +0.001 A 
ATOM     22  C   UNL     1       1.530   0.336   3.639  0.00  0.00    +0.004 A 
ATOM     23  C   UNL     1       0.987   0.701   2.422  0.00  0.00    +0.046 A 
ATOM     24  C   UNL     1      -0.153   1.491   2.381  0.00  0.00    +0.135 A 
BRANCH  24  25
ATOM     25  O   UNL     1      -0.686   1.856   1.185  0.00  0.00    -0.405 OA
BRANCH  25  26
ATOM     26  C   UNL     1      -0.017   1.395   0.010  0.00  0.00    +0.575 C 
ATOM     27  F   UNL     1       0.002  -0.004   0.002  0.00  0.00    -0.133 F 
ATOM     28  F   UNL     1       1.296   1.879  -0.000  0.00  0.00    -0.133 F 
ATOM     29  F   UNL     1      -0.694   1.858  -1.124  0.00  0.00    -0.133 F 
ENDBRANCH  25  26
ENDBRANCH  24  25
ENDBRANCH  18  19
ENDBRANCH   3  18
TORSDOF 8
