REMARK  Name = ZINC39558816
REMARK  9 active torsions:
REMARK  status: ('A' for Active; 'I' for Inactive)
REMARK    1  A    between atoms: C_1  and  C_2
REMARK    2  A    between atoms: C_5  and  S_9
REMARK    3  A    between atoms: C_7  and  C_8
REMARK    4  A    between atoms: S_9  and  C_10
REMARK    5  A    between atoms: C_10  and  C_11
REMARK    6  A    between atoms: C_11  and  C_12
REMARK    7  A    between atoms: N_14  and  C_15
REMARK    8  A    between atoms: C_15  and  C_16
REMARK    9  A    between atoms: N_18  and  C_19
REMARK                            x       y       z     vdW  Elec       q    Type
REMARK                         _______ _______ _______ _____ _____    ______ ____
ROOT
ATOM      1  C   UNL     1       0.083  -8.481  -5.206  0.00  0.00    +0.200 C 
ENDROOT
BRANCH   1   4
ATOM      2  C   UNL     1       0.068  -6.840  -3.404  0.00  0.00    +0.214 C 
ATOM      3  O   UNL     1       0.043  -5.964  -4.242  0.00  0.00    -0.276 OA
ATOM      4  N   UNL     1       0.090  -8.134  -3.783  0.00  0.00    -0.307 N 
ATOM      5  H   UNL     1       0.110  -8.835  -3.113  0.00  0.00    +0.149 HD
BRANCH   2   6
ATOM      6  C   UNL     1       0.075  -6.484  -1.940  0.00  0.00    +0.107 C 
BRANCH   6   7
ATOM      7  C   UNL     1       0.046  -4.962  -1.786  0.00  0.00    +0.083 C 
BRANCH   7   8
ATOM      8  S   UNL     1       0.055  -4.532  -0.024  0.00  0.00    -0.125 S 
BRANCH   8  13
ATOM      9  C   UNL     1      -0.065   1.503   0.009  0.00  0.00    +0.044 C 
ATOM     10  C   UNL     1      -0.035  -0.004   0.001  0.00  0.00    -0.047 A 
ATOM     11  C   UNL     1      -0.032  -0.687  -1.202  0.00  0.00    +0.005 A 
ATOM     12  C   UNL     1      -0.005  -2.068  -1.213  0.00  0.00    +0.015 A 
ATOM     13  C   UNL     1       0.020  -2.770  -0.014  0.00  0.00    +0.008 A 
ATOM     14  C   UNL     1       0.018  -2.080   1.192  0.00  0.00    +0.018 A 
ATOM     15  C   UNL     1      -0.004  -0.700   1.196  0.00  0.00    -0.046 A 
ATOM     16  C   UNL     1      -0.001   0.050   2.503  0.00  0.00    +0.044 C 
ENDBRANCH   8  13
ENDBRANCH   7   8
ENDBRANCH   6   7
ENDBRANCH   2   6
ENDBRANCH   1   4
BRANCH   1  17
ATOM     17  C   UNL     1       0.111  -9.980  -5.358  0.00  0.00    +0.234 C 
ATOM     18  O   UNL     1       0.134 -10.689  -4.374  0.00  0.00    -0.274 OA
ATOM     19  N   UNL     1       0.110 -10.533  -6.587  0.00  0.00    -0.284 N 
ATOM     20  H   UNL     1       0.024  -9.970  -7.372  0.00  0.00    +0.155 HD
BRANCH  19  21
ATOM     21  C   UNL     1       0.234 -11.921  -6.731  0.00  0.00    +0.036 A 
ATOM     22  C   UNL     1       0.938 -12.447  -7.808  0.00  0.00    +0.025 A 
ATOM     23  C   UNL     1       1.063 -13.813  -7.955  0.00  0.00    +0.029 A 
ATOM     24  C   UNL     1       0.485 -14.665  -7.026  0.00  0.00    +0.067 A 
ATOM     25  C   UNL     1      -0.223 -14.140  -5.943  0.00  0.00    +0.069 A 
ATOM     26  C   UNL     1      -0.342 -12.767  -5.795  0.00  0.00    +0.051 A 
ATOM     27  N   UNL     1      -0.679 -15.224  -5.196  0.00  0.00    -0.306 N 
ATOM     28  H   UNL     1      -1.203 -15.171  -4.382  0.00  0.00    +0.170 HD
ATOM     29  C   UNL     1      -0.267 -16.357  -5.796  0.00  0.00    +0.325 A 
ATOM     30  O   UNL     1      -0.497 -17.483  -5.398  0.00  0.00    -0.247 OA
ATOM     31  N   UNL     1       0.437 -16.054  -6.902  0.00  0.00    -0.306 N 
ATOM     32  H   UNL     1       0.842 -16.692  -7.510  0.00  0.00    +0.170 HD
ENDBRANCH  19  21
ENDBRANCH   1  17
TORSDOF 7
