REMARK  Name = ZINC16273081
REMARK  4 active torsions:
REMARK  status: ('A' for Active; 'I' for Inactive)
REMARK    1  A    between atoms: C_1  and  C_2
REMARK    2  A    between atoms: C_7  and  N_8
REMARK    3  A    between atoms: N_8  and  C_9
REMARK    4  A    between atoms: C_9  and  N_11
REMARK                            x       y       z     vdW  Elec       q    Type
REMARK                         _______ _______ _______ _____ _____    ______ ____
ROOT
ATOM      1  N   UNL     1      -0.157  -0.027   4.744  0.00  0.00    -0.272 N 
ATOM      2  C   UNL     1      -0.295   1.437   4.771  0.00  0.00    +0.208 C 
ATOM      3  C   UNL     1       0.575   1.992   5.869  0.00  0.00    +0.235 C 
ATOM      4  O   UNL     1       1.034   3.110   5.762  0.00  0.00    -0.274 OA
ATOM      5  N   UNL     1       0.850   1.264   6.967  0.00  0.00    -0.283 N 
ATOM      6  C   UNL     1       0.375  -0.047   7.093  0.00  0.00    +0.055 A 
ATOM      7  C   UNL     1      -0.139  -0.707   5.972  0.00  0.00    +0.057 A 
ATOM      8  C   UNL     1      -0.612  -2.002   6.078  0.00  0.00    +0.025 A 
ATOM      9  C   UNL     1      -0.585  -2.644   7.304  0.00  0.00    +0.002 A 
ATOM     10  C   UNL     1      -0.086  -1.994   8.418  0.00  0.00    +0.002 A 
ATOM     11  C   UNL     1       0.403  -0.697   8.316  0.00  0.00    +0.025 A 
ATOM     12  H   UNL     1       1.383   1.651   7.679  0.00  0.00    +0.155 HD
ENDROOT
BRANCH   1  13
ATOM     13  C   UNL     1      -0.057  -0.695   3.578  0.00  0.00    +0.142 C 
ATOM     14  S   UNL     1       0.049  -2.404   3.576  0.00  0.00    -0.018 S 
BRANCH  13  15
ATOM     15  N   UNL     1      -0.040  -0.017   2.413  0.00  0.00    -0.296 N 
ATOM     16  H   UNL     1      -0.033   0.953   2.416  0.00  0.00    +0.154 HD
BRANCH  15  23
ATOM     17  C   UNL     1      -1.842   0.816   0.374  0.00  0.00    +0.045 C 
ATOM     18  C   UNL     1      -0.895  -0.340   0.177  0.00  0.00    -0.029 A 
ATOM     19  C   UNL     1      -0.881  -1.026  -1.022  0.00  0.00    +0.005 A 
ATOM     20  C   UNL     1      -0.013  -2.086  -1.203  0.00  0.00    +0.000 A 
ATOM     21  C   UNL     1       0.844  -2.464  -0.185  0.00  0.00    +0.002 A 
ATOM     22  C   UNL     1       0.835  -1.783   1.016  0.00  0.00    +0.023 A 
ATOM     23  C   UNL     1      -0.032  -0.713   1.199  0.00  0.00    +0.036 A 
ENDBRANCH  15  23
ENDBRANCH  13  15
ENDBRANCH   1  13
TORSDOF 3
