REMARK  Name = ZINC34719329
REMARK  8 active torsions:
REMARK  status: ('A' for Active; 'I' for Inactive)
REMARK    1  A    between atoms: C_1  and  C_2
REMARK    2  A    between atoms: C_2  and  C_3
REMARK    3  A    between atoms: C_3  and  C_5
REMARK    4  A    between atoms: C_3  and  N_6
REMARK    5  A    between atoms: C_7  and  C_9
REMARK    6  A    between atoms: C_9  and  N_10
REMARK    7  A    between atoms: C_12  and  C_22
REMARK    8  A    between atoms: C_19  and  N_21
REMARK                            x       y       z     vdW  Elec       q    Type
REMARK                         _______ _______ _______ _____ _____    ______ ____
ROOT
ATOM      1  N   UNL     1       4.802   0.553  -3.667  0.00  0.00    -0.315 N 
ATOM      2  C   UNL     1       5.420  -0.616  -4.317  0.00  0.00    +0.150 C 
ATOM      3  C   UNL     1       4.926  -0.653  -5.770  0.00  0.00    +0.188 C 
ATOM      4  O   UNL     1       5.285   0.573  -6.411  0.00  0.00    -0.486 OA
ATOM      5  C   UNL     1       4.982   1.734  -5.772  0.00  0.00    +0.144 A 
ATOM      6  C   UNL     1       4.733   1.750  -4.404  0.00  0.00    +0.073 A 
ATOM      7  C   UNL     1       4.424   2.940  -3.765  0.00  0.00    +0.028 A 
ATOM      8  C   UNL     1       4.355   4.115  -4.490  0.00  0.00    +0.025 A 
ATOM      9  C   UNL     1       4.594   4.102  -5.857  0.00  0.00    +0.028 A 
ATOM     10  C   UNL     1       4.915   2.915  -6.495  0.00  0.00    +0.070 A 
ATOM     11  C   UNL     1       5.577  -1.828  -6.503  0.00  0.00    +0.053 C 
ENDROOT
BRANCH   9  12
ATOM     12  N   UNL     1       4.522   5.292  -6.590  0.00  0.00    -0.358 N 
ATOM     13  H   UNL     1       4.304   6.125  -6.143  0.00  0.00    +0.142 HD
ATOM     14  H   UNL     1       4.689   5.284  -7.546  0.00  0.00    +0.142 HD
ENDBRANCH   9  12
BRANCH   1  15
ATOM     15  C   UNL     1       4.271   0.470  -2.304  0.00  0.00    +0.201 C 
BRANCH  15  17
ATOM     16  N   UNL     1       2.125  -0.091  -1.209  0.00  0.00    -0.311 N 
ATOM     17  C   UNL     1       2.824   0.051  -2.353  0.00  0.00    +0.231 C 
ATOM     18  O   UNL     1       2.289  -0.157  -3.421  0.00  0.00    -0.274 OA
ATOM     19  H   UNL     1       2.553   0.075  -0.355  0.00  0.00    +0.149 HD
BRANCH  16  20
ATOM     20  C   UNL     1       0.718  -0.497  -1.257  0.00  0.00    +0.070 C 
ATOM     21  C   UNL     1       0.630  -2.023  -1.329  0.00  0.00    +0.028 C 
BRANCH  20  23
ATOM     22  C   UNL     1      -0.019   1.526   0.010  0.00  0.00    +0.005 C 
ATOM     23  C   UNL     1       0.002  -0.004   0.002  0.00  0.00    +0.018 C 
ENDBRANCH  20  23
ENDBRANCH  16  20
ENDBRANCH  15  17
ENDBRANCH   1  15
TORSDOF 5
