REMARK  Name = ZINC11790578
REMARK  6 active torsions:
REMARK  status: ('A' for Active; 'I' for Inactive)
REMARK    1  A    between atoms: C_5  and  C_7
REMARK    2  A    between atoms: C_7  and  C_21
REMARK    3  A    between atoms: N_10  and  C_14
REMARK    4  A    between atoms: C_14  and  C_15
REMARK    5  A    between atoms: C_26  and  C_27
REMARK    6  A    between atoms: C_26  and  N_62
REMARK                            x       y       z     vdW  Elec       q    Type
REMARK                         _______ _______ _______ _____ _____    ______ ____
ROOT
ATOM      1  C   UNL     1       3.358  -0.064  -2.673  0.00  0.00    +0.157 C 
ATOM      2  C   UNL     1       2.792  -0.298  -1.287  0.00  0.00    +0.253 C 
ATOM      3  O   UNL     1       3.010  -1.240  -0.556  0.00  0.00    -0.272 OA
ATOM      4  N   UNL     1       1.993   0.758  -1.036  0.00  0.00    -0.221 N 
ATOM      5  C   UNL     1       1.982   1.622  -2.058  0.00  0.00    +0.310 C 
ATOM      6  O   UNL     1       1.339   2.653  -2.064  0.00  0.00    -0.252 OA
ATOM      7  N   UNL     1       2.763   1.221  -3.078  0.00  0.00    -0.280 N 
ATOM      8  H   UNL     1       2.905   1.687  -3.917  0.00  0.00    +0.152 HD
ENDROOT
BRANCH   1   9
ATOM      9  C   UNL     1       2.931  -1.180  -3.629  0.00  0.00    +0.024 C 
ATOM     10  C   UNL     1       3.273  -0.781  -5.067  0.00  0.00    -0.012 C 
ATOM     11  C   UNL     1       2.787  -1.873  -6.023  0.00  0.00    -0.078 C 
ATOM     12  C   UNL     1       0.989  -2.476  -4.515  0.00  0.00    -0.078 C 
ATOM     13  C   UNL     1       1.420  -1.402  -3.514  0.00  0.00    -0.012 C 
ATOM     14  N   UNL     1       1.323  -2.020  -5.881  0.00  0.00    +0.382 N 
ATOM     15  H   UNL     1       0.879  -1.109  -6.046  0.00  0.00    -0.081 HD
BRANCH  14  16
ATOM     16  C   UNL     1       0.815  -2.989  -6.875  0.00  0.00    -0.043 C 
BRANCH  16  17
ATOM     17  C   UNL     1       0.972  -2.398  -8.252  0.00  0.00    -0.061 A 
ATOM     18  C   UNL     1      -0.041  -1.630  -8.794  0.00  0.00    +0.005 A 
ATOM     19  C   UNL     1       0.103  -1.083 -10.055  0.00  0.00    +0.041 A 
ATOM     20  C   UNL     1       1.259  -1.313 -10.781  0.00  0.00    +0.158 A 
ATOM     21  C   UNL     1       2.273  -2.089 -10.240  0.00  0.00    +0.159 A 
ATOM     22  C   UNL     1       2.127  -2.631  -8.975  0.00  0.00    +0.043 A 
ATOM     23  F   UNL     1       3.402  -2.315 -10.947  0.00  0.00    -0.202 F 
ATOM     24  F   UNL     1       1.399  -0.783 -12.016  0.00  0.00    -0.202 F 
ENDBRANCH  16  17
ENDBRANCH  14  16
ENDBRANCH   1   9
BRANCH   1  29
ATOM     25  C   UNL     1       6.832   1.132  -1.835  0.00  0.00    +0.003 A 
ATOM     26  C   UNL     1       7.574   0.202  -2.546  0.00  0.00    +0.020 A 
ATOM     27  C   UNL     1       6.915  -0.775  -3.268  0.00  0.00    +0.111 A 
ATOM     28  N   UNL     1       5.598  -0.828  -3.285  0.00  0.00    -0.257 NA
ATOM     29  C   UNL     1       4.860   0.040  -2.621  0.00  0.00    +0.074 A 
ATOM     30  C   UNL     1       5.449   1.048  -1.881  0.00  0.00    +0.026 A 
ENDBRANCH   1  29
BRANCH   4  31
ATOM     31  C   UNL     1       1.236   0.942   0.204  0.00  0.00    +0.149 C 
BRANCH  31  32
ATOM     32  C   UNL     1      -0.147   0.305   0.057  0.00  0.00    +0.136 C 
ATOM     33  C   UNL     1      -0.978   0.518   1.347  0.00  0.00    +0.035 C 
ATOM     34  C   UNL     1      -2.425   0.416   0.783  0.00  0.00    +0.031 C 
ATOM     35  C   UNL     1      -2.274   1.038  -0.622  0.00  0.00    +0.160 C 
ATOM     36  O   UNL     1      -0.890   0.961  -0.983  0.00  0.00    -0.375 OA
ENDBRANCH  31  32
ENDBRANCH   4  31
TORSDOF 6
