REMARK  Name = ZINC24719804
REMARK  7 active torsions:
REMARK  status: ('A' for Active; 'I' for Inactive)
REMARK    1  A    between atoms: C_2  and  C_3
REMARK    2  A    between atoms: C_3  and  N_4
REMARK    3  A    between atoms: C_5  and  C_26
REMARK    4  A    between atoms: C_8  and  S_9
REMARK    5  A    between atoms: S_9  and  C_10
REMARK    6  A    between atoms: C_10  and  C_11
REMARK    7  A    between atoms: N_17  and  C_18
REMARK                            x       y       z     vdW  Elec       q    Type
REMARK                         _______ _______ _______ _____ _____    ______ ____
ROOT
ATOM      1  C   UNL     1      -2.379   3.590   0.355  0.00  0.00    +0.146 A 
ATOM      2  N   UNL     1      -1.246   2.930   0.523  0.00  0.00    -0.199 NA
ATOM      3  C   UNL     1      -1.242   1.599   0.521  0.00  0.00    +0.217 A 
ATOM      4  N   UNL     1      -2.380   0.933   0.360  0.00  0.00    -0.181 NA
ATOM      5  C   UNL     1      -3.518   1.600   0.197  0.00  0.00    +0.224 A 
ATOM      6  N   UNL     1      -3.513   2.931   0.195  0.00  0.00    -0.198 NA
ATOM      7  N   UNL     1      -4.704   0.912   0.030  0.00  0.00    -0.284 N 
ATOM      8  N   UNL     1      -0.058   0.912   0.691  0.00  0.00    -0.327 N 
ATOM      9  H   UNL     1      -5.657   1.461  -0.015  0.00  0.00    +0.155 HD
ATOM     10  H   UNL     1      -0.055  -0.188   0.689  0.00  0.00    +0.145 HD
ATOM     11  H   UNL     1       0.884   1.464   0.829  0.00  0.00    +0.145 HD
ENDROOT
BRANCH   7  12
ATOM     12  C   UNL     1      -4.695  -0.482  -0.083  0.00  0.00    +0.034 A 
ATOM     13  C   UNL     1      -3.629  -1.123  -0.703  0.00  0.00    +0.025 A 
ATOM     14  C   UNL     1      -3.620  -2.500  -0.808  0.00  0.00    +0.022 A 
ATOM     15  C   UNL     1      -4.676  -3.240  -0.307  0.00  0.00    +0.041 A 
ATOM     16  C   UNL     1      -5.741  -2.605   0.306  0.00  0.00    +0.022 A 
ATOM     17  C   UNL     1      -5.753  -1.228   0.419  0.00  0.00    +0.025 A 
ATOM     18 CL   UNL     1      -4.664  -4.971  -0.447  0.00  0.00    -0.084 Cl
ENDBRANCH   7  12
BRANCH   1  19
ATOM     19  C   UNL     1      -2.378   5.097   0.352  0.00  0.00    +0.153 C 
BRANCH  19  20
ATOM     20  S   UNL     1      -2.619   5.703   2.041  0.00  0.00    -0.078 S 
BRANCH  20  25
ATOM     21  N   UNL     1      -2.710   8.424   2.689  0.00  0.00    -0.302 N 
ATOM     22  C   UNL     1      -2.612   9.604   2.005  0.00  0.00    +0.139 A 
ATOM     23  N   UNL     1      -2.433   9.310   0.748  0.00  0.00    -0.133 NA
ATOM     24  N   UNL     1      -2.406   8.035   0.593  0.00  0.00    -0.122 NA
ATOM     25  C   UNL     1      -2.577   7.440   1.751  0.00  0.00    +0.192 A 
BRANCH  22  26
ATOM     26  C   UNL     1      -2.695  10.988   2.596  0.00  0.00    +0.079 C 
ATOM     27  C   UNL     1      -1.389  11.750   2.318  0.00  0.00    +0.035 C 
ATOM     28  C   UNL     1      -1.580  13.254   2.630  0.00  0.00    +0.166 C 
ATOM     29  S   UNL     1      -3.378  13.503   2.334  0.00  0.00    -0.030 S 
ATOM     30  O   UNL     1      -3.998  13.887   3.554  0.00  0.00    -0.174 OA
ATOM     31  O   UNL     1      -3.548  14.312   1.178  0.00  0.00    -0.174 OA
ATOM     32  C   UNL     1      -3.864  11.772   1.933  0.00  0.00    +0.177 C 
ENDBRANCH  22  26
BRANCH  21  33
ATOM     33  C   UNL     1      -2.916   8.250   4.129  0.00  0.00    +0.152 C 
BRANCH  33  35
ATOM     34  C   UNL     1      -1.314   9.013   5.807  0.00  0.00    +0.005 C 
ATOM     35  C   UNL     1      -1.580   8.189   4.823  0.00  0.00    -0.013 C 
ENDBRANCH  33  35
ENDBRANCH  21  33
ENDBRANCH  20  25
ENDBRANCH  19  20
ENDBRANCH   1  19
TORSDOF 7
