REMARK  Name = ZINC09472911
REMARK  10 active torsions:
REMARK  status: ('A' for Active; 'I' for Inactive)
REMARK    1  A    between atoms: C_1  and  C_2
REMARK    2  A    between atoms: C_2  and  N_55
REMARK    3  A    between atoms: C_8  and  N_13
REMARK    4  A    between atoms: C_9  and  C_10
REMARK    5  A    between atoms: C_14  and  C_16
REMARK    6  A    between atoms: C_16  and  C_17
REMARK    7  A    between atoms: C_17  and  C_18
REMARK    8  A    between atoms: C_18  and  S_19
REMARK    9  A    between atoms: S_19  and  C_20
REMARK   10  A    between atoms: C_23  and  C_26
REMARK                            x       y       z     vdW  Elec       q    Type
REMARK                         _______ _______ _______ _____ _____    ______ ____
ROOT
ATOM      1  C   UNL     1       7.974 -12.656   0.303  0.00  0.00    -0.074 C 
ATOM      2  C   UNL     1       8.476 -11.277  -0.134  0.00  0.00    +0.018 C 
ATOM      3  C   UNL     1       7.294 -10.315  -0.120  0.00  0.00    -0.027 A 
ATOM      4  C   UNL     1       6.029 -10.794  -0.111  0.00  0.00    -0.021 A 
ATOM      5  S   UNL     1       5.001  -9.355  -0.094  0.00  0.00    -0.079 S 
ATOM      6  C   UNL     1       6.231  -8.133  -0.099  0.00  0.00    +0.084 A 
ATOM      7  C   UNL     1       7.409  -8.869  -0.120  0.00  0.00    +0.068 A 
ATOM      8  C   UNL     1       5.625 -12.235  -0.117  0.00  0.00    -0.035 C 
ATOM      9  N   UNL     1       6.806 -13.036  -0.519  0.00  0.00    +0.383 N 
ATOM     10  H   UNL     1       7.017 -12.848  -1.506  0.00  0.00    -0.081 HD
ENDROOT
BRANCH   7  11
ATOM     11  C   UNL     1       8.718  -8.209  -0.137  0.00  0.00    +0.244 C 
ATOM     12  O   UNL     1       9.277  -7.940   0.910  0.00  0.00    -0.270 OA
ATOM     13  N   UNL     1       9.302  -7.901  -1.312  0.00  0.00    -0.325 N 
ATOM     14  H   UNL     1       8.856  -8.115  -2.146  0.00  0.00    +0.145 HD
ATOM     15  H   UNL     1      10.168  -7.464  -1.323  0.00  0.00    +0.145 HD
ENDBRANCH   7  11
BRANCH   6  16
ATOM     16  N   UNL     1       6.076  -6.755  -0.091  0.00  0.00    -0.279 N 
ATOM     17  C   UNL     1       4.841  -6.216  -0.076  0.00  0.00    +0.218 C 
ATOM     18  O   UNL     1       3.865  -6.936  -0.070  0.00  0.00    -0.275 OA
ATOM     19  H   UNL     1       6.857  -6.180  -0.096  0.00  0.00    +0.155 HD
BRANCH  17  20
ATOM     20  C   UNL     1       4.673  -4.718  -0.067  0.00  0.00    +0.097 C 
BRANCH  20  21
ATOM     21  C   UNL     1       3.182  -4.373  -0.051  0.00  0.00    +0.020 C 
BRANCH  21  22
ATOM     22  C   UNL     1       3.012  -2.852  -0.042  0.00  0.00    +0.075 C 
BRANCH  22  23
ATOM     23  S   UNL     1       1.245  -2.442  -0.022  0.00  0.00    -0.125 S 
BRANCH  23  24
ATOM     24  C   UNL     1       1.216  -0.681  -0.013  0.00  0.00    +0.008 A 
ATOM     25  C   UNL     1       0.002  -0.004   0.002  0.00  0.00    +0.015 A 
ATOM     26  C   UNL     1      -0.017   1.377   0.010  0.00  0.00    +0.004 A 
ATOM     27  C   UNL     1       1.171   2.086   0.002  0.00  0.00    -0.050 A 
ATOM     28  C   UNL     1       2.380   1.416  -0.013  0.00  0.00    +0.004 A 
ATOM     29  C   UNL     1       2.407   0.035  -0.021  0.00  0.00    +0.015 A 
ATOM     30  C   UNL     1       1.146   3.593   0.010  0.00  0.00    +0.044 C 
ENDBRANCH  23  24
ENDBRANCH  22  23
ENDBRANCH  21  22
ENDBRANCH  20  21
ENDBRANCH  17  20
ENDBRANCH   6  16
BRANCH   9  32
ATOM     31  C   UNL     1       6.304 -14.816   1.121  0.00  0.00    -0.017 C 
ATOM     32  C   UNL     1       6.520 -14.478  -0.355  0.00  0.00    -0.082 C 
ENDBRANCH   9  32
TORSDOF 8
