REMARK  Name = ZINC27638049
REMARK  4 active torsions:
REMARK  status: ('A' for Active; 'I' for Inactive)
REMARK    1  A    between atoms: C_1  and  N_2
REMARK    2  A    between atoms: C_6  and  C_8
REMARK    3  A    between atoms: N_9  and  O_10
REMARK    4  A    between atoms: O_10  and  C_11
REMARK                            x       y       z     vdW  Elec       q    Type
REMARK                         _______ _______ _______ _____ _____    ______ ____
ROOT
ATOM      1  C   UNL     1       1.400  -1.955  -0.311  0.00  0.00    +0.105 C 
ATOM      2  N   UNL     1       1.322  -0.492  -0.418  0.00  0.00    -0.301 NA
ATOM      3  C   UNL     1       2.381   0.152   0.376  0.00  0.00    +0.088 C 
ATOM      4  C   UNL     1       2.456   1.629  -0.020  0.00  0.00    +0.043 C 
ATOM      5  C   UNL     1       1.078   2.231   0.004  0.00  0.00    -0.019 C 
ATOM      6  C   UNL     1      -0.018   1.498   0.010  0.00  0.00    -0.016 C 
ATOM      7  C   UNL     1       0.002  -0.004   0.002  0.00  0.00    +0.120 C 
ENDROOT
BRANCH   6   8
ATOM      8  C   UNL     1      -1.319   2.181   0.020  0.00  0.00    +0.157 C 
ATOM      9  N   UNL     1      -1.370   3.475   0.027  0.00  0.00    -0.093 NA
BRANCH   9  10
ATOM     10  O   UNL     1      -2.623   4.134   0.037  0.00  0.00    -0.397 OA
ATOM     11  C   UNL     1      -2.531   5.560   0.044  0.00  0.00    +0.313 C 
ENDBRANCH   9  10
ENDBRANCH   6   8
TORSDOF 2
