REMARK  Name = ZINC35855553
REMARK  3 active torsions:
REMARK  status: ('A' for Active; 'I' for Inactive)
REMARK    1  A    between atoms: C_1  and  C_2
REMARK    2  A    between atoms: C_2  and  C_3
REMARK    3  A    between atoms: N_25  and  C_28
REMARK                            x       y       z     vdW  Elec       q    Type
REMARK                         _______ _______ _______ _____ _____    ______ ____
ROOT
ATOM      1  C   UNL     1      -1.471  -0.309   0.072  0.00  0.00    -0.026 A 
ATOM      2  C   UNL     1      -2.064  -0.694   1.256  0.00  0.00    +0.005 A 
ATOM      3  C   UNL     1      -3.331  -1.248   1.254  0.00  0.00    +0.001 A 
ATOM      4  C   UNL     1      -4.007  -1.417   0.058  0.00  0.00    +0.004 A 
ATOM      5  C   UNL     1      -3.418  -1.035  -1.126  0.00  0.00    -0.027 A 
ATOM      6  C   UNL     1      -2.145  -0.470  -1.135  0.00  0.00    +0.039 A 
ATOM      7  N   UNL     1      -1.765  -0.159  -2.442  0.00  0.00    -0.286 N 
ATOM      8  C   UNL     1      -2.717  -0.479  -3.339  0.00  0.00    +0.212 C 
ATOM      9  O   UNL     1      -2.662  -0.325  -4.540  0.00  0.00    -0.277 OA
ATOM     10  C   UNL     1      -3.859  -1.079  -2.562  0.00  0.00    +0.053 C 
ATOM     11  C   UNL     1      -5.144  -0.271  -2.780  0.00  0.00    +0.089 C 
ATOM     12  C   UNL     1      -6.279  -1.331  -2.792  0.00  0.00    +0.074 C 
ATOM     13  C   UNL     1      -5.574  -2.681  -2.563  0.00  0.00    -0.054 C 
ATOM     14  N   UNL     1      -4.155  -2.455  -2.994  0.00  0.00    +0.395 N 
ATOM     15  C   UNL     1      -4.186  -2.506  -4.475  0.00  0.00    -0.076 C 
ATOM     16  C   UNL     1      -5.207  -3.609  -4.820  0.00  0.00    -0.020 C 
ATOM     17  C   UNL     1      -6.136  -3.722  -3.548  0.00  0.00    -0.016 C 
ATOM     18  C   UNL     1      -6.808  -1.259  -4.207  0.00  0.00    +0.228 C 
ATOM     19  O   UNL     1      -7.712  -1.933  -4.652  0.00  0.00    -0.275 OA
ATOM     20  N   UNL     1      -6.123  -0.335  -4.891  0.00  0.00    -0.209 N 
ATOM     21  C   UNL     1      -5.159   0.295  -4.182  0.00  0.00    +0.229 C 
ATOM     22  O   UNL     1      -4.425   1.167  -4.593  0.00  0.00    -0.275 OA
ATOM     23  H   UNL     1      -0.913   0.241  -2.677  0.00  0.00    +0.155 HD
ATOM     24  H   UNL     1      -3.521  -3.129  -2.592  0.00  0.00    -0.079 HD
ENDROOT
BRANCH  20  25
ATOM     25  C   UNL     1      -6.387  -0.037  -6.236  0.00  0.00    +0.064 A 
ATOM     26  C   UNL     1      -5.704  -0.705  -7.242  0.00  0.00    +0.045 A 
ATOM     27  C   UNL     1      -5.966  -0.410  -8.567  0.00  0.00    +0.043 A 
ATOM     28  C   UNL     1      -6.908   0.551  -8.890  0.00  0.00    +0.021 A 
ATOM     29  C   UNL     1      -7.590   1.218  -7.889  0.00  0.00    +0.023 A 
ATOM     30  C   UNL     1      -7.336   0.923  -6.563  0.00  0.00    +0.063 A 
ATOM     31 CL   UNL     1      -8.197   1.757  -5.307  0.00  0.00    -0.082 Cl
ATOM     32 CL   UNL     1      -5.112  -1.245  -9.827  0.00  0.00    -0.083 Cl
ENDBRANCH  20  25
BRANCH   1  34
ATOM     33  C   UNL     1      -0.200   1.820   0.111  0.00  0.00    +0.009 C 
ATOM     34  C   UNL     1      -0.090   0.294   0.086  0.00  0.00    +0.033 C 
ENDBRANCH   1  34
TORSDOF 2
