REMARK  Name = ZINC45899572
REMARK  7 active torsions:
REMARK  status: ('A' for Active; 'I' for Inactive)
REMARK    1  A    between atoms: C_1  and  C_2
REMARK    2  A    between atoms: C_5  and  N_8
REMARK    3  A    between atoms: C_12  and  S_13
REMARK    4  A    between atoms: S_13  and  C_14
REMARK    5  A    between atoms: C_14  and  C_15
REMARK    6  A    between atoms: N_17  and  C_18
REMARK    7  A    between atoms: C_27  and  C_30
REMARK                            x       y       z     vdW  Elec       q    Type
REMARK                         _______ _______ _______ _____ _____    ______ ____
ROOT
ATOM      1  C   UNL     1       4.063  -5.752   3.276  0.00  0.00    +0.227 C 
ATOM      2  O   UNL     1       4.359  -4.604   3.530  0.00  0.00    -0.275 OA
ATOM      3  N   UNL     1       4.753  -6.766   3.836  0.00  0.00    -0.285 N 
ATOM      4  H   UNL     1       4.475  -7.683   3.686  0.00  0.00    +0.155 HD
ENDROOT
BRANCH   3   5
ATOM      5  C   UNL     1       5.873  -6.494   4.632  0.00  0.00    +0.035 A 
ATOM      6  C   UNL     1       5.892  -5.366   5.442  0.00  0.00    +0.027 A 
ATOM      7  C   UNL     1       6.995  -5.095   6.231  0.00  0.00    +0.049 A 
ATOM      8  C   UNL     1       8.084  -5.949   6.214  0.00  0.00    +0.143 A 
ATOM      9  C   UNL     1       8.068  -7.082   5.401  0.00  0.00    +0.077 A 
ATOM     10  C   UNL     1       6.961  -7.357   4.616  0.00  0.00    +0.050 A 
ATOM     11  N   UNL     1       9.180  -7.936   5.394  0.00  0.00    -0.279 N 
ATOM     12  C   UNL     1      10.093  -7.830   6.384  0.00  0.00    +0.258 C 
ATOM     13  O   UNL     1      11.078  -8.538   6.382  0.00  0.00    -0.271 OA
ATOM     14  C   UNL     1       9.883  -6.830   7.492  0.00  0.00    +0.256 C 
ATOM     15  O   UNL     1       9.175  -5.695   6.986  0.00  0.00    -0.478 OA
ATOM     16  C   UNL     1      11.240  -6.381   8.037  0.00  0.00    +0.062 C 
ATOM     17  H   UNL     1       9.292  -8.593   4.689  0.00  0.00    +0.155 HD
ENDBRANCH   3   5
BRANCH   1  18
ATOM     18  C   UNL     1       2.922  -6.046   2.336  0.00  0.00    +0.173 C 
BRANCH  18  19
ATOM     19  S   UNL     1       2.200  -4.486   1.756  0.00  0.00    -0.076 S 
BRANCH  19  24
ATOM     20  N   UNL     1       0.049  -4.173  -0.011  0.00  0.00    -0.277 N 
ATOM     21  C   UNL     1      -0.781  -5.009  -0.710  0.00  0.00    +0.230 A 
ATOM     22  N   UNL     1      -0.429  -6.231  -0.428  0.00  0.00    -0.137 NA
ATOM     23  N   UNL     1       0.559  -6.228   0.394  0.00  0.00    -0.122 NA
ATOM     24  C   UNL     1       0.899  -4.993   0.681  0.00  0.00    +0.196 A 
BRANCH  20  29
ATOM     25  C   UNL     1      -0.007   1.502  -0.004  0.00  0.00    +0.044 C 
ATOM     26  C   UNL     1       0.008  -0.005  -0.006  0.00  0.00    -0.050 A 
ATOM     27  C   UNL     1       0.004  -0.693  -1.205  0.00  0.00    +0.005 A 
ATOM     28  C   UNL     1       0.017  -2.075  -1.210  0.00  0.00    +0.026 A 
ATOM     29  C   UNL     1       0.036  -2.771  -0.009  0.00  0.00    +0.050 A 
ATOM     30  C   UNL     1       0.040  -2.077   1.193  0.00  0.00    +0.026 A 
ATOM     31  C   UNL     1       0.032  -0.696   1.192  0.00  0.00    +0.005 A 
ENDBRANCH  20  29
ENDBRANCH  19  24
ENDBRANCH  18  19
ENDBRANCH   1  18
TORSDOF 5
