REMARK  Name = ZINC09396715
REMARK  13 active torsions:
REMARK  status: ('A' for Active; 'I' for Inactive)
REMARK    1  A    between atoms: C_1  and  C_2
REMARK    2  A    between atoms: C_2  and  C_4
REMARK    3  A    between atoms: C_2  and  N_7
REMARK    4  A    between atoms: C_4  and  O_5
REMARK    5  A    between atoms: O_5  and  C_6
REMARK    6  A    between atoms: N_7  and  C_8
REMARK    7  A    between atoms: C_8  and  N_10
REMARK    8  A    between atoms: N_10  and  N_11
REMARK    9  A    between atoms: C_12  and  C_14
REMARK   10  A    between atoms: C_18  and  S_20
REMARK   11  A    between atoms: S_20  and  N_23
REMARK   12  A    between atoms: N_23  and  C_24
REMARK   13  A    between atoms: C_24  and  C_25
REMARK                            x       y       z     vdW  Elec       q    Type
REMARK                         _______ _______ _______ _____ _____    ______ ____
ROOT
ATOM      1  C   UNL     1       3.806  -2.788   4.477  0.00  0.00    +0.040 A 
ATOM      2  C   UNL     1       3.258  -1.504   4.455  0.00  0.00    +0.014 A 
ATOM      3  C   UNL     1       3.453  -0.656   5.525  0.00  0.00    +0.023 A 
ATOM      4  C   UNL     1       4.202  -1.071   6.614  0.00  0.00    +0.067 A 
ATOM      5  C   UNL     1       4.753  -2.342   6.638  0.00  0.00    +0.124 A 
ATOM      6  C   UNL     1       4.559  -3.201   5.577  0.00  0.00    +0.043 A 
ATOM      7 CL   UNL     1       4.450   0.005   7.953  0.00  0.00    -0.082 Cl
ENDROOT
BRANCH   1   9
ATOM      8  N   UNL     1       2.867  -3.303   2.276  0.00  0.00    -0.231 N 
ATOM      9  C   UNL     1       3.594  -3.704   3.337  0.00  0.00    +0.260 C 
ATOM     10  O   UNL     1       4.076  -4.820   3.356  0.00  0.00    -0.269 OA
ATOM     11  H   UNL     1       2.482  -2.413   2.260  0.00  0.00    +0.173 HD
BRANCH   8  12
ATOM     12  N   UNL     1       2.666  -4.172   1.195  0.00  0.00    -0.246 N 
ATOM     13  H   UNL     1       3.051  -5.062   1.210  0.00  0.00    +0.172 HD
BRANCH  12  14
ATOM     14  C   UNL     1       1.938  -3.770   0.134  0.00  0.00    +0.147 C 
ATOM     15  S   UNL     1       1.693  -4.832  -1.187  0.00  0.00    -0.017 S 
BRANCH  14  16
ATOM     16  N   UNL     1       1.404  -2.533   0.112  0.00  0.00    -0.321 N 
ATOM     17  H   UNL     1       1.543  -1.932   0.861  0.00  0.00    +0.148 HD
BRANCH  16  19
ATOM     18  C   UNL     1      -0.835  -2.560  -0.871  0.00  0.00    +0.030 C 
ATOM     19  C   UNL     1       0.613  -2.097  -1.041  0.00  0.00    +0.095 C 
BRANCH  19  20
ATOM     20  C   UNL     1       0.652  -0.570  -1.138  0.00  0.00    +0.181 C 
BRANCH  20  21
ATOM     21  O   UNL     1       0.002  -0.004   0.002  0.00  0.00    -0.381 OA
ATOM     22  C   UNL     1      -0.017   1.425   0.010  0.00  0.00    +0.194 C 
ENDBRANCH  20  21
ENDBRANCH  19  20
ENDBRANCH  16  19
ENDBRANCH  14  16
ENDBRANCH  12  14
ENDBRANCH   8  12
ENDBRANCH   1   9
BRANCH   5  23
ATOM     23  S   UNL     1       5.703  -2.861   8.028  0.00  0.00    +0.060 S 
ATOM     24  O   UNL     1       4.939  -2.544   9.184  0.00  0.00    -0.153 OA
ATOM     25  O   UNL     1       6.146  -4.182   7.747  0.00  0.00    -0.153 OA
BRANCH  23  26
ATOM     26  N   UNL     1       7.057  -1.908   8.080  0.00  0.00    -0.183 NA
ATOM     27  H   UNL     1       7.933  -2.303   7.945  0.00  0.00    +0.148 HD
BRANCH  26  28
ATOM     28  C   UNL     1       6.931  -0.470   8.328  0.00  0.00    +0.180 C 
BRANCH  28  29
ATOM     29  C   UNL     1       8.279   0.097   8.690  0.00  0.00    +0.120 A 
ATOM     30  C   UNL     1       9.182   0.593   7.825  0.00  0.00    +0.046 A 
ATOM     31  C   UNL     1      10.295   1.012   8.589  0.00  0.00    +0.041 A 
ATOM     32  C   UNL     1      10.006   0.747   9.876  0.00  0.00    +0.195 A 
ATOM     33  O   UNL     1       8.781   0.198   9.932  0.00  0.00    -0.466 OA
ENDBRANCH  28  29
ENDBRANCH  26  28
ENDBRANCH  23  26
ENDBRANCH   5  23
TORSDOF 11
