REMARK  Name = ZINC65429150
REMARK  6 active torsions:
REMARK  status: ('A' for Active; 'I' for Inactive)
REMARK    1  A    between atoms: C_1  and  C_2
REMARK    2  A    between atoms: C_4  and  C_27
REMARK    3  A    between atoms: C_7  and  C_13
REMARK    4  A    between atoms: C_9  and  C_12
REMARK    5  A    between atoms: N_15  and  C_16
REMARK    6  A    between atoms: C_16  and  C_17
REMARK                            x       y       z     vdW  Elec       q    Type
REMARK                         _______ _______ _______ _____ _____    ______ ____
ROOT
ATOM      1  C   UNL     1      -1.156  -5.200   1.853  0.00  0.00    +0.240 C 
ATOM      2  O   UNL     1      -2.119  -5.224   1.115  0.00  0.00    -0.273 OA
ATOM      3  N   UNL     1      -1.181  -5.883   3.014  0.00  0.00    -0.306 N 
ATOM      4  H   UNL     1      -0.411  -5.865   3.604  0.00  0.00    +0.149 HD
ENDROOT
BRANCH   1  11
ATOM      5  C   UNL     1      -0.018   1.503   0.010  0.00  0.00    +0.044 C 
ATOM      6  C   UNL     1       0.002  -0.004   0.002  0.00  0.00    -0.050 A 
ATOM      7  C   UNL     1       0.005  -0.680  -1.226  0.00  0.00    +0.008 A 
ATOM      8  C   UNL     1       0.023  -2.026  -1.317  0.00  0.00    -0.027 A 
ATOM      9  C   UNL     1       0.039  -2.826  -0.141  0.00  0.00    +0.046 A 
ATOM     10  N   UNL     1       0.057  -4.126   0.030  0.00  0.00    -0.370 N 
ATOM     11  C   UNL     1       0.067  -4.408   1.470  0.00  0.00    +0.193 C 
ATOM     12  C   UNL     1       0.052  -3.060   2.156  0.00  0.00    -0.033 C 
ATOM     13  C   UNL     1       0.036  -2.137   1.168  0.00  0.00    -0.000 A 
ATOM     14  C   UNL     1       0.022  -0.669   1.180  0.00  0.00    +0.013 A 
ATOM     15  C   UNL     1       0.055  -2.799   3.641  0.00  0.00    +0.042 C 
ATOM     16  C   UNL     1       0.026  -2.686  -2.672  0.00  0.00    +0.046 C 
ATOM     17  H   UNL     1       0.062  -4.790  -0.677  0.00  0.00    +0.161 HD
ENDBRANCH   1  11
BRANCH   3  18
ATOM     18  C   UNL     1      -2.370  -6.654   3.386  0.00  0.00    +0.180 C 
BRANCH  18  19
ATOM     19  C   UNL     1      -2.141  -7.318   4.720  0.00  0.00    +0.151 A 
ATOM     20  N   UNL     1      -1.624  -8.501   4.919  0.00  0.00    -0.133 NA
ATOM     21  N   UNL     1      -1.570  -8.745   6.182  0.00  0.00    -0.134 NA
ATOM     22  C   UNL     1      -2.046  -7.728   6.842  0.00  0.00    +0.133 A 
ATOM     23  N   UNL     1      -2.427  -6.799   5.934  0.00  0.00    -0.314 N 
ATOM     24  C   UNL     1      -3.042  -5.502   6.220  0.00  0.00    +0.125 C 
ATOM     25  C   UNL     1      -2.585  -5.016   7.598  0.00  0.00    +0.022 C 
ATOM     26  C   UNL     1      -3.542  -5.534   8.671  0.00  0.00    +0.002 C 
ATOM     27  C   UNL     1      -3.543  -7.059   8.694  0.00  0.00    +0.008 C 
ATOM     28  C   UNL     1      -2.154  -7.582   8.338  0.00  0.00    +0.076 C 
ENDBRANCH  18  19
ENDBRANCH   3  18
TORSDOF 3
