REMARK  Name = ZINC61190258
REMARK  8 active torsions:
REMARK  status: ('A' for Active; 'I' for Inactive)
REMARK    1  A    between atoms: C_1  and  C_2
REMARK    2  A    between atoms: C_2  and  N_3
REMARK    3  A    between atoms: C_4  and  C_6
REMARK    4  A    between atoms: C_6  and  O_7
REMARK    5  A    between atoms: O_7  and  C_8
REMARK    6  A    between atoms: C_11  and  C_16
REMARK    7  A    between atoms: C_13  and  O_14
REMARK    8  A    between atoms: O_14  and  C_15
REMARK                            x       y       z     vdW  Elec       q    Type
REMARK                         _______ _______ _______ _____ _____    ______ ____
ROOT
ATOM      1  C   UNL     1       2.004  -4.241  -3.865  0.00  0.00    +0.163 A 
ATOM      2  C   UNL     1       2.334  -3.537  -5.016  0.00  0.00    +0.050 A 
ATOM      3  C   UNL     1       2.994  -4.165  -6.048  0.00  0.00    +0.012 A 
ATOM      4  C   UNL     1       3.336  -5.520  -5.937  0.00  0.00    -0.021 A 
ATOM      5  C   UNL     1       3.003  -6.229  -4.775  0.00  0.00    +0.057 A 
ATOM      6  C   UNL     1       2.345  -5.588  -3.745  0.00  0.00    +0.162 A 
ENDROOT
BRANCH   4   7
ATOM      7  C   UNL     1       4.039  -6.193  -7.033  0.00  0.00    +0.023 C 
ATOM      8  C   UNL     1       5.006  -5.530  -7.733  0.00  0.00    +0.071 C 
ATOM      9  C   UNL     1       5.696  -5.969  -8.969  0.00  0.00    +0.031 A 
ATOM     10  C   UNL     1       5.598  -7.106  -9.763  0.00  0.00    +0.012 A 
ATOM     11  C   UNL     1       6.397  -7.230 -10.882  0.00  0.00    +0.001 A 
ATOM     12  C   UNL     1       7.290  -6.224 -11.209  0.00  0.00    +0.004 A 
ATOM     13  C   UNL     1       7.393  -5.092 -10.426  0.00  0.00    +0.047 A 
ATOM     14  C   UNL     1       6.597  -4.949  -9.296  0.00  0.00    +0.140 A 
ATOM     15  O   UNL     1       6.511  -3.955  -8.382  0.00  0.00    -0.422 OA
ATOM     16  C   UNL     1       5.596  -4.215  -7.434  0.00  0.00    +0.345 C 
ATOM     17  O   UNL     1       5.308  -3.494  -6.497  0.00  0.00    -0.245 OA
ENDBRANCH   4   7
BRANCH   6  18
ATOM     18  O   UNL     1       2.025  -6.272  -2.613  0.00  0.00    -0.491 OA
ATOM     19  C   UNL     1       2.404  -7.648  -2.558  0.00  0.00    +0.277 C 
ENDBRANCH   6  18
BRANCH   1  20
ATOM     20  O   UNL     1       1.352  -3.615  -2.852  0.00  0.00    -0.479 OA
BRANCH  20  21
ATOM     21  C   UNL     1       1.033  -2.235  -3.041  0.00  0.00    +0.324 C 
BRANCH  21  23
ATOM     22  N   UNL     1      -0.084  -0.427  -1.774  0.00  0.00    -0.313 N 
ATOM     23  C   UNL     1       0.317  -1.713  -1.822  0.00  0.00    +0.251 C 
ATOM     24  O   UNL     1       0.101  -2.451  -0.884  0.00  0.00    -0.272 OA
ATOM     25  H   UNL     1       0.089   0.163  -2.525  0.00  0.00    +0.149 HD
BRANCH  22  27
ATOM     26  C   UNL     1      -1.122   1.557  -0.792  0.00  0.00    +0.024 C 
ATOM     27  C   UNL     1      -0.780   0.080  -0.589  0.00  0.00    +0.101 C 
ENDBRANCH  22  27
ENDBRANCH  21  23
ENDBRANCH  20  21
ENDBRANCH   1  20
TORSDOF 6
