REMARK  Name = ZINC33587739
REMARK  12 active torsions:
REMARK  status: ('A' for Active; 'I' for Inactive)
REMARK    1  A    between atoms: C_1  and  C_2
REMARK    2  A    between atoms: C_2  and  C_3
REMARK    3  A    between atoms: C_2  and  C_4
REMARK    4  A    between atoms: C_4  and  C_5
REMARK    5  A    between atoms: C_5  and  C_30
REMARK    6  A    between atoms: C_10  and  C_13
REMARK    7  A    between atoms: C_15  and  O_20
REMARK    8  A    between atoms: C_17  and  O_19
REMARK    9  A    between atoms: N_23  and  C_26
REMARK   10  A    between atoms: C_26  and  C_27
REMARK   11  A    between atoms: C_26  and  C_28
REMARK   12  A    between atoms: C_26  and  C_29
REMARK                            x       y       z     vdW  Elec       q    Type
REMARK                         _______ _______ _______ _____ _____    ______ ____
ROOT
ATOM      1  C   UNL     1      -0.578   2.134   1.282  0.00  0.00    +0.048 C 
ATOM      2  C   UNL     1      -0.534   3.598   1.429  0.00  0.00    +0.086 C 
ATOM      3  C   UNL     1      -0.741   3.776   2.983  0.00  0.00    +0.077 C 
ATOM      4  C   UNL     1       0.268   2.748   3.467  0.00  0.00    -0.026 C 
ATOM      5  N   UNL     1       0.262   1.664   2.438  0.00  0.00    +0.395 N 
ATOM      6  C   UNL     1      -0.458   5.243   3.049  0.00  0.00    +0.225 C 
ATOM      7  O   UNL     1       0.067   5.845   3.961  0.00  0.00    -0.275 OA
ATOM      8  N   UNL     1      -0.912   5.766   1.871  0.00  0.00    -0.236 N 
ATOM      9  C   UNL     1      -1.141   4.805   0.918  0.00  0.00    +0.225 C 
ATOM     10  O   UNL     1      -1.738   4.932  -0.130  0.00  0.00    -0.275 OA
ATOM     11  H   UNL     1      -0.172   0.744   2.856  0.00  0.00    -0.083 HD
ATOM     12  H   UNL     1       1.285   1.462   2.090  0.00  0.00    -0.083 HD
ENDROOT
BRANCH   4  13
ATOM     13  C   UNL     1       1.639   3.366   3.563  0.00  0.00    -0.054 A 
ATOM     14  C   UNL     1       2.445   3.435   2.443  0.00  0.00    +0.047 A 
ATOM     15  C   UNL     1       3.706   4.008   2.529  0.00  0.00    +0.121 A 
ATOM     16  C   UNL     1       4.161   4.503   3.741  0.00  0.00    +0.090 A 
ATOM     17  C   UNL     1       3.352   4.428   4.865  0.00  0.00    +0.121 A 
ATOM     18  C   UNL     1       2.090   3.858   4.773  0.00  0.00    +0.047 A 
BRANCH  17  19
ATOM     19  O   UNL     1       3.795   4.912   6.055  0.00  0.00    -0.507 OA
ATOM     20  H   UNL     1       3.153   4.853   6.946  0.00  0.00    +0.292 HD
ENDBRANCH  17  19
BRANCH  15  21
ATOM     21  O   UNL     1       4.497   4.080   1.426  0.00  0.00    -0.507 OA
ATOM     22  H   UNL     1       5.496   4.535   1.494  0.00  0.00    +0.292 HD
ENDBRANCH  15  21
ENDBRANCH   4  13
BRANCH   8  23
ATOM     23  C   UNL     1      -1.131   7.198   1.649  0.00  0.00    +0.036 C 
ATOM     24  C   UNL     1      -0.774   7.971   2.920  0.00  0.00    +0.031 C 
ATOM     25  C   UNL     1      -0.247   7.676   0.496  0.00  0.00    +0.031 C 
ATOM     26  C   UNL     1      -2.601   7.441   1.299  0.00  0.00    +0.031 C 
ENDBRANCH   8  23
BRANCH   1  27
ATOM     27  C   UNL     1      -1.991   1.625   1.405  0.00  0.00    +0.346 C 
ATOM     28  O   UNL     1      -2.918   2.337   1.100  0.00  0.00    -0.248 OA
ATOM     29  O   UNL     1      -2.219   0.380   1.851  0.00  0.00    -0.248 OA
ENDBRANCH   1  27
BRANCH   1  30
ATOM     30  C   UNL     1       0.040   1.702  -0.049  0.00  0.00    +0.002 C 
BRANCH  30  32
ATOM     31  C   UNL     1       0.402  -0.237  -1.584  0.00  0.00    +0.007 C 
ATOM     32  C   UNL     1      -0.045   0.179  -0.181  0.00  0.00    -0.018 C 
ATOM     33  C   UNL     1       0.867  -0.474   0.859  0.00  0.00    +0.007 C 
ENDBRANCH  30  32
ENDBRANCH   1  30
TORSDOF 7
