REMARK  Name = ZINC39359398
REMARK  4 active torsions:
REMARK  status: ('A' for Active; 'I' for Inactive)
REMARK    1  A    between atoms: C_6  and  N_7
REMARK    2  A    between atoms: C_9  and  N_20
REMARK    3  A    between atoms: C_10  and  C_18
REMARK    4  A    between atoms: C_11  and  C_13
REMARK                            x       y       z     vdW  Elec       q    Type
REMARK                         _______ _______ _______ _____ _____    ______ ____
ROOT
ATOM      1  C   UNL     1      -0.008   1.349   0.052  0.00  0.00    +0.023 A 
ATOM      2  C   UNL     1       1.172   2.067   0.030  0.00  0.00    +0.010 A 
ATOM      3  C   UNL     1       2.388   1.408   0.002  0.00  0.00    +0.007 A 
ATOM      4  C   UNL     1       2.427   0.022  -0.004  0.00  0.00    +0.136 A 
ATOM      5  C   UNL     1       1.243  -0.702   0.018  0.00  0.00    +0.069 A 
ATOM      6  C   UNL     1       0.024  -0.040   0.046  0.00  0.00    +0.028 A 
ATOM      7  O   UNL     1       3.610  -0.640  -0.032  0.00  0.00    -0.441 OA
ATOM      8  C   UNL     1       4.740  -0.010   0.329  0.00  0.00    +0.198 C 
ATOM      9  C   UNL     1       4.830   1.341   0.355  0.00  0.00    +0.098 C 
ATOM     10  C   UNL     1       3.663   2.210  -0.022  0.00  0.00    +0.114 C 
ENDROOT
BRANCH  10  11
ATOM     11  C   UNL     1       3.552   3.368   0.971  0.00  0.00    +0.233 C 
ATOM     12  N   UNL     1       2.577   4.356   0.490  0.00  0.00    -0.263 NA
ATOM     13  C   UNL     1       3.208   5.470   0.331  0.00  0.00    +0.126 C 
ATOM     14  C   UNL     1       4.624   5.296   0.692  0.00  0.00    +0.126 C 
ATOM     15  N   UNL     1       4.834   4.079   1.065  0.00  0.00    -0.263 NA
ENDBRANCH  10  11
BRANCH   6  16
ATOM     16  N   UNL     1      -1.168  -0.767   0.068  0.00  0.00    -0.358 N 
ATOM     17  H   UNL     1      -2.019  -0.303   0.088  0.00  0.00    +0.142 HD
ATOM     18  H   UNL     1      -1.144  -1.737   0.063  0.00  0.00    +0.142 HD
ENDBRANCH   6  16
BRANCH   8  19
ATOM     19  N   UNL     1       5.836  -0.757   0.682  0.00  0.00    -0.328 N 
ATOM     20  H   UNL     1       5.787  -1.726   0.668  0.00  0.00    +0.145 HD
ATOM     21  H   UNL     1       6.659  -0.317   0.945  0.00  0.00    +0.145 HD
ENDBRANCH   8  19
BRANCH   9  22
ATOM     22  C   UNL     1       6.062   1.954   0.750  0.00  0.00    +0.101 C 
ATOM     23  N   UNL     1       7.040   2.441   1.063  0.00  0.00    -0.191 NA
ENDBRANCH   9  22
TORSDOF 4
