REMARK  Name = ZINC45820491
REMARK  10 active torsions:
REMARK  status: ('A' for Active; 'I' for Inactive)
REMARK    1  A    between atoms: C_1  and  C_2
REMARK    2  A    between atoms: C_2  and  C_3
REMARK    3  A    between atoms: C_6  and  C_9
REMARK    4  A    between atoms: C_9  and  C_11
REMARK    5  A    between atoms: C_9  and  N_29
REMARK    6  A    between atoms: C_11  and  N_12
REMARK    7  A    between atoms: C_13  and  C_15
REMARK    8  A    between atoms: C_15  and  N_16
REMARK    9  A    between atoms: N_29  and  C_30
REMARK   10  A    between atoms: N_29  and  C_31
REMARK                            x       y       z     vdW  Elec       q    Type
REMARK                         _______ _______ _______ _____ _____    ______ ____
ROOT
ATOM      1  N   UNL     1       3.397  -3.976   3.550  0.00  0.00    -0.315 N 
ATOM      2  C   UNL     1       3.409  -5.310   3.358  0.00  0.00    +0.233 C 
ATOM      3  O   UNL     1       2.937  -6.047   4.198  0.00  0.00    -0.274 OA
ATOM      4  H   UNL     1       3.774  -3.386   2.878  0.00  0.00    +0.149 HD
ENDROOT
BRANCH   1   5
ATOM      5  C   UNL     1       2.813  -3.416   4.771  0.00  0.00    +0.093 C 
BRANCH   5   6
ATOM      6  C   UNL     1       2.807  -1.889   4.680  0.00  0.00    -0.021 C 
BRANCH   6  10
ATOM      7  C   UNL     1       0.203  -0.664   1.523  0.00  0.00    -0.048 A 
ATOM      8  C   UNL     1       1.569  -0.704   1.316  0.00  0.00    +0.004 A 
ATOM      9  C   UNL     1       2.412  -1.100   2.338  0.00  0.00    +0.002 A 
ATOM     10  C   UNL     1       1.888  -1.456   3.567  0.00  0.00    -0.059 A 
ATOM     11  C   UNL     1       0.522  -1.415   3.774  0.00  0.00    +0.002 A 
ATOM     12  C   UNL     1      -0.320  -1.015   2.753  0.00  0.00    +0.004 A 
BRANCH   7  14
ATOM     13  C   UNL     1      -0.914   1.284   0.471  0.00  0.00    +0.009 C 
ATOM     14  C   UNL     1      -0.715  -0.232   0.409  0.00  0.00    +0.032 C 
ENDBRANCH   7  14
ENDBRANCH   6  10
BRANCH   6  15
ATOM     15  N   UNL     1       2.335  -1.325   5.952  0.00  0.00    +0.382 N 
ATOM     16  C   UNL     1       3.240  -1.732   7.035  0.00  0.00    -0.096 C 
ATOM     17  C   UNL     1       2.312   0.141   5.858  0.00  0.00    -0.096 C 
ATOM     18  H   UNL     1       1.404  -1.664   6.146  0.00  0.00    -0.082 HD
ENDBRANCH   6  15
ENDBRANCH   5   6
ENDBRANCH   1   5
BRANCH   2  19
ATOM     19  C   UNL     1       4.009  -5.886   2.102  0.00  0.00    +0.222 C 
BRANCH  19  20
ATOM     20  N   UNL     1       3.900  -7.346   2.133  0.00  0.00    -0.285 N 
ATOM     21  C   UNL     1       4.920  -8.099   2.697  0.00  0.00    +0.059 A 
ATOM     22  C   UNL     1       6.050  -7.503   3.236  0.00  0.00    +0.027 A 
ATOM     23  C   UNL     1       7.043  -8.289   3.787  0.00  0.00    +0.002 A 
ATOM     24  C   UNL     1       6.921  -9.670   3.807  0.00  0.00    +0.001 A 
ATOM     25  C   UNL     1       5.804 -10.280   3.276  0.00  0.00    +0.015 A 
ATOM     26  C   UNL     1       4.796  -9.499   2.718  0.00  0.00    +0.063 A 
ATOM     27  C   UNL     1       3.582 -10.100   2.136  0.00  0.00    +0.262 A 
ATOM     28  O   UNL     1       3.425 -11.306   2.129  0.00  0.00    -0.267 OA
ATOM     29  N   UNL     1       2.648  -9.276   1.612  0.00  0.00    -0.274 N 
ATOM     30  H   UNL     1       1.843  -9.655   1.226  0.00  0.00    +0.173 HD
ATOM     31  C   UNL     1       2.811  -7.944   1.621  0.00  0.00    +0.330 A 
ATOM     32  O   UNL     1       1.937  -7.248   1.140  0.00  0.00    -0.246 OA
ENDBRANCH  19  20
ENDBRANCH   2  19
TORSDOF 7
