REMARK  Name = ZINC40372747
REMARK  6 active torsions:
REMARK  status: ('A' for Active; 'I' for Inactive)
REMARK    1  A    between atoms: C_1  and  C_2
REMARK    2  A    between atoms: C_2  and  C_3
REMARK    3  A    between atoms: C_6  and  C_9
REMARK    4  A    between atoms: C_6  and  N_13
REMARK    5  A    between atoms: N_10  and  O_11
REMARK    6  A    between atoms: C_14  and  C_16
REMARK                            x       y       z     vdW  Elec       q    Type
REMARK                         _______ _______ _______ _____ _____    ______ ____
ROOT
ATOM      1  C   UNL     1       0.680  -0.552   1.218  0.00  0.00    -0.011 C 
ATOM      2  C   UNL     1       2.140  -0.096   1.182  0.00  0.00    +0.006 C 
ATOM      3  C   UNL     1       2.823  -0.666  -0.063  0.00  0.00    +0.034 C 
ATOM      4  C   UNL     1       2.766  -2.195  -0.020  0.00  0.00    +0.093 C 
ATOM      5  C   UNL     1       1.306  -2.650   0.015  0.00  0.00    +0.034 C 
ATOM      6  C   UNL     1       0.624  -2.080   1.260  0.00  0.00    +0.006 C 
ENDROOT
BRANCH   4   7
ATOM      7  C   UNL     1       3.438  -2.757  -1.247  0.00  0.00    +0.155 C 
ATOM      8  N   UNL     1       3.859  -1.962  -2.174  0.00  0.00    -0.075 NA
ATOM      9  N   UNL     1       3.604  -4.117  -1.379  0.00  0.00    -0.342 N 
ATOM     10  H   UNL     1       3.224  -4.718  -0.719  0.00  0.00    +0.144 HD
ATOM     11  H   UNL     1       4.100  -4.475  -2.132  0.00  0.00    +0.144 HD
BRANCH   8  12
ATOM     12  O   UNL     1       4.490  -2.489  -3.326  0.00  0.00    -0.408 OA
ATOM     13  H   UNL     1       4.771  -1.818  -3.963  0.00  0.00    +0.328 HD
ENDBRANCH   8  12
ENDBRANCH   4   7
BRANCH   4  14
ATOM     14  N   UNL     1       3.457  -2.676   1.179  0.00  0.00    -0.303 N 
ATOM     15  C   UNL     1       4.739  -2.326   1.404  0.00  0.00    +0.217 C 
ATOM     16  O   UNL     1       5.352  -1.698   0.567  0.00  0.00    -0.275 OA
ATOM     17  H   UNL     1       2.991  -3.246   1.810  0.00  0.00    +0.150 HD
BRANCH  15  18
ATOM     18  C   UNL     1       5.410  -2.716   2.696  0.00  0.00    +0.075 C 
ATOM     19  C   UNL     1       4.648  -2.103   3.872  0.00  0.00    +0.013 C 
ATOM     20  C   UNL     1       5.330  -2.499   5.183  0.00  0.00    +0.001 C 
ATOM     21  C   UNL     1       6.770  -1.983   5.185  0.00  0.00    +0.000 C 
ATOM     22  C   UNL     1       7.532  -2.596   4.008  0.00  0.00    +0.001 C 
ATOM     23  C   UNL     1       6.851  -2.201   2.697  0.00  0.00    +0.013 C 
ENDBRANCH  15  18
ENDBRANCH   4  14
BRANCH   1  25
ATOM     24  C   UNL     1      -0.094   1.480  -0.014  0.00  0.00    +0.004 C 
ATOM     25  C   UNL     1      -0.041  -0.049  -0.035  0.00  0.00    -0.000 C 
ENDBRANCH   1  25
TORSDOF 5
