REMARK  Name = ZINC33331895
REMARK  8 active torsions:
REMARK  status: ('A' for Active; 'I' for Inactive)
REMARK    1  A    between atoms: C_1  and  C_2
REMARK    2  A    between atoms: C_11  and  C_24
REMARK    3  A    between atoms: C_11  and  C_25
REMARK    4  A    between atoms: N_12  and  C_15
REMARK    5  A    between atoms: C_15  and  C_16
REMARK    6  A    between atoms: C_16  and  C_17
REMARK    7  A    between atoms: C_17  and  N_18
REMARK    8  A    between atoms: N_27  and  C_28
REMARK                            x       y       z     vdW  Elec       q    Type
REMARK                         _______ _______ _______ _____ _____    ______ ____
ROOT
ATOM      1  C   UNL     1      -0.454  -3.633  -0.021  0.00  0.00    +0.086 C 
ATOM      2  C   UNL     1       0.030  -2.206  -0.014  0.00  0.00    +0.105 A 
ATOM      3  C   UNL     1       1.319  -1.823  -0.021  0.00  0.00    +0.071 A 
ATOM      4  C   UNL     1       1.337  -0.408  -0.009  0.00  0.00    +0.088 A 
ATOM      5  C   UNL     1       0.002  -0.004   0.002  0.00  0.00    +0.154 A 
ATOM      6  O   UNL     1      -0.759  -1.119   0.002  0.00  0.00    -0.458 OA
ATOM      7  C   UNL     1      -0.017   1.399   0.010  0.00  0.00    +0.079 A 
ATOM      8  C   UNL     1       1.277   1.826  -0.000  0.00  0.00    +0.109 A 
ATOM      9  N   UNL     1       2.113   0.712  -0.002  0.00  0.00    -0.331 N 
ATOM     10  C   UNL     1       3.573   0.846   0.016  0.00  0.00    +0.157 C 
ATOM     11  C   UNL     1       3.963   2.151  -0.678  0.00  0.00    +0.128 C 
ATOM     12  N   UNL     1       3.169   3.286  -0.223  0.00  0.00    -0.281 N 
ATOM     13  C   UNL     1       1.838   3.183   0.005  0.00  0.00    +0.264 C 
ATOM     14  O   UNL     1       1.144   4.163   0.204  0.00  0.00    -0.268 OA
ATOM     15  C   UNL     1       5.440   2.436  -0.397  0.00  0.00    +0.043 C 
ENDROOT
BRANCH  11  16
ATOM     16  C   UNL     1       3.774   1.988  -2.164  0.00  0.00    +0.238 C 
ATOM     17  O   UNL     1       4.697   1.614  -2.857  0.00  0.00    -0.273 OA
ATOM     18  N   UNL     1       2.578   2.259  -2.725  0.00  0.00    -0.311 N 
ATOM     19  H   UNL     1       1.741   2.598  -2.097  0.00  0.00    +0.149 HD
BRANCH  18  20
ATOM     20  C   UNL     1       2.393   2.101  -4.169  0.00  0.00    +0.073 C 
ATOM     21  C   UNL     1       2.851   3.373  -4.884  0.00  0.00    +0.022 C 
ATOM     22  C   UNL     1       2.659   3.208  -6.393  0.00  0.00    +0.002 C 
ATOM     23  C   UNL     1       1.179   2.958  -6.694  0.00  0.00    +0.000 C 
ATOM     24  C   UNL     1       0.721   1.686  -5.979  0.00  0.00    +0.002 C 
ATOM     25  C   UNL     1       0.914   1.851  -4.470  0.00  0.00    +0.022 C 
ENDBRANCH  18  20
ENDBRANCH  11  16
BRANCH  12  26
ATOM     26  C   UNL     1       3.830   4.575  -0.005  0.00  0.00    +0.107 C 
BRANCH  26  27
ATOM     27  C   UNL     1       4.323   4.657   1.441  0.00  0.00    +0.000 C 
BRANCH  27  28
ATOM     28  C   UNL     1       5.013   6.003   1.669  0.00  0.00    -0.077 C 
BRANCH  28  29
ATOM     29  N   UNL     1       5.487   6.082   3.057  0.00  0.00    +0.380 N 
ATOM     30  C   UNL     1       4.359   6.098   3.998  0.00  0.00    -0.079 C 
ATOM     31  C   UNL     1       4.889   6.034   5.432  0.00  0.00    -0.019 C 
ATOM     32  C   UNL     1       5.807   7.233   5.687  0.00  0.00    -0.004 C 
ATOM     33  C   UNL     1       6.946   7.219   4.663  0.00  0.00    -0.019 C 
ATOM     34  C   UNL     1       6.357   7.249   3.251  0.00  0.00    -0.079 C 
ATOM     35  H   UNL     1       6.083   5.181   3.265  0.00  0.00    -0.082 HD
ENDBRANCH  28  29
ENDBRANCH  27  28
ENDBRANCH  26  27
ENDBRANCH  12  26
TORSDOF 6
