REMARK  Name = ZINC11507271
REMARK  12 active torsions:
REMARK  status: ('A' for Active; 'I' for Inactive)
REMARK    1  A    between atoms: C_1  and  C_2
REMARK    2  A    between atoms: C_2  and  C_3
REMARK    3  A    between atoms: C_2  and  C_4
REMARK    4  A    between atoms: C_4  and  C_6
REMARK    5  A    between atoms: C_4  and  N_20
REMARK    6  A    between atoms: N_8  and  N_9
REMARK    7  A    between atoms: N_9  and  C_10
REMARK    8  A    between atoms: C_10  and  N_12
REMARK    9  A    between atoms: N_12  and  C_13
REMARK   10  A    between atoms: C_13  and  C_14
REMARK   11  A    between atoms: C_14  and  C_15
REMARK   12  A    between atoms: C_21  and  C_23
REMARK                            x       y       z     vdW  Elec       q    Type
REMARK                         _______ _______ _______ _____ _____    ______ ____
ROOT
ATOM      1  C   UNL     1       3.753   1.870   0.281  0.00  0.00    +0.250 C 
ATOM      2  O   UNL     1       3.856   3.078   0.259  0.00  0.00    -0.272 OA
ATOM      3  N   UNL     1       4.830   1.106   0.552  0.00  0.00    -0.234 N 
ATOM      4  H   UNL     1       4.766   0.140   0.498  0.00  0.00    +0.173 HD
ENDROOT
BRANCH   3   5
ATOM      5  N   UNL     1       6.043   1.709   0.910  0.00  0.00    -0.246 N 
ATOM      6  H   UNL     1       6.108   2.675   0.964  0.00  0.00    +0.172 HD
BRANCH   5   7
ATOM      7  C   UNL     1       7.121   0.945   1.181  0.00  0.00    +0.147 C 
ATOM      8  S   UNL     1       8.603   1.681   1.619  0.00  0.00    -0.017 S 
BRANCH   7   9
ATOM      9  N   UNL     1       7.031  -0.397   1.107  0.00  0.00    -0.325 N 
ATOM     10  H   UNL     1       6.191  -0.814   0.858  0.00  0.00    +0.148 HD
BRANCH   9  11
ATOM     11  C   UNL     1       8.202  -1.227   1.401  0.00  0.00    +0.108 C 
BRANCH  11  12
ATOM     12  C   UNL     1       7.833  -2.704   1.244  0.00  0.00    +0.061 C 
BRANCH  12  13
ATOM     13  C   UNL     1       9.038  -3.557   1.546  0.00  0.00    -0.009 A 
ATOM     14  C   UNL     1       9.442  -4.074   2.732  0.00  0.00    +0.011 A 
ATOM     15  C   UNL     1      10.591  -4.840   2.773  0.00  0.00    +0.008 A 
ATOM     16  C   UNL     1      11.286  -5.044   1.627  0.00  0.00    +0.045 A 
ATOM     17  S   UNL     1      10.307  -4.144   0.436  0.00  0.00    -0.102 S 
ENDBRANCH  12  13
ENDBRANCH  11  12
ENDBRANCH   9  11
ENDBRANCH   7   9
ENDBRANCH   5   7
ENDBRANCH   3   5
BRANCH   1  18
ATOM     18  C   UNL     1       2.421   1.222   0.006  0.00  0.00    +0.163 C 
BRANCH  18  19
ATOM     19  N   UNL     1       1.344   2.135   0.398  0.00  0.00    -0.300 N 
ATOM     20  C   UNL     1       0.132   1.646   0.727  0.00  0.00    +0.246 C 
ATOM     21  O   UNL     1      -0.068   0.447   0.699  0.00  0.00    -0.270 OA
ATOM     22  H   UNL     1       1.503   3.091   0.420  0.00  0.00    +0.150 HD
BRANCH  20  23
ATOM     23  C   UNL     1      -0.956   2.567   1.116  0.00  0.00    +0.055 A 
ATOM     24  C   UNL     1      -0.729   3.944   1.155  0.00  0.00    +0.014 A 
ATOM     25  C   UNL     1      -1.750   4.799   1.514  0.00  0.00    +0.001 A 
ATOM     26  C   UNL     1      -2.995   4.294   1.846  0.00  0.00    +0.001 A 
ATOM     27  C   UNL     1      -3.227   2.932   1.815  0.00  0.00    +0.021 A 
ATOM     28  C   UNL     1      -2.215   2.064   1.452  0.00  0.00    +0.053 A 
ATOM     29 CL   UNL     1      -2.507   0.353   1.415  0.00  0.00    -0.083 Cl
ENDBRANCH  20  23
ENDBRANCH  18  19
BRANCH  18  31
ATOM     30  C   UNL     1       3.399  -0.084  -1.885  0.00  0.00    +0.009 C 
ATOM     31  C   UNL     1       2.305   0.907  -1.486  0.00  0.00    +0.012 C 
ATOM     32  C   UNL     1       0.932   0.295  -1.774  0.00  0.00    +0.009 C 
ENDBRANCH  18  31
ENDBRANCH   1  18
TORSDOF 10
