REMARK  Name = ZINC65404940
REMARK  7 active torsions:
REMARK  status: ('A' for Active; 'I' for Inactive)
REMARK    1  A    between atoms: C_1  and  C_2
REMARK    2  A    between atoms: C_2  and  C_3
REMARK    3  A    between atoms: C_2  and  C_4
REMARK    4  A    between atoms: C_2  and  C_5
REMARK    5  A    between atoms: N_8  and  C_10
REMARK    6  A    between atoms: C_15  and  C_17
REMARK    7  A    between atoms: C_17  and  N_18
REMARK                            x       y       z     vdW  Elec       q    Type
REMARK                         _______ _______ _______ _____ _____    ______ ____
ROOT
ATOM      1  C   UNL     1       0.244   0.028  -1.579  0.00  0.00    +0.074 A 
ATOM      2  C   UNL     1      -0.283  -1.072  -2.240  0.00  0.00    +0.021 A 
ATOM      3  C   UNL     1       0.157  -1.037  -3.536  0.00  0.00    +0.127 A 
ATOM      4  N   UNL     1       0.939   0.044  -3.672  0.00  0.00    -0.253 N 
ATOM      5  N   UNL     1       0.974   0.706  -2.434  0.00  0.00    -0.174 NA
ATOM      6  C   UNL     1       1.629   0.462  -4.895  0.00  0.00    +0.174 C 
ATOM      7  N   UNL     1      -0.219  -2.004  -4.468  0.00  0.00    -0.270 N 
ATOM      8  C   UNL     1      -1.193  -2.873  -4.124  0.00  0.00    +0.219 C 
ATOM      9  O   UNL     1      -1.403  -3.832  -4.837  0.00  0.00    -0.275 OA
ATOM     10  C   UNL     1      -2.025  -2.691  -2.886  0.00  0.00    +0.106 C 
ATOM     11  C   UNL     1      -1.179  -2.167  -1.721  0.00  0.00    +0.053 C 
ATOM     12  H   UNL     1       0.206  -2.050  -5.339  0.00  0.00    +0.156 HD
ENDROOT
BRANCH   1  14
ATOM     13  C   UNL     1       0.998   1.480   0.283  0.00  0.00    +0.017 C 
ATOM     14  C   UNL     1       0.014   0.386  -0.134  0.00  0.00    +0.007 C 
ATOM     15  C   UNL     1       0.229  -0.853   0.739  0.00  0.00    +0.017 C 
ATOM     16  C   UNL     1      -1.418   0.893   0.044  0.00  0.00    +0.017 C 
ENDBRANCH   1  14
BRANCH  11  17
ATOM     17  C   UNL     1      -2.095  -1.611  -0.629  0.00  0.00    +0.137 C 
BRANCH  17  18
ATOM     18  N   UNL     1      -3.072  -2.632  -0.243  0.00  0.00    -0.274 N 
ATOM     19  C   UNL     1      -4.327  -2.831  -0.817  0.00  0.00    +0.090 A 
ATOM     20  C   UNL     1      -5.016  -2.201  -1.841  0.00  0.00    +0.030 A 
ATOM     21  C   UNL     1      -6.279  -2.638  -2.191  0.00  0.00    +0.002 A 
ATOM     22  C   UNL     1      -6.857  -3.702  -1.520  0.00  0.00    +0.004 A 
ATOM     23  C   UNL     1      -6.177  -4.335  -0.498  0.00  0.00    +0.048 A 
ATOM     24  C   UNL     1      -4.909  -3.903  -0.141  0.00  0.00    +0.157 A 
ATOM     25  O   UNL     1      -4.022  -4.317   0.797  0.00  0.00    -0.407 OA
ATOM     26  C   UNL     1      -2.919  -3.554   0.727  0.00  0.00    +0.421 A 
ATOM     27  O   UNL     1      -1.936  -3.675   1.433  0.00  0.00    -0.223 OA
ENDBRANCH  17  18
ENDBRANCH  11  17
TORSDOF 3
