REMARK  Name = ZINC47963059
REMARK  6 active torsions:
REMARK  status: ('A' for Active; 'I' for Inactive)
REMARK    1  A    between atoms: C_1  and  C_2
REMARK    2  A    between atoms: C_7  and  N_25
REMARK    3  A    between atoms: C_12  and  C_14
REMARK    4  A    between atoms: N_16  and  C_17
REMARK    5  A    between atoms: C_17  and  C_18
REMARK    6  A    between atoms: C_18  and  C_19
REMARK                            x       y       z     vdW  Elec       q    Type
REMARK                         _______ _______ _______ _____ _____    ______ ____
ROOT
ATOM      1  C   UNL     1       1.718  -2.792   1.188  0.00  0.00    +0.029 C 
ATOM      2  C   UNL     1       1.873  -1.355   0.684  0.00  0.00    +0.083 C 
ATOM      3  C   UNL     1       1.920  -1.331  -0.853  0.00  0.00    +0.059 C 
ATOM      4  C   UNL     1       0.726  -0.496  -1.256  0.00  0.00    -0.022 A 
ATOM      5  C   UNL     1       0.257  -0.128  -2.503  0.00  0.00    +0.038 A 
ATOM      6  C   UNL     1      -0.876   0.655  -2.615  0.00  0.00    +0.127 A 
ATOM      7  C   UNL     1      -1.541   1.070  -1.476  0.00  0.00    +0.034 A 
ATOM      8  C   UNL     1      -1.077   0.706  -0.230  0.00  0.00    +0.026 A 
ATOM      9  C   UNL     1       0.067  -0.085  -0.108  0.00  0.00    +0.040 A 
ATOM     10  N   UNL     1       0.697  -0.559   1.046  0.00  0.00    -0.260 N 
ATOM     11  C   UNL     1       0.285  -0.321   2.307  0.00  0.00    +0.306 C 
ATOM     12  O   UNL     1      -0.766   0.253   2.504  0.00  0.00    -0.265 OA
ENDROOT
BRANCH  11  13
ATOM     13  C   UNL     1       1.122  -0.762   3.463  0.00  0.00    +0.300 C 
ATOM     14  O   UNL     1       2.222  -1.236   3.269  0.00  0.00    -0.265 OA
ATOM     15  N   UNL     1       0.655  -0.635   4.721  0.00  0.00    -0.307 N 
ATOM     16  H   UNL     1      -0.225  -0.257   4.875  0.00  0.00    +0.149 HD
BRANCH  15  17
ATOM     17  C   UNL     1       1.476  -1.069   5.854  0.00  0.00    +0.109 C 
BRANCH  17  18
ATOM     18  C   UNL     1       0.718  -0.816   7.159  0.00  0.00    +0.049 C 
BRANCH  18  19
ATOM     19  C   UNL     1       1.562  -1.262   8.325  0.00  0.00    -0.072 C 
ATOM     20  C   UNL     1       2.285  -0.372   8.926  0.00  0.00    -0.028 C 
ATOM     21  C   UNL     1       3.183  -0.666  10.092  0.00  0.00    +0.027 C 
ATOM     22  C   UNL     1       2.808  -2.010  10.720  0.00  0.00    +0.004 C 
ATOM     23  C   UNL     1       2.710  -3.057   9.603  0.00  0.00    +0.005 C 
ATOM     24  C   UNL     1       1.508  -2.708   8.721  0.00  0.00    +0.030 C 
ENDBRANCH  18  19
ENDBRANCH  17  18
ENDBRANCH  15  17
ENDBRANCH  11  13
BRANCH   6  25
ATOM     25  N   UNL     1      -1.377   1.048  -3.952  0.00  0.00    +0.056 N 
ATOM     26  O   UNL     1      -0.794   0.684  -4.947  0.00  0.00    -0.126 OA
ATOM     27  O   UNL     1      -2.368   1.734  -4.048  0.00  0.00    -0.126 OA
ENDBRANCH   6  25
TORSDOF 5
