REMARK  Name = ZINC32271468
REMARK  5 active torsions:
REMARK  status: ('A' for Active; 'I' for Inactive)
REMARK    1  A    between atoms: C_1  and  N_2
REMARK    2  A    between atoms: N_2  and  C_3
REMARK    3  A    between atoms: C_8  and  C_18
REMARK    4  A    between atoms: N_11  and  C_12
REMARK    5  A    between atoms: N_20  and  C_21
REMARK                            x       y       z     vdW  Elec       q    Type
REMARK                         _______ _______ _______ _____ _____    ______ ____
ROOT
ATOM      1  C   UNL     1      -2.039   2.766  -3.431  0.00  0.00    +0.131 C 
ATOM      2  N   UNL     1      -1.273   3.178  -2.247  0.00  0.00    -0.308 N 
ATOM      3  C   UNL     1      -1.016   4.624  -2.263  0.00  0.00    +0.131 C 
ATOM      4  C   UNL     1      -1.918   2.801  -1.083  0.00  0.00    +0.181 A 
ATOM      5  N   UNL     1      -3.142   3.120  -0.764  0.00  0.00    -0.327 N 
ATOM      6  C   UNL     1      -3.466   2.584   0.469  0.00  0.00    +0.074 A 
ATOM      7  C   UNL     1      -4.553   2.553   1.346  0.00  0.00    +0.048 A 
ATOM      8  C   UNL     1      -4.443   1.863   2.534  0.00  0.00    +0.078 A 
ATOM      9  S   UNL     1      -2.777   1.226   2.456  0.00  0.00    -0.064 S 
ATOM     10  C   UNL     1      -2.322   1.896   0.878  0.00  0.00    +0.112 A 
ATOM     11  N   UNL     1      -1.372   2.033  -0.089  0.00  0.00    -0.276 N 
ATOM     12  H   UNL     1      -3.746   3.733  -1.449  0.00  0.00    +0.169 HD
ENDROOT
BRANCH  11  13
ATOM     13  C   UNL     1      -0.079   1.494  -0.068  0.00  0.00    +0.050 A 
ATOM     14  C   UNL     1       1.024   2.334   0.001  0.00  0.00    +0.026 A 
ATOM     15  C   UNL     1       2.298   1.800   0.016  0.00  0.00    +0.002 A 
ATOM     16  C   UNL     1       2.476   0.430  -0.038  0.00  0.00    +0.000 A 
ATOM     17  C   UNL     1       1.379  -0.410  -0.106  0.00  0.00    +0.002 A 
ATOM     18  C   UNL     1       0.103   0.118  -0.121  0.00  0.00    +0.026 A 
ENDBRANCH  11  13
BRANCH   8  19
ATOM     19  C   UNL     1      -5.439   1.696   3.593  0.00  0.00    +0.255 C 
ATOM     20  O   UNL     1      -6.539   2.206   3.480  0.00  0.00    -0.269 OA
ATOM     21  N   UNL     1      -5.139   0.978   4.693  0.00  0.00    -0.281 N 
ATOM     22  H   UNL     1      -4.176   0.450   4.760  0.00  0.00    +0.155 HD
BRANCH  21  23
ATOM     23  C   UNL     1      -6.053   0.903   5.751  0.00  0.00    +0.036 A 
ATOM     24  C   UNL     1      -6.865   1.993   6.045  0.00  0.00    +0.025 A 
ATOM     25  C   UNL     1      -7.772   1.923   7.083  0.00  0.00    +0.029 A 
ATOM     26  C   UNL     1      -7.867   0.767   7.843  0.00  0.00    +0.067 A 
ATOM     27  C   UNL     1      -7.048  -0.327   7.555  0.00  0.00    +0.069 A 
ATOM     28  C   UNL     1      -6.143  -0.256   6.508  0.00  0.00    +0.051 A 
ATOM     29  N   UNL     1      -7.368  -1.323   8.475  0.00  0.00    -0.306 N 
ATOM     30  H   UNL     1      -6.845  -2.290   8.442  0.00  0.00    +0.170 HD
ATOM     31  C   UNL     1      -8.336  -0.857   9.286  0.00  0.00    +0.325 A 
ATOM     32  O   UNL     1      -8.842  -1.478  10.202  0.00  0.00    -0.247 OA
ATOM     33  N   UNL     1      -8.659   0.401   8.931  0.00  0.00    -0.306 N 
ATOM     34  H   UNL     1      -9.391   1.112   9.342  0.00  0.00    +0.170 HD
ENDBRANCH  21  23
ENDBRANCH   8  19
TORSDOF 3
