REMARK  Name = ZINC64899632
REMARK  7 active torsions:
REMARK  status: ('A' for Active; 'I' for Inactive)
REMARK    1  A    between atoms: C_1  and  O_2
REMARK    2  A    between atoms: O_2  and  C_3
REMARK    3  A    between atoms: C_3  and  C_4
REMARK    4  A    between atoms: C_4  and  N_5
REMARK    5  A    between atoms: N_8  and  N_9
REMARK    6  A    between atoms: C_10  and  C_12
REMARK    7  A    between atoms: C_12  and  C_13
REMARK                            x       y       z     vdW  Elec       q    Type
REMARK                         _______ _______ _______ _____ _____    ______ ____
ROOT
ATOM      1  N   UNL     1       2.839  -3.275  -2.351  0.00  0.00    -0.233 N 
ATOM      2  C   UNL     1       3.546  -3.665  -3.430  0.00  0.00    +0.233 C 
ATOM      3  O   UNL     1       3.640  -4.844  -3.700  0.00  0.00    -0.274 OA
ATOM      4  H   UNL     1       2.764  -2.333  -2.135  0.00  0.00    +0.173 HD
ENDROOT
BRANCH   1   8
ATOM      5  N   UNL     1       1.401  -2.532  -0.162  0.00  0.00    -0.296 N 
ATOM      6  C   UNL     1       1.505  -3.841  -0.462  0.00  0.00    +0.316 C 
ATOM      7  O   UNL     1       0.961  -4.671   0.240  0.00  0.00    -0.251 OA
ATOM      8  N   UNL     1       2.212  -4.231  -1.541  0.00  0.00    -0.218 N 
ATOM      9  H   UNL     1       1.835  -1.870  -0.723  0.00  0.00    +0.150 HD
ATOM     10  H   UNL     1       2.288  -5.174  -1.757  0.00  0.00    +0.174 HD
BRANCH   5  11
ATOM     11  C   UNL     1       0.633  -2.108   1.011  0.00  0.00    +0.134 C 
BRANCH  11  12
ATOM     12  C   UNL     1       0.673  -0.582   1.123  0.00  0.00    +0.178 C 
BRANCH  12  14
ATOM     13  C   UNL     1      -0.017   1.425   0.010  0.00  0.00    +0.194 C 
ATOM     14  O   UNL     1       0.002  -0.004   0.002  0.00  0.00    -0.381 OA
ENDBRANCH  12  14
ENDBRANCH  11  12
ENDBRANCH   5  11
ENDBRANCH   1   8
BRANCH   2  15
ATOM     15  C   UNL     1       4.221  -2.637  -4.301  0.00  0.00    +0.132 C 
BRANCH  15  16
ATOM     16  C   UNL     1       4.939  -3.328  -5.431  0.00  0.00    -0.034 A 
ATOM     17  C   UNL     1       6.255  -3.726  -5.270  0.00  0.00    +0.053 A 
ATOM     18  C   UNL     1       6.912  -4.362  -6.310  0.00  0.00    +0.164 A 
ATOM     19  C   UNL     1       6.253  -4.599  -7.508  0.00  0.00    +0.180 A 
ATOM     20  C   UNL     1       4.936  -4.200  -7.666  0.00  0.00    +0.086 A 
ATOM     21  C   UNL     1       4.280  -3.568  -6.622  0.00  0.00    +0.028 A 
ATOM     22 CL   UNL     1       4.109  -4.494  -9.163  0.00  0.00    -0.080 Cl
ATOM     23  O   UNL     1       6.909  -5.227  -8.527  0.00  0.00    -0.487 OA
ATOM     24  C   UNL     1       7.970  -4.488  -9.135  0.00  0.00    +0.232 C 
ATOM     25  C   UNL     1       9.262  -4.653  -8.350  0.00  0.00    +0.082 C 
ATOM     26  C   UNL     1       9.171  -4.057  -6.954  0.00  0.00    +0.232 C 
ATOM     27  O   UNL     1       8.209  -4.760  -6.164  0.00  0.00    -0.488 OA
ENDBRANCH  15  16
ENDBRANCH   2  15
TORSDOF 6
