REMARK  Name = ZINC50672986
REMARK  4 active torsions:
REMARK  status: ('A' for Active; 'I' for Inactive)
REMARK    1  A    between atoms: C_6  and  S_10
REMARK    2  A    between atoms: C_7  and  N_9
REMARK    3  A    between atoms: S_10  and  N_13
REMARK    4  A    between atoms: N_13  and  C_14
REMARK                            x       y       z     vdW  Elec       q    Type
REMARK                         _______ _______ _______ _____ _____    ______ ____
ROOT
ATOM      1  S   UNL     1      -2.671  -0.912   0.022  0.00  0.00    +0.078 S 
ATOM      2  O   UNL     1      -3.174  -2.123   0.571  0.00  0.00    -0.151 OA
ATOM      3  O   UNL     1      -2.966   0.359   0.584  0.00  0.00    -0.151 OA
ENDROOT
BRANCH   1   9
ATOM      4  C   UNL     1      -0.017   1.373   0.010  0.00  0.00    +0.102 A 
ATOM      5  C   UNL     1       1.118   2.071   0.003  0.00  0.00    +0.067 A 
ATOM      6  S   UNL     1       2.347   0.775  -0.016  0.00  0.00    -0.058 S 
ATOM      7  C   UNL     1       1.231  -0.608  -0.013  0.00  0.00    +0.181 A 
ATOM      8  N   UNL     1       0.002  -0.004   0.002  0.00  0.00    -0.276 N 
ATOM      9  C   UNL     1      -0.915  -1.059   0.005  0.00  0.00    +0.220 A 
ATOM     10  C   UNL     1      -0.211  -2.210  -0.008  0.00  0.00    +0.163 A 
ATOM     11  N   UNL     1       1.097  -1.904  -0.018  0.00  0.00    -0.205 NA
BRANCH  10  12
ATOM     12  N   UNL     1      -0.753  -3.505  -0.011  0.00  0.00    -0.340 N 
ATOM     13  H   UNL     1      -1.716  -3.628  -0.002  0.00  0.00    +0.144 HD
ATOM     14  H   UNL     1      -0.166  -4.276  -0.021  0.00  0.00    +0.144 HD
ENDBRANCH  10  12
ENDBRANCH   1   9
BRANCH   1  15
ATOM     15  N   UNL     1      -3.174  -0.862  -1.554  0.00  0.00    -0.187 NA
ATOM     16  H   UNL     1      -3.595  -0.061  -1.904  0.00  0.00    +0.148 HD
BRANCH  15  17
ATOM     17  C   UNL     1      -2.983  -2.027  -2.421  0.00  0.00    +0.061 C 
ATOM     18  C   UNL     1      -1.722  -1.853  -3.292  0.00  0.00    +0.000 C 
ATOM     19  C   UNL     1      -2.076  -2.530  -4.626  0.00  0.00    -0.077 C 
ATOM     20  N   UNL     1      -3.538  -2.651  -4.693  0.00  0.00    +0.383 N 
ATOM     21  C   UNL     1      -4.133  -2.136  -3.440  0.00  0.00    -0.050 C 
ATOM     22  C   UNL     1      -4.619  -0.706  -3.783  0.00  0.00    -0.016 C 
ATOM     23  C   UNL     1      -5.083  -0.865  -5.254  0.00  0.00    -0.020 C 
ATOM     24  C   UNL     1      -4.066  -1.879  -5.830  0.00  0.00    -0.078 C 
ATOM     25  H   UNL     1      -3.792  -3.622  -4.797  0.00  0.00    -0.081 HD
ENDBRANCH  15  17
ENDBRANCH   1  15
TORSDOF 4
