REMARK  Name = ZINC45684103
REMARK  8 active torsions:
REMARK  status: ('A' for Active; 'I' for Inactive)
REMARK    1  A    between atoms: C_1  and  O_2
REMARK    2  A    between atoms: O_2  and  C_3
REMARK    3  A    between atoms: C_8  and  N_9
REMARK    4  A    between atoms: N_9  and  S_10
REMARK    5  A    between atoms: S_10  and  C_13
REMARK    6  A    between atoms: C_16  and  O_32
REMARK    7  A    between atoms: C_17  and  N_19
REMARK    8  A    between atoms: C_20  and  C_22
REMARK                            x       y       z     vdW  Elec       q    Type
REMARK                         _______ _______ _______ _____ _____    ______ ____
ROOT
ATOM      1  C   UNL     1       2.295  -3.985   1.000  0.00  0.00    +0.110 A 
ATOM      2  C   UNL     1       3.433  -3.933   0.217  0.00  0.00    +0.032 A 
ATOM      3  C   UNL     1       4.671  -3.738   0.802  0.00  0.00    +0.049 A 
ATOM      4  C   UNL     1       4.773  -3.595   2.177  0.00  0.00    +0.138 A 
ATOM      5  C   UNL     1       3.626  -3.647   2.966  0.00  0.00    +0.077 A 
ATOM      6  C   UNL     1       2.387  -3.837   2.371  0.00  0.00    +0.055 A 
ENDROOT
BRANCH   5   7
ATOM      7  N   UNL     1       3.723  -3.503   4.356  0.00  0.00    -0.282 N 
ATOM      8  C   UNL     1       2.660  -3.075   5.065  0.00  0.00    +0.223 C 
ATOM      9  O   UNL     1       1.651  -2.722   4.492  0.00  0.00    -0.275 OA
ATOM     10  H   UNL     1       4.556  -3.712   4.809  0.00  0.00    +0.155 HD
BRANCH   8  11
ATOM     11  C   UNL     1       2.724  -3.036   6.570  0.00  0.00    +0.048 C 
ATOM     12  C   UNL     1       3.859  -2.107   7.008  0.00  0.00    +0.019 C 
ATOM     13  C   UNL     1       3.924  -2.067   8.536  0.00  0.00    -0.009 C 
ATOM     14  C   UNL     1       2.596  -1.546   9.090  0.00  0.00    +0.007 C 
ATOM     15  C   UNL     1       1.462  -2.475   8.652  0.00  0.00    -0.009 C 
ATOM     16  C   UNL     1       1.396  -2.515   7.124  0.00  0.00    +0.019 C 
ATOM     17  C   UNL     1       1.721  -3.884   9.189  0.00  0.00    +0.007 C 
ATOM     18  C   UNL     1       3.049  -4.405   8.635  0.00  0.00    -0.009 C 
ATOM     19  C   UNL     1       4.183  -3.476   9.073  0.00  0.00    +0.007 C 
ATOM     20  C   UNL     1       2.983  -4.445   7.107  0.00  0.00    +0.019 C 
ENDBRANCH   8  11
ENDBRANCH   5   7
BRANCH   1  21
ATOM     21  S   UNL     1       0.721  -4.234   0.247  0.00  0.00    +0.073 S 
ATOM     22  O   UNL     1      -0.125  -4.784   1.248  0.00  0.00    -0.150 OA
ATOM     23  O   UNL     1       0.962  -4.889  -0.991  0.00  0.00    -0.150 OA
BRANCH  21  24
ATOM     24  N   UNL     1       0.112  -2.738  -0.119  0.00  0.00    -0.213 N 
ATOM     25  H   UNL     1      -0.727  -2.447   0.272  0.00  0.00    +0.174 HD
BRANCH  24  31
ATOM     26  C   UNL     1       0.800  -0.516  -0.785  0.00  0.00    +0.142 A 
ATOM     27  C   UNL     1       1.495   0.314  -1.649  0.00  0.00    +0.047 A 
ATOM     28  C   UNL     1       2.188  -0.225  -2.718  0.00  0.00    +0.004 A 
ATOM     29  C   UNL     1       2.190  -1.591  -2.928  0.00  0.00    +0.002 A 
ATOM     30  C   UNL     1       1.500  -2.426  -2.070  0.00  0.00    +0.028 A 
ATOM     31  C   UNL     1       0.807  -1.894  -0.993  0.00  0.00    +0.090 A 
BRANCH  26  33
ATOM     32  C   UNL     1       0.156   1.432   0.417  0.00  0.00    +0.277 C 
ATOM     33  O   UNL     1       0.118   0.011   0.266  0.00  0.00    -0.493 OA
ENDBRANCH  26  33
ENDBRANCH  24  31
ENDBRANCH  21  24
ENDBRANCH   1  21
BRANCH   4  34
ATOM     34  O   UNL     1       5.989  -3.405   2.754  0.00  0.00    -0.505 OA
ATOM     35  H   UNL     1       6.244  -2.475   2.837  0.00  0.00    +0.292 HD
ENDBRANCH   4  34
TORSDOF 7
