REMARK  Name = ZINC00153115
REMARK  5 active torsions:
REMARK  status: ('A' for Active; 'I' for Inactive)
REMARK    1  A    between atoms: C_1  and  C_2
REMARK    2  A    between atoms: C_5  and  O_14
REMARK    3  A    between atoms: N_6  and  C_8
REMARK    4  A    between atoms: O_14  and  C_15
REMARK    5  A    between atoms: C_15  and  C_17
REMARK                            x       y       z     vdW  Elec       q    Type
REMARK                         _______ _______ _______ _____ _____    ______ ____
ROOT
ATOM      1  C   UNL     1       8.747   3.410   1.283  0.00  0.00    +0.030 C 
ATOM      2  C   UNL     1       7.865   3.416   0.033  0.00  0.00    +0.098 C 
ATOM      3  C   UNL     1       7.043   2.147  -0.035  0.00  0.00    +0.057 C 
ATOM      4  C   UNL     1       5.770   2.515  -0.004  0.00  0.00    +0.208 C 
ATOM      5  N   UNL     1       5.641   3.888   0.086  0.00  0.00    -0.204 N 
ATOM      6  N   UNL     1       6.863   4.497   0.113  0.00  0.00    -0.226 NA
ATOM      7  H   UNL     1       6.963   5.141  -0.657  0.00  0.00    +0.146 HD
ENDROOT
BRANCH   5   8
ATOM      8  C   UNL     1       4.419   4.565   0.144  0.00  0.00    +0.053 A 
ATOM      9  C   UNL     1       4.331   5.880  -0.294  0.00  0.00    +0.025 A 
ATOM     10  C   UNL     1       3.122   6.545  -0.241  0.00  0.00    +0.002 A 
ATOM     11  C   UNL     1       2.001   5.905   0.258  0.00  0.00    +0.000 A 
ATOM     12  C   UNL     1       2.087   4.598   0.700  0.00  0.00    +0.002 A 
ATOM     13  C   UNL     1       3.292   3.926   0.644  0.00  0.00    +0.025 A 
ENDBRANCH   5   8
BRANCH   4  14
ATOM     14  O   UNL     1       4.724   1.651  -0.049  0.00  0.00    -0.406 OA
BRANCH  14  15
ATOM     15  C   UNL     1       4.008   1.617  -1.190  0.00  0.00    +0.348 C 
ATOM     16  O   UNL     1       4.365   2.268  -2.151  0.00  0.00    -0.244 OA
BRANCH  15  17
ATOM     17  C   UNL     1       2.790   0.787  -1.272  0.00  0.00    +0.096 A 
ATOM     18  C   UNL     1       2.430  -0.056  -0.213  0.00  0.00    +0.019 A 
ATOM     19  C   UNL     1       1.279  -0.813  -0.340  0.00  0.00    +0.021 A 
ATOM     20  C   UNL     1       0.527  -0.715  -1.498  0.00  0.00    +0.112 A 
ATOM     21  N   UNL     1       0.889   0.087  -2.480  0.00  0.00    -0.243 NA
ATOM     22  C   UNL     1       1.977   0.828  -2.408  0.00  0.00    +0.143 A 
ATOM     23 CL   UNL     1       2.402   1.864  -3.735  0.00  0.00    -0.061 Cl
ENDBRANCH  15  17
ENDBRANCH  14  15
ENDBRANCH   4  14
TORSDOF 4
