REMARK  Name = ZINC64622335
REMARK  7 active torsions:
REMARK  status: ('A' for Active; 'I' for Inactive)
REMARK    1  A    between atoms: C_7  and  C_10
REMARK    2  A    between atoms: C_10  and  C_11
REMARK    3  A    between atoms: C_11  and  N_12
REMARK    4  A    between atoms: C_13  and  C_15
REMARK    5  A    between atoms: C_15  and  C_16
REMARK    6  A    between atoms: N_23  and  C_24
REMARK    7  A    between atoms: C_24  and  C_25
REMARK                            x       y       z     vdW  Elec       q    Type
REMARK                         _______ _______ _______ _____ _____    ______ ____
ROOT
ATOM      1  C   UNL     1      -1.669  -6.314  -2.582  0.00  0.00    +0.089 C 
ENDROOT
BRANCH   1   2
ATOM      2  C   UNL     1      -2.020  -6.852  -3.970  0.00  0.00    +0.028 C 
ATOM      3  C   UNL     1      -0.774  -7.366  -4.634  0.00  0.00    +0.200 C 
ATOM      4  O   UNL     1       0.016  -8.006  -3.973  0.00  0.00    -0.278 OA
ATOM      5  N   UNL     1      -0.501  -7.147  -5.926  0.00  0.00    -0.318 N 
ATOM      6  C   UNL     1      -1.378  -6.365  -6.794  0.00  0.00    +0.085 C 
ATOM      7  C   UNL     1      -2.765  -6.245  -6.160  0.00  0.00    -0.058 C 
ATOM      8  N   UNL     1      -2.611  -5.775  -4.775  0.00  0.00    +0.391 N 
ATOM      9  H   UNL     1       0.312  -7.522  -6.300  0.00  0.00    +0.149 HD
ATOM     10  H   UNL     1      -2.006  -4.968  -4.756  0.00  0.00    -0.080 HD
BRANCH   8  11
ATOM     11  C   UNL     1      -3.927  -5.419  -4.229  0.00  0.00    -0.042 C 
BRANCH  11  12
ATOM     12  C   UNL     1      -4.466  -4.217  -4.961  0.00  0.00    -0.064 A 
ATOM     13  C   UNL     1      -4.182  -2.945  -4.501  0.00  0.00    +0.004 A 
ATOM     14  C   UNL     1      -4.675  -1.841  -5.171  0.00  0.00    +0.038 A 
ATOM     15  C   UNL     1      -5.454  -2.010  -6.304  0.00  0.00    +0.123 A 
ATOM     16  C   UNL     1      -5.737  -3.285  -6.763  0.00  0.00    +0.038 A 
ATOM     17  C   UNL     1      -5.239  -4.387  -6.095  0.00  0.00    +0.004 A 
ATOM     18  F   UNL     1      -5.936  -0.932  -6.960  0.00  0.00    -0.205 F 
ENDBRANCH  11  12
ENDBRANCH   8  11
ENDBRANCH   1   2
BRANCH   1  20
ATOM     19  N   UNL     1      -0.275  -4.507  -1.627  0.00  0.00    -0.315 N 
ATOM     20  C   UNL     1      -0.646  -5.215  -2.712  0.00  0.00    +0.212 C 
ATOM     21  O   UNL     1      -0.156  -4.968  -3.794  0.00  0.00    -0.276 OA
ATOM     22  H   UNL     1      -0.667  -4.705  -0.762  0.00  0.00    +0.149 HD
BRANCH  19  23
ATOM     23  C   UNL     1       0.720  -3.439  -1.754  0.00  0.00    +0.108 C 
BRANCH  23  24
ATOM     24  C   UNL     1       0.960  -2.800  -0.385  0.00  0.00    +0.052 C 
BRANCH  24  31
ATOM     25  C   UNL     1       0.582   1.735  -0.975  0.00  0.00    +0.001 A 
ATOM     26  C   UNL     1       1.815   2.397  -1.048  0.00  0.00    +0.002 A 
ATOM     27  C   UNL     1       2.997   1.751  -0.952  0.00  0.00    +0.026 A 
ATOM     28  C   UNL     1       3.032   0.341  -0.769  0.00  0.00    +0.043 A 
ATOM     29  N   UNL     1       4.031  -0.499  -0.650  0.00  0.00    -0.380 N 
ATOM     30  C   UNL     1       3.487  -1.852  -0.481  0.00  0.00    +0.144 C 
ATOM     31  C   UNL     1       1.983  -1.701  -0.516  0.00  0.00    -0.040 C 
ATOM     32  C   UNL     1       1.742  -0.382  -0.689  0.00  0.00    -0.001 A 
ATOM     33  C   UNL     1       0.502   0.396  -0.802  0.00  0.00    +0.010 A 
ATOM     34  H   UNL     1       4.972  -0.266  -0.671  0.00  0.00    +0.160 HD
ENDBRANCH  24  31
ENDBRANCH  23  24
ENDBRANCH  19  23
ENDBRANCH   1  20
TORSDOF 7
