REMARK  Name = ZINC09741743
REMARK  4 active torsions:
REMARK  status: ('A' for Active; 'I' for Inactive)
REMARK    1  A    between atoms: C_7  and  S_18
REMARK    2  A    between atoms: C_9  and  C_11
REMARK    3  A    between atoms: S_18  and  C_19
REMARK    4  A    between atoms: C_19  and  C_20
REMARK                            x       y       z     vdW  Elec       q    Type
REMARK                         _______ _______ _______ _____ _____    ______ ____
ROOT
ATOM      1  C   UNL     1      -2.385  -0.030   0.026  0.00  0.00    +0.001 A 
ATOM      2  C   UNL     1      -2.406   1.361   0.034  0.00  0.00    +0.002 A 
ATOM      3  C   UNL     1      -1.249   2.082   0.031  0.00  0.00    +0.028 A 
ATOM      4  C   UNL     1      -0.017   1.413   0.010  0.00  0.00    +0.076 A 
ATOM      5  C   UNL     1       0.002  -0.004   0.002  0.00  0.00    +0.032 A 
ATOM      6  C   UNL     1      -1.203  -0.713   0.010  0.00  0.00    +0.012 A 
ATOM      7  C   UNL     1       1.259  -0.659  -0.013  0.00  0.00    +0.109 A 
ATOM      8  N   UNL     1       2.356   0.085  -0.020  0.00  0.00    -0.220 NA
ATOM      9  C   UNL     1       2.292   1.415  -0.012  0.00  0.00    +0.161 A 
ATOM     10  N   UNL     1       1.148   2.074   0.002  0.00  0.00    -0.227 NA
ENDROOT
BRANCH   9  11
ATOM     11  C   UNL     1       3.557   2.187  -0.020  0.00  0.00    +0.019 A 
ATOM     12  C   UNL     1       3.526   3.581  -0.018  0.00  0.00    +0.012 A 
ATOM     13  C   UNL     1       4.707   4.295  -0.020  0.00  0.00    +0.016 A 
ATOM     14  C   UNL     1       5.921   3.630  -0.035  0.00  0.00    +0.018 A 
ATOM     15  C   UNL     1       5.957   2.246  -0.042  0.00  0.00    +0.016 A 
ATOM     16  C   UNL     1       4.782   1.522  -0.034  0.00  0.00    +0.012 A 
ATOM     17 BR   UNL     1       7.535   4.615  -0.046  0.00  0.00    -0.050 Br
ENDBRANCH   9  11
BRANCH   7  18
ATOM     18  S   UNL     1       1.361  -2.418  -0.025  0.00  0.00    -0.096 S 
BRANCH  18  19
ATOM     19  C   UNL     1       3.159  -2.629  -0.043  0.00  0.00    +0.172 C 
BRANCH  19  20
ATOM     20  C   UNL     1       3.492  -4.099  -0.054  0.00  0.00    +0.231 C 
ATOM     21  O   UNL     1       2.603  -4.922  -0.050  0.00  0.00    -0.274 OA
ATOM     22  N   UNL     1       4.780  -4.497  -0.068  0.00  0.00    -0.240 N 
ATOM     23  C   UNL     1       5.078  -5.812  -0.079  0.00  0.00    +0.303 C 
ATOM     24  O   UNL     1       4.186  -6.637  -0.075  0.00  0.00    -0.253 OA
ATOM     25  N   UNL     1       6.365  -6.211  -0.093  0.00  0.00    -0.313 N 
ATOM     26  H   UNL     1       5.587  -3.750  -0.072  0.00  0.00    +0.159 HD
ATOM     27  H   UNL     1       6.609  -7.283  -0.101  0.00  0.00    +0.146 HD
ATOM     28  H   UNL     1       7.173  -5.463  -0.096  0.00  0.00    +0.146 HD
ENDBRANCH  19  20
ENDBRANCH  18  19
ENDBRANCH   7  18
TORSDOF 4
