REMARK  Name = ZINC04126613
REMARK  8 active torsions:
REMARK  status: ('A' for Active; 'I' for Inactive)
REMARK    1  A    between atoms: C_1  and  C_2
REMARK    2  A    between atoms: C_2  and  O_23
REMARK    3  A    between atoms: C_3  and  C_21
REMARK    4  A    between atoms: C_3  and  C_22
REMARK    5  A    between atoms: N_7  and  C_8
REMARK    6  A    between atoms: C_8  and  C_9
REMARK    7  A    between atoms: C_9  and  O_10
REMARK    8  A    between atoms: O_10  and  C_11
REMARK                            x       y       z     vdW  Elec       q    Type
REMARK                         _______ _______ _______ _____ _____    ______ ____
ROOT
ATOM      1  C   UNL     1       2.126  -0.558   1.437  0.00  0.00    +0.142 C 
ENDROOT
BRANCH   1   8
ATOM      2  C   UNL     1      -0.019   1.526   0.010  0.00  0.00    +0.068 C 
ATOM      3  C   UNL     1       0.002  -0.004   0.002  0.00  0.00    +0.174 C 
ATOM      4  C   UNL     1      -1.427  -0.575   0.158  0.00  0.00    +0.155 C 
ATOM      5  O   UNL     1      -1.514  -0.783   1.581  0.00  0.00    -0.440 OA
ATOM      6  C   UNL     1      -0.269  -0.971   2.050  0.00  0.00    +0.406 C 
ATOM      7  O   UNL     1      -0.026  -1.487   3.123  0.00  0.00    -0.226 OA
ATOM      8  N   UNL     1       0.680  -0.527   1.205  0.00  0.00    -0.234 N 
ATOM      9  C   UNL     1      -1.573  -1.898  -0.598  0.00  0.00    +0.060 C 
ATOM     10  C   UNL     1      -2.474   0.437  -0.311  0.00  0.00    +0.060 C 
BRANCH   3  11
ATOM     11  O   UNL     1       0.624  -0.496  -1.187  0.00  0.00    -0.368 OA
ATOM     12  H   UNL     1       1.537  -0.200  -1.304  0.00  0.00    +0.212 HD
ENDBRANCH   3  11
ENDBRANCH   1   8
BRANCH   1  13
ATOM     13  C   UNL     1       2.560   0.738   2.125  0.00  0.00    +0.179 C 
BRANCH  13  14
ATOM     14  O   UNL     1       1.970   0.807   3.424  0.00  0.00    -0.372 OA
BRANCH  14  15
ATOM     15  C   UNL     1       2.313   1.986   4.156  0.00  0.00    +0.070 C 
ATOM     16  C   UNL     1       1.847   3.221   3.382  0.00  0.00    +0.038 C 
ATOM     17  C   UNL     1       2.215   4.483   4.165  0.00  0.00    -0.008 C 
ATOM     18  C   UNL     1       1.532   4.450   5.534  0.00  0.00    +0.007 C 
ATOM     19  C   UNL     1       1.998   3.216   6.308  0.00  0.00    -0.008 C 
ATOM     20  C   UNL     1       1.630   1.954   5.524  0.00  0.00    +0.038 C 
ATOM     21  C   UNL     1       3.515   3.275   6.497  0.00  0.00    +0.007 C 
ATOM     22  C   UNL     1       4.198   3.307   5.128  0.00  0.00    -0.008 C 
ATOM     23  C   UNL     1       3.732   4.542   4.354  0.00  0.00    +0.007 C 
ATOM     24  C   UNL     1       3.831   2.045   4.345  0.00  0.00    +0.038 C 
ENDBRANCH  14  15
ENDBRANCH  13  14
ENDBRANCH   1  13
TORSDOF 5
