REMARK  Name = ZINC21814588
REMARK  5 active torsions:
REMARK  status: ('A' for Active; 'I' for Inactive)
REMARK    1  A    between atoms: C_3  and  C_19
REMARK    2  A    between atoms: C_6  and  C_7
REMARK    3  A    between atoms: C_7  and  O_8
REMARK    4  A    between atoms: O_8  and  C_9
REMARK    5  A    between atoms: C_19  and  N_21
REMARK                            x       y       z     vdW  Elec       q    Type
REMARK                         _______ _______ _______ _____ _____    ______ ____
ROOT
ATOM      1  C   UNL     1      -5.042   4.516   0.050  0.00  0.00    +0.264 C 
ENDROOT
BRANCH   1   7
ATOM      2  C   UNL     1      -3.602   2.583   0.722  0.00  0.00    +0.007 A 
ATOM      3  C   UNL     1      -2.401   1.904   0.716  0.00  0.00    +0.010 A 
ATOM      4  C   UNL     1      -1.310   2.428   0.021  0.00  0.00    +0.003 A 
ATOM      5  C   UNL     1      -1.440   3.641  -0.659  0.00  0.00    +0.010 A 
ATOM      6  C   UNL     1      -2.649   4.306  -0.650  0.00  0.00    +0.007 A 
ATOM      7  C   UNL     1      -3.727   3.780   0.040  0.00  0.00    -0.010 A 
BRANCH   4   8
ATOM      8  C   UNL     1      -0.021   1.708   0.011  0.00  0.00    +0.077 C 
ATOM      9  S   UNL     1       0.002  -0.004   0.002  0.00  0.00    -0.035 S 
BRANCH   8  10
ATOM     10  N   UNL     1       1.137   2.397   0.004  0.00  0.00    -0.352 N 
ATOM     11  H   UNL     1       2.097   1.860  -0.003  0.00  0.00    +0.143 HD
ATOM     12  H   UNL     1       1.122   3.497   0.006  0.00  0.00    +0.143 HD
ENDBRANCH   8  10
ENDBRANCH   4   8
ENDBRANCH   1   7
BRANCH   1  13
ATOM     13  O   UNL     1      -5.076   5.417   1.159  0.00  0.00    -0.487 OA
BRANCH  13  14
ATOM     14  C   UNL     1      -6.202   6.163   1.314  0.00  0.00    +0.125 A 
ATOM     15  C   UNL     1      -7.245   6.020   0.408  0.00  0.00    +0.047 A 
ATOM     16  C   UNL     1      -8.388   6.783   0.573  0.00  0.00    +0.022 A 
ATOM     17  C   UNL     1      -8.470   7.663   1.623  0.00  0.00    +0.061 A 
ATOM     18  C   UNL     1      -7.436   7.832   2.554  0.00  0.00    +0.150 A 
ATOM     19  C   UNL     1      -6.290   7.045   2.371  0.00  0.00    +0.093 A 
ATOM     20  O   UNL     1      -7.678   8.736   3.524  0.00  0.00    -0.416 OA
ATOM     21  C   UNL     1      -8.837   9.415   3.573  0.00  0.00    +0.379 A 
ATOM     22  O   UNL     1      -9.190  10.252   4.380  0.00  0.00    -0.237 OA
ATOM     23  S   UNL     1      -9.705   8.803   2.200  0.00  0.00    -0.004 S 
ENDBRANCH  13  14
ENDBRANCH   1  13
TORSDOF 5
