REMARK  Name = ZINC40146746
REMARK  12 active torsions:
REMARK  status: ('A' for Active; 'I' for Inactive)
REMARK    1  A    between atoms: C_1  and  C_2
REMARK    2  A    between atoms: C_5  and  C_31
REMARK    3  A    between atoms: N_8  and  C_10
REMARK    4  A    between atoms: C_10  and  C_11
REMARK    5  A    between atoms: C_11  and  C_12
REMARK    6  A    between atoms: C_12  and  C_13
REMARK    7  A    between atoms: C_13  and  N_14
REMARK    8  A    between atoms: C_15  and  C_17
REMARK    9  A    between atoms: C_19  and  N_27
REMARK   10  A    between atoms: C_21  and  N_23
REMARK   11  A    between atoms: C_24  and  C_26
REMARK   12  A    between atoms: C_28  and  C_30
REMARK                            x       y       z     vdW  Elec       q    Type
REMARK                         _______ _______ _______ _____ _____    ______ ____
ROOT
ATOM      1  N   UNL     1       3.142  -0.337   6.741  0.00  0.00    -0.311 N 
ATOM      2  C   UNL     1       2.758   0.090   7.960  0.00  0.00    +0.244 C 
ATOM      3  O   UNL     1       1.847   0.888   8.066  0.00  0.00    -0.270 OA
ATOM      4  H   UNL     1       3.869  -0.974   6.657  0.00  0.00    +0.149 HD
ENDROOT
BRANCH   2   5
ATOM      5  C   UNL     1       3.444  -0.413   9.170  0.00  0.00    +0.040 A 
ATOM      6  C   UNL     1       4.493  -1.325   9.050  0.00  0.00    +0.036 A 
ATOM      7  C   UNL     1       5.135  -1.794  10.186  0.00  0.00    +0.036 A 
ATOM      8  C   UNL     1       4.734  -1.358  11.442  0.00  0.00    +0.046 A 
ATOM      9  C   UNL     1       3.690  -0.451  11.565  0.00  0.00    +0.036 A 
ATOM     10  C   UNL     1       3.048   0.027  10.433  0.00  0.00    +0.036 A 
BRANCH   9  11
ATOM     11  N   UNL     1       3.289  -0.015  12.833  0.00  0.00    -0.286 N 
ATOM     12  C   UNL     1       1.988   0.243  13.077  0.00  0.00    +0.214 C 
ATOM     13  O   UNL     1       1.154   0.004  12.229  0.00  0.00    -0.276 OA
ATOM     14  C   UNL     1       1.572   0.826  14.402  0.00  0.00    +0.109 C 
ATOM     15  H   UNL     1       3.947   0.103  13.536  0.00  0.00    +0.155 HD
ENDBRANCH   9  11
BRANCH   7  16
ATOM     16  N   UNL     1       6.187  -2.709  10.067  0.00  0.00    -0.286 N 
ATOM     17  C   UNL     1       7.224  -2.659  10.927  0.00  0.00    +0.214 C 
ATOM     18  O   UNL     1       7.294  -1.763  11.741  0.00  0.00    -0.276 OA
ATOM     19  C   UNL     1       8.297  -3.716  10.875  0.00  0.00    +0.109 C 
ATOM     20  H   UNL     1       6.170  -3.379   9.366  0.00  0.00    +0.155 HD
ENDBRANCH   7  16
ENDBRANCH   2   5
BRANCH   1  21
ATOM     21  C   UNL     1       2.462   0.162   5.543  0.00  0.00    +0.104 C 
BRANCH  21  22
ATOM     22  C   UNL     1       3.087  -0.475   4.300  0.00  0.00    +0.017 C 
BRANCH  22  23
ATOM     23  C   UNL     1       2.377   0.045   3.048  0.00  0.00    -0.017 C 
BRANCH  23  24
ATOM     24  C   UNL     1       3.002  -0.591   1.805  0.00  0.00    -0.079 C 
BRANCH  24  30
ATOM     25  C   UNL     1       0.235   1.578  -0.528  0.00  0.00    +0.005 C 
ATOM     26  C   UNL     1       0.186   0.050  -0.591  0.00  0.00    -0.031 C 
ATOM     27  C   UNL     1       0.864  -0.431  -1.877  0.00  0.00    +0.003 C 
ATOM     28  C   UNL     1       2.341  -0.027  -1.845  0.00  0.00    -0.031 C 
ATOM     29  C   UNL     1       2.996  -0.609  -0.592  0.00  0.00    -0.076 C 
ATOM     30  N   UNL     1       2.320  -0.091   0.604  0.00  0.00    +0.380 N 
ATOM     31  C   UNL     1       0.920  -0.535   0.617  0.00  0.00    -0.076 C 
ATOM     32  C   UNL     1       3.045  -0.570  -3.091  0.00  0.00    +0.005 C 
ATOM     33  H   UNL     1       2.352   0.917   0.597  0.00  0.00    -0.082 HD
ENDBRANCH  24  30
ENDBRANCH  23  24
ENDBRANCH  22  23
ENDBRANCH  21  22
ENDBRANCH   1  21
TORSDOF 8
