REMARK  Name = ZINC14966421
REMARK  15 active torsions:
REMARK  status: ('A' for Active; 'I' for Inactive)
REMARK    1  A    between atoms: C_3  and  O_39
REMARK    2  A    between atoms: C_4  and  O_38
REMARK    3  A    between atoms: C_6  and  C_7
REMARK    4  A    between atoms: C_8  and  C_9
REMARK    5  A    between atoms: C_9  and  O_11
REMARK    6  A    between atoms: O_11  and  C_12
REMARK    7  A    between atoms: C_15  and  C_23
REMARK    8  A    between atoms: C_15  and  O_25
REMARK    9  A    between atoms: C_17  and  O_22
REMARK   10  A    between atoms: C_19  and  O_21
REMARK   11  A    between atoms: O_25  and  C_26
REMARK   12  A    between atoms: C_26  and  C_28
REMARK   13  A    between atoms: C_29  and  C_30
REMARK   14  A    between atoms: C_33  and  O_37
REMARK   15  A    between atoms: C_34  and  O_36
REMARK                            x       y       z     vdW  Elec       q    Type
REMARK                         _______ _______ _______ _____ _____    ______ ____
ROOT
ATOM      1  C   UNL     1      -0.753   1.593  -1.232  0.00  0.00    +0.212 C 
ATOM      2  C   UNL     1      -0.013   1.086   0.008  0.00  0.00    +0.107 C 
ATOM      3  C   UNL     1      -0.729   1.579   1.267  0.00  0.00    +0.219 C 
ATOM      4  C   UNL     1      -2.164   1.050   1.278  0.00  0.00    +0.094 C 
ATOM      5  C   UNL     1      -2.904   1.556   0.038  0.00  0.00    +0.151 C 
ATOM      6  C   UNL     1      -2.188   1.063  -1.221  0.00  0.00    +0.184 C 
ENDROOT
BRANCH   3   7
ATOM      7  C   UNL     1       0.000   1.080   2.488  0.00  0.00    +0.399 C 
ATOM      8  O   UNL     1       0.675   0.080   2.422  0.00  0.00    -0.242 OA
ATOM      9  O   UNL     1      -0.100   1.746   3.649  0.00  0.00    -0.242 OA
ENDBRANCH   3   7
BRANCH   6  10
ATOM     10  O   UNL     1      -2.879   1.536  -2.378  0.00  0.00    -0.386 OA
ATOM     11  H   UNL     1      -3.797   1.239  -2.437  0.00  0.00    +0.210 HD
ENDBRANCH   6  10
BRANCH   5  12
ATOM     12  O   UNL     1      -2.924   2.985   0.046  0.00  0.00    -0.389 OA
ATOM     13  H   UNL     1      -3.378   3.377  -0.713  0.00  0.00    +0.210 HD
ENDBRANCH   5  12
BRANCH   1  14
ATOM     14  O   UNL     1      -0.084   1.132  -2.407  0.00  0.00    -0.455 OA
BRANCH  14  15
ATOM     15  C   UNL     1      -0.163   1.914  -3.504  0.00  0.00    +0.332 C 
ATOM     16  O   UNL     1      -0.784   2.960  -3.461  0.00  0.00    -0.246 OA
BRANCH  15  18
ATOM     17  C   UNL     1       0.398   2.302  -5.803  0.00  0.00    +0.015 C 
ATOM     18  C   UNL     1       0.477   1.518  -4.705  0.00  0.00    +0.092 C 
BRANCH  17  24
ATOM     19  C   UNL     1       1.780   0.692  -7.098  0.00  0.00    +0.012 A 
ATOM     20  C   UNL     1       2.397   0.307  -8.268  0.00  0.00    +0.050 A 
ATOM     21  C   UNL     1       2.316   1.111  -9.397  0.00  0.00    +0.158 A 
ATOM     22  C   UNL     1       1.605   2.310  -9.354  0.00  0.00    +0.159 A 
ATOM     23  C   UNL     1       0.980   2.701  -8.187  0.00  0.00    +0.057 A 
ATOM     24  C   UNL     1       1.061   1.891  -7.048  0.00  0.00    -0.021 A 
BRANCH  22  25
ATOM     25  O   UNL     1       1.529   3.095 -10.462  0.00  0.00    -0.503 OA
ATOM     26  H   UNL     1       2.240   3.747 -10.532  0.00  0.00    +0.292 HD
ENDBRANCH  22  25
BRANCH  21  27
ATOM     27  O   UNL     1       2.931   0.729 -10.546  0.00  0.00    -0.503 OA
ATOM     28  H   UNL     1       3.842   1.043 -10.628  0.00  0.00    +0.292 HD
ENDBRANCH  21  27
ENDBRANCH  17  24
ENDBRANCH  15  18
ENDBRANCH  14  15
ENDBRANCH   1  14
BRANCH   3  29
ATOM     29  O   UNL     1      -0.748   3.008   1.275  0.00  0.00    -0.443 OA
BRANCH  29  30
ATOM     30  C   UNL     1      -1.348   3.607   2.325  0.00  0.00    +0.333 C 
ATOM     31  O   UNL     1      -1.840   2.933   3.209  0.00  0.00    -0.246 OA
BRANCH  30  32
ATOM     32  C   UNL     1      -1.403   5.022   2.397  0.00  0.00    +0.092 C 
ATOM     33  C   UNL     1      -2.003   5.621   3.449  0.00  0.00    +0.015 C 
BRANCH  33  34
ATOM     34  C   UNL     1      -2.061   7.088   3.524  0.00  0.00    -0.021 A 
ATOM     35  C   UNL     1      -1.495   7.865   2.507  0.00  0.00    +0.012 A 
ATOM     36  C   UNL     1      -1.551   9.240   2.580  0.00  0.00    +0.050 A 
ATOM     37  C   UNL     1      -2.168   9.857   3.660  0.00  0.00    +0.158 A 
ATOM     38  C   UNL     1      -2.734   9.089   4.677  0.00  0.00    +0.159 A 
ATOM     39  C   UNL     1      -2.688   7.711   4.609  0.00  0.00    +0.057 A 
BRANCH  38  40
ATOM     40  O   UNL     1      -3.338   9.698   5.732  0.00  0.00    -0.503 OA
ATOM     41  H   UNL     1      -4.281   9.866   5.603  0.00  0.00    +0.292 HD
ENDBRANCH  38  40
BRANCH  37  42
ATOM     42  O   UNL     1      -2.220  11.213   3.725  0.00  0.00    -0.503 OA
ATOM     43  H   UNL     1      -3.005  11.597   3.310  0.00  0.00    +0.292 HD
ENDBRANCH  37  42
ENDBRANCH  33  34
ENDBRANCH  30  32
ENDBRANCH  29  30
ENDBRANCH   3  29
TORSDOF 15
