REMARK  Name = ZINC59022158
REMARK  15 active torsions:
REMARK  status: ('A' for Active; 'I' for Inactive)
REMARK    1  A    between atoms: C_1  and  C_2
REMARK    2  A    between atoms: C_3  and  C_28
REMARK    3  A    between atoms: C_4  and  C_27
REMARK    4  A    between atoms: C_7  and  C_8
REMARK    5  A    between atoms: N_10  and  C_11
REMARK    6  A    between atoms: C_11  and  C_12
REMARK    7  A    between atoms: C_12  and  C_13
REMARK    8  A    between atoms: C_13  and  N_14
REMARK    9  A    between atoms: C_20  and  O_22
REMARK   10  A    between atoms: O_22  and  C_23
REMARK   11  A    between atoms: C_23  and  C_24
REMARK   12  A    between atoms: C_23  and  C_25
REMARK   13  A    between atoms: C_23  and  C_26
REMARK   14  A    between atoms: C_28  and  O_30
REMARK   15  A    between atoms: O_30  and  C_31
REMARK                            x       y       z     vdW  Elec       q    Type
REMARK                         _______ _______ _______ _____ _____    ______ ____
ROOT
ATOM      1  C   UNL     1       0.032  -0.383   2.495  0.00  0.00    +0.261 C 
ATOM      2  O   UNL     1       0.019   0.804   2.761  0.00  0.00    -0.269 OA
ATOM      3  N   UNL     1       0.054  -1.296   3.486  0.00  0.00    -0.310 N 
ATOM      4  H   UNL     1       0.065  -2.242   3.273  0.00  0.00    +0.149 HD
ENDROOT
BRANCH   1  11
ATOM      5  C   UNL     1      -0.018   1.503   0.010  0.00  0.00    +0.047 C 
ATOM      6  C   UNL     1       0.002  -0.004   0.002  0.00  0.00    -0.006 A 
ATOM      7  C   UNL     1       0.008  -0.839  -1.139  0.00  0.00    +0.083 A 
ATOM      8  C   UNL     1       0.028  -2.145  -0.686  0.00  0.00    +0.028 A 
ATOM      9  N   UNL     1       0.034  -2.127   0.656  0.00  0.00    -0.354 N 
ATOM     10  H   UNL     1       0.047  -2.911   1.228  0.00  0.00    +0.166 HD
ATOM     11  C   UNL     1       0.024  -0.821   1.093  0.00  0.00    +0.106 A 
ATOM     12  C   UNL     1       0.041  -3.378  -1.552  0.00  0.00    +0.064 C 
BRANCH   7  13
ATOM     13  C   UNL     1      -0.005  -0.400  -2.544  0.00  0.00    +0.341 C 
ATOM     14  O   UNL     1       1.042  -0.204  -3.130  0.00  0.00    -0.245 OA
BRANCH  13  15
ATOM     15  O   UNL     1      -1.178  -0.215  -3.182  0.00  0.00    -0.464 OA
ATOM     16  C   UNL     1      -1.115   0.211  -4.545  0.00  0.00    +0.280 C 
ENDBRANCH  13  15
ENDBRANCH   7  13
ENDBRANCH   1  11
BRANCH   3  17
ATOM     17  C   UNL     1       0.063  -0.859   4.884  0.00  0.00    +0.106 C 
BRANCH  17  18
ATOM     18  C   UNL     1       0.088  -2.083   5.801  0.00  0.00    +0.034 C 
BRANCH  18  19
ATOM     19  C   UNL     1       0.097  -1.627   7.261  0.00  0.00    +0.086 C 
BRANCH  19  20
ATOM     20  N   UNL     1       0.122  -2.803   8.142  0.00  0.00    -0.299 NA
ATOM     21  C   UNL     1      -1.119  -3.579   8.018  0.00  0.00    +0.103 C 
ATOM     22  C   UNL     1      -0.982  -4.885   8.808  0.00  0.00    +0.126 C 
ATOM     23  N   UNL     1      -0.588  -4.557  10.187  0.00  0.00    -0.265 N 
ATOM     24  C   UNL     1       0.567  -3.669  10.389  0.00  0.00    +0.126 C 
ATOM     25  C   UNL     1       0.369  -2.412   9.536  0.00  0.00    +0.103 C 
ATOM     26  C   UNL     1      -1.268  -5.058  11.238  0.00  0.00    +0.403 C 
ATOM     27  O   UNL     1      -2.219  -5.790  11.053  0.00  0.00    -0.226 OA
BRANCH  26  28
ATOM     28  O   UNL     1      -0.892  -4.746  12.493  0.00  0.00    -0.445 OA
BRANCH  28  29
ATOM     29  C   UNL     1      -1.657  -5.312  13.559  0.00  0.00    +0.107 C 
ATOM     30  C   UNL     1      -1.593  -6.838  13.478  0.00  0.00    +0.055 C 
ATOM     31  C   UNL     1      -1.084  -4.848  14.900  0.00  0.00    +0.055 C 
ATOM     32  C   UNL     1      -3.112  -4.855  13.440  0.00  0.00    +0.055 C 
ENDBRANCH  28  29
ENDBRANCH  26  28
ENDBRANCH  19  20
ENDBRANCH  18  19
ENDBRANCH  17  18
ENDBRANCH   3  17
TORSDOF 9
