REMARK  Name = ZINC39944847
REMARK  6 active torsions:
REMARK  status: ('A' for Active; 'I' for Inactive)
REMARK    1  A    between atoms: C_4  and  C_7
REMARK    2  A    between atoms: C_12  and  O_25
REMARK    3  A    between atoms: C_14  and  C_20
REMARK    4  A    between atoms: C_20  and  C_22
REMARK    5  A    between atoms: C_20  and  O_24
REMARK    6  A    between atoms: C_22  and  O_23
REMARK                            x       y       z     vdW  Elec       q    Type
REMARK                         _______ _______ _______ _____ _____    ______ ____
ROOT
ATOM      1  C   UNL     1       3.711  -0.707  -0.038  0.00  0.00    +0.285 C 
ATOM      2  O   UNL     1       3.472  -2.123  -0.050  0.00  0.00    -0.336 OA
ATOM      3  C   UNL     1       4.525  -2.693   0.755  0.00  0.00    +0.208 C 
ATOM      4  C   UNL     1       3.949  -3.880   1.564  0.00  0.00    +0.180 C 
ATOM      5  C   UNL     1       3.147  -3.180   2.680  0.00  0.00    +0.183 C 
ATOM      6  O   UNL     1       3.655  -1.849   2.809  0.00  0.00    -0.340 OA
ATOM      7  C   UNL     1       4.725  -1.599   1.848  0.00  0.00    +0.285 C 
ATOM      8  O   UNL     1       4.462  -0.378   1.137  0.00  0.00    -0.316 OA
ENDROOT
BRANCH   1  12
ATOM      9  C   UNL     1      -0.017   1.378   0.010  0.00  0.00    +0.000 A 
ATOM     10  C   UNL     1       1.171   2.086   0.002  0.00  0.00    +0.000 A 
ATOM     11  C   UNL     1       2.377   1.411  -0.013  0.00  0.00    +0.008 A 
ATOM     12  C   UNL     1       2.396   0.029  -0.020  0.00  0.00    +0.008 A 
ATOM     13  C   UNL     1       1.208  -0.679  -0.012  0.00  0.00    +0.008 A 
ATOM     14  C   UNL     1       0.002  -0.004   0.002  0.00  0.00    +0.000 A 
ENDBRANCH   1  12
BRANCH   4  15
ATOM     15  O   UNL     1       5.000  -4.675   2.114  0.00  0.00    -0.386 OA
ATOM     16  H   UNL     1       4.692  -5.432   2.631  0.00  0.00    +0.210 HD
ENDBRANCH   4  15
BRANCH   5  17
ATOM     17  C   UNL     1       3.326  -3.936   3.998  0.00  0.00    +0.171 C 
BRANCH  17  18
ATOM     18  O   UNL     1       4.720  -4.056   4.293  0.00  0.00    -0.387 OA
ATOM     19  H   UNL     1       5.177  -3.210   4.385  0.00  0.00    +0.210 HD
ENDBRANCH  17  18
BRANCH  17  20
ATOM     20  C   UNL     1       2.632  -3.167   5.125  0.00  0.00    +0.189 C 
BRANCH  20  21
ATOM     21  O   UNL     1       2.698  -3.929   6.332  0.00  0.00    -0.392 OA
ATOM     22  H   UNL     1       2.277  -3.502   7.090  0.00  0.00    +0.210 HD
ENDBRANCH  20  21
ENDBRANCH  17  20
ENDBRANCH   5  17
TORSDOF 6
