REMARK  Name = ZINC63908595
REMARK  9 active torsions:
REMARK  status: ('A' for Active; 'I' for Inactive)
REMARK    1  A    between atoms: C_1  and  C_2
REMARK    2  A    between atoms: C_4  and  S_8
REMARK    3  A    between atoms: S_8  and  C_9
REMARK    4  A    between atoms: C_9  and  C_10
REMARK    5  A    between atoms: C_13  and  N_25
REMARK    6  A    between atoms: N_15  and  C_21
REMARK    7  A    between atoms: C_21  and  C_22
REMARK    8  A    between atoms: C_22  and  C_23
REMARK    9  A    between atoms: C_22  and  C_24
REMARK                            x       y       z     vdW  Elec       q    Type
REMARK                         _______ _______ _______ _____ _____    ______ ____
ROOT
ATOM      1  C   UNL     1       0.372  -3.717  -4.895  0.00  0.00    +0.177 C 
ATOM      2  O   UNL     1       1.497  -4.184  -5.474  0.00  0.00    -0.291 OA
ATOM      3  C   UNL     1      -0.831  -4.133  -5.329  0.00  0.00    +0.092 C 
ATOM      4  C   UNL     1      -0.966  -5.295  -6.296  0.00  0.00    +0.182 C 
ATOM      5  N   UNL     1      -2.333  -5.661  -6.700  0.00  0.00    -0.265 N 
ATOM      6  C   UNL     1      -3.369  -4.961  -6.203  0.00  0.00    +0.310 C 
ATOM      7  O   UNL     1      -4.494  -5.271  -6.542  0.00  0.00    -0.252 OA
ATOM      8  N   UNL     1      -3.220  -3.941  -5.351  0.00  0.00    -0.236 N 
ATOM      9  C   UNL     1      -2.033  -3.509  -4.899  0.00  0.00    +0.254 C 
ATOM     10  O   UNL     1      -1.985  -2.574  -4.120  0.00  0.00    -0.270 OA
ATOM     11  H   UNL     1      -4.019  -3.488  -5.039  0.00  0.00    +0.159 HD
ENDROOT
BRANCH   4  12
ATOM     12  N   UNL     1      -0.344  -6.474  -5.678  0.00  0.00    -0.309 NA
ATOM     13  H   UNL     1       0.613  -6.286  -5.422  0.00  0.00    +0.120 HD
ATOM     14  H   UNL     1      -0.877  -6.788  -4.881  0.00  0.00    +0.120 HD
ENDBRANCH   4  12
BRANCH   1  15
ATOM     15  C   UNL     1       0.463  -2.728  -3.762  0.00  0.00    +0.156 C 
BRANCH  15  16
ATOM     16  S   UNL     1       0.811  -1.076  -4.426  0.00  0.00    -0.079 S 
BRANCH  16  20
ATOM     17  C   UNL     1       0.723   0.557   0.570  0.00  0.00    +0.090 C 
ATOM     18  C   UNL     1       0.846   0.605  -0.932  0.00  0.00    +0.149 A 
ATOM     19  N   UNL     1       0.721  -0.440  -1.751  0.00  0.00    -0.206 NA
ATOM     20  C   UNL     1       0.886  -0.049  -2.997  0.00  0.00    +0.185 A 
ATOM     21  N   UNL     1       1.124   1.281  -2.985  0.00  0.00    -0.254 N 
ATOM     22  H   UNL     1       1.285   1.850  -3.754  0.00  0.00    +0.191 HD
ATOM     23  N   UNL     1       1.087   1.676  -1.638  0.00  0.00    -0.157 NA
ENDBRANCH  16  20
ENDBRANCH  15  16
ENDBRANCH   1  15
BRANCH   5  24
ATOM     24  C   UNL     1      -2.563  -6.770  -7.630  0.00  0.00    +0.114 C 
BRANCH  24  25
ATOM     25  C   UNL     1      -2.415  -6.268  -9.068  0.00  0.00    +0.000 C 
ATOM     26  C   UNL     1      -2.511  -7.451 -10.034  0.00  0.00    +0.009 C 
ATOM     27  C   UNL     1      -3.530  -5.266  -9.376  0.00  0.00    +0.009 C 
ENDBRANCH  24  25
ENDBRANCH   5  24
TORSDOF 6
