REMARK  Name = ZINC59373335
REMARK  4 active torsions:
REMARK  status: ('A' for Active; 'I' for Inactive)
REMARK    1  A    between atoms: C_3  and  C_14
REMARK    2  A    between atoms: C_5  and  C_6
REMARK    3  A    between atoms: N_16  and  C_17
REMARK    4  A    between atoms: C_25  and  C_30
REMARK                            x       y       z     vdW  Elec       q    Type
REMARK                         _______ _______ _______ _____ _____    ______ ____
ROOT
ATOM      1  C   UNL     1       3.717   1.756  -0.000  0.00  0.00    +0.251 C 
ATOM      2  O   UNL     1       3.934   2.954  -0.009  0.00  0.00    -0.270 OA
ATOM      3  N   UNL     1       4.746   0.885  -0.013  0.00  0.00    -0.304 N 
ATOM      4  H   UNL     1       4.573  -0.069  -0.006  0.00  0.00    +0.150 HD
ENDROOT
BRANCH   3   5
ATOM      5  C   UNL     1       6.125   1.380  -0.037  0.00  0.00    +0.105 C 
ATOM      6  C   UNL     1       7.027   0.324  -0.671  0.00  0.00    +0.027 C 
ATOM      7  C   UNL     1       8.484   0.763  -0.481  0.00  0.00    +0.008 C 
ATOM      8  C   UNL     1       8.826   0.655   1.003  0.00  0.00    +0.054 C 
ATOM      9  C   UNL     1       7.793   1.363   1.842  0.00  0.00    +0.024 A 
ATOM     10  C   UNL     1       6.567   1.685   1.370  0.00  0.00    -0.007 A 
ATOM     11  C   UNL     1       5.646   2.333   2.205  0.00  0.00    +0.025 A 
ATOM     12  C   UNL     1       6.002   2.643   3.513  0.00  0.00    +0.101 A 
ATOM     13  C   UNL     1       7.301   2.292   3.962  0.00  0.00    +0.261 A 
ATOM     14  O   UNL     1       7.649   2.551   5.101  0.00  0.00    -0.267 OA
ATOM     15  N   UNL     1       8.145   1.674   3.123  0.00  0.00    -0.325 N 
ATOM     16  H   UNL     1       9.032   1.438   3.437  0.00  0.00    +0.169 HD
BRANCH  12  17
ATOM     17  C   UNL     1       5.053   3.321   4.410  0.00  0.00    +0.247 C 
ATOM     18  O   UNL     1       3.984   3.711   3.982  0.00  0.00    -0.270 OA
ATOM     19  N   UNL     1       5.370   3.509   5.707  0.00  0.00    -0.325 N 
ATOM     20  H   UNL     1       6.250   3.265   6.031  0.00  0.00    +0.145 HD
ATOM     21  H   UNL     1       4.716   3.889   6.315  0.00  0.00    +0.145 HD
ENDBRANCH  12  17
ENDBRANCH   3   5
BRANCH   1  24
ATOM     22  C   UNL     1      -0.030   1.299   0.062  0.00  0.00    +0.017 A 
ATOM     23  C   UNL     1       1.154   1.982   0.040  0.00  0.00    +0.021 A 
ATOM     24  C   UNL     1       2.339   1.261   0.024  0.00  0.00    +0.074 A 
ATOM     25  S   UNL     1       1.752  -0.425   0.041  0.00  0.00    -0.084 S 
ATOM     26  C   UNL     1      -0.000  -0.086   0.068  0.00  0.00    +0.020 A 
BRANCH  26  27
ATOM     27  C   UNL     1      -1.130  -1.039   0.091  0.00  0.00    -0.009 A 
ATOM     28  C   UNL     1      -2.444  -0.568   0.105  0.00  0.00    +0.029 A 
ATOM     29  C   UNL     1      -3.495  -1.463   0.127  0.00  0.00    +0.043 A 
ATOM     30  C   UNL     1      -3.248  -2.825   0.134  0.00  0.00    +0.040 A 
ATOM     31  C   UNL     1      -1.947  -3.298   0.120  0.00  0.00    +0.043 A 
ATOM     32  C   UNL     1      -0.887  -2.413   0.093  0.00  0.00    +0.029 A 
ATOM     33 CL   UNL     1      -1.647  -5.008   0.130  0.00  0.00    -0.083 Cl
ATOM     34 CL   UNL     1      -5.130  -0.879   0.145  0.00  0.00    -0.083 Cl
ENDBRANCH  26  27
ENDBRANCH   1  24
TORSDOF 4
