REMARK  Name = ZINC14649935
REMARK  14 active torsions:
REMARK  status: ('A' for Active; 'I' for Inactive)
REMARK    1  A    between atoms: C_1  and  C_2
REMARK    2  A    between atoms: C_5  and  N_9
REMARK    3  A    between atoms: C_7  and  C_8
REMARK    4  A    between atoms: C_10  and  C_12
REMARK    5  A    between atoms: C_12  and  C_13
REMARK    6  A    between atoms: C_13  and  C_14
REMARK    7  A    between atoms: N_16  and  N_17
REMARK    8  A    between atoms: C_18  and  C_20
REMARK    9  A    between atoms: C_20  and  O_21
REMARK   10  A    between atoms: O_21  and  C_22
REMARK   11  A    between atoms: C_25  and  C_29
REMARK   12  A    between atoms: C_29  and  C_30
REMARK   13  A    between atoms: C_29  and  C_31
REMARK   14  A    between atoms: C_29  and  C_32
REMARK                            x       y       z     vdW  Elec       q    Type
REMARK                         _______ _______ _______ _____ _____    ______ ____
ROOT
ATOM      1  C   UNL     1       3.740   1.737   0.337  0.00  0.00    +0.230 C 
ATOM      2  O   UNL     1       3.742   2.941   0.190  0.00  0.00    -0.274 OA
ATOM      3  N   UNL     1       4.904   1.075   0.488  0.00  0.00    -0.234 N 
ATOM      4  H   UNL     1       4.903   0.112   0.606  0.00  0.00    +0.173 HD
ENDROOT
BRANCH   3   5
ATOM      5  N   UNL     1       6.117   1.777   0.476  0.00  0.00    -0.232 N 
ATOM      6  C   UNL     1       7.281   1.115   0.627  0.00  0.00    +0.267 C 
ATOM      7  O   UNL     1       7.279  -0.089   0.774  0.00  0.00    -0.271 OA
ATOM      8  H   UNL     1       6.118   2.740   0.358  0.00  0.00    +0.173 HD
BRANCH   6   9
ATOM      9  C   UNL     1       8.585   1.871   0.613  0.00  0.00    +0.326 C 
BRANCH   9  10
ATOM     10  O   UNL     1       9.668   0.956   0.790  0.00  0.00    -0.482 OA
BRANCH  10  11
ATOM     11  C   UNL     1      10.922   1.479   0.802  0.00  0.00    +0.135 A 
ATOM     12  C   UNL     1      11.107   2.845   0.646  0.00  0.00    +0.047 A 
ATOM     13  C   UNL     1      12.383   3.374   0.659  0.00  0.00    +0.008 A 
ATOM     14  C   UNL     1      13.476   2.544   0.828  0.00  0.00    -0.041 A 
ATOM     15  C   UNL     1      13.295   1.182   0.984  0.00  0.00    +0.023 A 
ATOM     16  C   UNL     1      12.020   0.648   0.976  0.00  0.00    +0.060 A 
ATOM     17 BR   UNL     1      11.773  -1.214   1.196  0.00  0.00    -0.047 Br
BRANCH  14  18
ATOM     18  C   UNL     1      14.866   3.125   0.842  0.00  0.00    -0.013 C 
ATOM     19  C   UNL     1      14.986   4.133   1.987  0.00  0.00    +0.015 C 
ATOM     20  C   UNL     1      15.886   2.002   1.041  0.00  0.00    +0.015 C 
ATOM     21  C   UNL     1      15.138   3.830  -0.489  0.00  0.00    +0.015 C 
ENDBRANCH  14  18
ENDBRANCH  10  11
ENDBRANCH   9  10
ENDBRANCH   6   9
ENDBRANCH   3   5
BRANCH   1  22
ATOM     22  C   UNL     1       2.437   0.981   0.351  0.00  0.00    +0.106 C 
BRANCH  22  23
ATOM     23  C   UNL     1       1.277   1.961   0.161  0.00  0.00    +0.105 C 
BRANCH  23  25
ATOM     24  N   UNL     1      -1.191   1.867   0.018  0.00  0.00    -0.285 N 
ATOM     25  C   UNL     1      -0.027   1.205   0.175  0.00  0.00    +0.218 C 
ATOM     26  O   UNL     1      -0.028   0.001   0.322  0.00  0.00    -0.275 OA
ATOM     27  H   UNL     1      -1.196   2.836  -0.023  0.00  0.00    +0.155 HD
BRANCH  24  32
ATOM     28  C   UNL     1      -6.058  -1.018  -0.403  0.00  0.00    +0.044 C 
ATOM     29  C   UNL     1      -4.765  -0.251  -0.292  0.00  0.00    -0.047 A 
ATOM     30  C   UNL     1      -3.597  -0.790  -0.800  0.00  0.00    +0.005 A 
ATOM     31  C   UNL     1      -2.412  -0.089  -0.704  0.00  0.00    +0.023 A 
ATOM     32  C   UNL     1      -2.391   1.155  -0.086  0.00  0.00    +0.034 A 
ATOM     33  C   UNL     1      -3.565   1.694   0.423  0.00  0.00    +0.027 A 
ATOM     34  C   UNL     1      -4.749   0.989   0.319  0.00  0.00    -0.046 A 
ATOM     35  C   UNL     1      -6.023   1.573   0.872  0.00  0.00    +0.044 C 
ENDBRANCH  24  32
ENDBRANCH  23  25
ENDBRANCH  22  23
ENDBRANCH   1  22
TORSDOF 9
