REMARK  Name = ZINC50096595
REMARK  4 active torsions:
REMARK  status: ('A' for Active; 'I' for Inactive)
REMARK    1  A    between atoms: C_1  and  C_2
REMARK    2  A    between atoms: C_6  and  C_8
REMARK    3  A    between atoms: N_16  and  N_17
REMARK    4  A    between atoms: C_18  and  C_20
REMARK                            x       y       z     vdW  Elec       q    Type
REMARK                         _______ _______ _______ _____ _____    ______ ____
ROOT
ATOM      1  C   UNL     1       0.054  -2.845   2.487  0.00  0.00    +0.108 C 
ATOM      2  C   UNL     1       1.490  -3.315   2.802  0.00  0.00    +0.029 C 
ATOM      3  C   UNL     1       1.268  -4.725   3.409  0.00  0.00    +0.021 C 
ATOM      4  C   UNL     1       0.063  -5.235   2.580  0.00  0.00    +0.110 C 
ATOM      5  N   UNL     1      -0.788  -4.045   2.377  0.00  0.00    -0.277 N 
ATOM      6  C   UNL     1      -2.113  -4.055   2.131  0.00  0.00    +0.319 C 
ATOM      7  O   UNL     1      -2.728  -3.008   2.072  0.00  0.00    -0.251 OA
ATOM      8  N   UNL     1      -2.756  -5.225   1.952  0.00  0.00    -0.218 N 
ATOM      9  H   UNL     1      -2.282  -6.063   2.070  0.00  0.00    +0.174 HD
ENDROOT
BRANCH   1  15
ATOM     10  C   UNL     1      -0.018   1.500   0.004  0.00  0.00    +0.044 C 
ATOM     11  C   UNL     1       0.002  -0.007  -0.002  0.00  0.00    -0.050 A 
ATOM     12  C   UNL     1       0.006  -0.693  -1.203  0.00  0.00    +0.003 A 
ATOM     13  C   UNL     1       0.024  -2.075  -1.209  0.00  0.00    +0.001 A 
ATOM     14  C   UNL     1       0.040  -2.771  -0.015  0.00  0.00    +0.005 A 
ATOM     15  C   UNL     1       0.037  -2.085   1.185  0.00  0.00    -0.027 A 
ATOM     16  C   UNL     1       0.023  -0.703   1.192  0.00  0.00    +0.008 A 
ENDBRANCH   1  15
BRANCH   8  17
ATOM     17  N   UNL     1      -4.111  -5.233   1.593  0.00  0.00    -0.229 N 
ATOM     18  C   UNL     1      -4.780  -6.400   1.512  0.00  0.00    +0.260 C 
ATOM     19  O   UNL     1      -4.208  -7.446   1.750  0.00  0.00    -0.269 OA
ATOM     20  H   UNL     1      -4.567  -4.398   1.403  0.00  0.00    +0.173 HD
BRANCH  18  21
ATOM     21  C   UNL     1      -6.208  -6.407   1.134  0.00  0.00    +0.038 A 
ATOM     22  C   UNL     1      -6.865  -5.207   0.855  0.00  0.00    +0.016 A 
ATOM     23  C   UNL     1      -8.198  -5.220   0.502  0.00  0.00    +0.039 A 
ATOM     24  C   UNL     1      -8.886  -6.422   0.425  0.00  0.00    +0.123 A 
ATOM     25  C   UNL     1      -8.238  -7.616   0.702  0.00  0.00    +0.039 A 
ATOM     26  C   UNL     1      -6.904  -7.615   1.049  0.00  0.00    +0.016 A 
ATOM     27  F   UNL     1     -10.192  -6.429   0.079  0.00  0.00    -0.205 F 
ENDBRANCH  18  21
ENDBRANCH   8  17
TORSDOF 3
