REMARK  Name = ZINC51661053
REMARK  5 active torsions:
REMARK  status: ('A' for Active; 'I' for Inactive)
REMARK    1  A    between atoms: C_1  and  C_2
REMARK    2  A    between atoms: C_2  and  C_4
REMARK    3  A    between atoms: C_2  and  N_7
REMARK    4  A    between atoms: C_13  and  C_15
REMARK    5  A    between atoms: C_15  and  C_16
REMARK                            x       y       z     vdW  Elec       q    Type
REMARK                         _______ _______ _______ _____ _____    ______ ____
ROOT
ATOM      1  N   UNL     1       0.857  -0.340   1.149  0.00  0.00    -0.287 NA
ATOM      2  C   UNL     1       0.183  -0.030   2.416  0.00  0.00    +0.104 C 
ATOM      3  C   UNL     1       1.168  -0.222   3.575  0.00  0.00    +0.123 C 
ATOM      4  N   UNL     1       1.734  -1.577   3.487  0.00  0.00    -0.299 N 
ATOM      5  C   UNL     1       2.305  -2.010   2.203  0.00  0.00    +0.123 C 
ATOM      6  C   UNL     1       1.276  -1.747   1.098  0.00  0.00    +0.104 C 
ATOM      7  C   UNL     1       1.729  -2.399   4.554  0.00  0.00    +0.214 C 
ATOM      8  O   UNL     1       1.254  -2.025   5.606  0.00  0.00    -0.276 OA
ENDROOT
BRANCH   1  10
ATOM      9  C   UNL     1       0.699  -0.423  -1.294  0.00  0.00    +0.036 C 
ATOM     10  C   UNL     1       0.002  -0.004   0.002  0.00  0.00    +0.168 C 
BRANCH  10  11
ATOM     11  C   UNL     1      -0.247   1.482  -0.020  0.00  0.00    +0.373 C 
ATOM     12  O   UNL     1      -1.175   1.935  -0.669  0.00  0.00    -0.245 OA
ATOM     13  O   UNL     1       0.478   2.231   0.612  0.00  0.00    -0.245 OA
ENDBRANCH  10  11
ENDBRANCH   1  10
BRANCH   7  14
ATOM     14  C   UNL     1       2.314  -3.783   4.442  0.00  0.00    +0.080 C 
BRANCH  14  15
ATOM     15  C   UNL     1       2.183  -4.503   5.786  0.00  0.00    -0.063 C 
ATOM     16  C   UNL     1       2.733  -5.947   5.680  0.00  0.00    -0.017 C 
ATOM     17  C   UNL     1       3.098  -6.253   7.156  0.00  0.00    -0.021 C 
ATOM     18  C   UNL     1       3.603  -4.892   7.678  0.00  0.00    -0.082 C 
ATOM     19  N   UNL     1       3.031  -3.848   6.805  0.00  0.00    +0.381 N 
ATOM     20  H   UNL     1       3.775  -3.339   6.352  0.00  0.00    -0.086 HD
ATOM     21  H   UNL     1       2.472  -3.212   7.354  0.00  0.00    -0.086 HD
ENDBRANCH  14  15
ENDBRANCH   7  14
TORSDOF 4
