REMARK  Name = ZINC27904873
REMARK  6 active torsions:
REMARK  status: ('A' for Active; 'I' for Inactive)
REMARK    1  A    between atoms: C_1  and  C_2
REMARK    2  A    between atoms: C_2  and  O_3
REMARK    3  A    between atoms: O_3  and  C_4
REMARK    4  A    between atoms: C_6  and  C_11
REMARK    5  A    between atoms: C_9  and  O_10
REMARK    6  A    between atoms: C_28  and  C_30
REMARK                            x       y       z     vdW  Elec       q    Type
REMARK                         _______ _______ _______ _____ _____    ______ ____
ROOT
ATOM      1  C   UNL     1       5.106   3.325  -0.024  0.00  0.00    +0.147 C 
ATOM      2  C   UNL     1       6.124   2.267   0.333  0.00  0.00    +0.037 C 
ATOM      3  C   UNL     1       6.818   2.196   1.480  0.00  0.00    +0.017 C 
ATOM      4  C   UNL     1       7.785   1.048   1.724  0.00  0.00    +0.051 C 
ATOM      5  C   UNL     1       8.423   0.618   0.404  0.00  0.00    +0.014 C 
ATOM      6  C   UNL     1       7.297   0.171  -0.535  0.00  0.00    +0.080 C 
ATOM      7  C   UNL     1       6.318   1.297  -0.679  0.00  0.00    +0.163 C 
ATOM      8  O   UNL     1       5.667   1.380  -1.702  0.00  0.00    -0.292 OA
ATOM      9  N   UNL     1       6.726   3.085   2.502  0.00  0.00    -0.316 N 
ATOM     10  C   UNL     1       5.533   3.557   3.035  0.00  0.00    +0.053 A 
ATOM     11  C   UNL     1       5.148   3.291   4.338  0.00  0.00    +0.025 A 
ATOM     12  C   UNL     1       3.969   3.829   4.821  0.00  0.00    +0.002 A 
ATOM     13  C   UNL     1       3.183   4.628   4.010  0.00  0.00    +0.002 A 
ATOM     14  C   UNL     1       3.557   4.881   2.702  0.00  0.00    +0.025 A 
ATOM     15  C   UNL     1       4.727   4.326   2.209  0.00  0.00    +0.058 A 
ATOM     16  N   UNL     1       5.090   4.465   0.869  0.00  0.00    -0.258 N 
ATOM     17  C   UNL     1       5.432   5.680   0.398  0.00  0.00    +0.218 C 
ATOM     18  O   UNL     1       5.749   5.812  -0.765  0.00  0.00    -0.276 OA
ATOM     19  C   UNL     1       5.420   6.875   1.316  0.00  0.00    +0.110 C 
ATOM     20  H   UNL     1       7.639   3.484   2.967  0.00  0.00    +0.152 HD
ENDROOT
BRANCH   1  23
ATOM     21  C   UNL     1       1.744   2.051  -1.183  0.00  0.00    +0.162 A 
ATOM     22  C   UNL     1       3.002   2.632  -1.187  0.00  0.00    +0.055 A 
ATOM     23  C   UNL     1       3.738   2.693  -0.018  0.00  0.00    -0.018 A 
ATOM     24  C   UNL     1       3.222   2.178   1.156  0.00  0.00    +0.009 A 
ATOM     25  C   UNL     1       1.965   1.602   1.167  0.00  0.00    +0.049 A 
ATOM     26  C   UNL     1       1.224   1.532  -0.002  0.00  0.00    +0.158 A 
BRANCH  26  27
ATOM     27  O   UNL     1      -0.010   0.961   0.007  0.00  0.00    -0.503 OA
ATOM     28  H   UNL     1      -0.420   0.551   0.942  0.00  0.00    +0.292 HD
ENDBRANCH  26  27
BRANCH  21  29
ATOM     29  O   UNL     1       1.018   1.990  -2.332  0.00  0.00    -0.489 OA
BRANCH  29  31
ATOM     30  C   UNL     1       0.657   2.384  -4.689  0.00  0.00    +0.048 C 
ATOM     31  C   UNL     1       1.615   2.544  -3.506  0.00  0.00    +0.226 C 
ENDBRANCH  29  31
ENDBRANCH  21  29
ENDBRANCH   1  23
TORSDOF 4
