REMARK  Name = ZINC06385058
REMARK  7 active torsions:
REMARK  status: ('A' for Active; 'I' for Inactive)
REMARK    1  A    between atoms: C_1  and  O_2
REMARK    2  A    between atoms: O_2  and  C_3
REMARK    3  A    between atoms: C_3  and  C_5
REMARK    4  A    between atoms: C_5  and  C_16
REMARK    5  A    between atoms: C_6  and  C_14
REMARK    6  A    between atoms: C_16  and  C_17
REMARK    7  A    between atoms: C_17  and  C_19
REMARK                            x       y       z     vdW  Elec       q    Type
REMARK                         _______ _______ _______ _____ _____    ______ ____
ROOT
ATOM      1  C   UNL     1       0.659  -2.113  -1.113  0.00  0.00    +0.162 C 
ATOM      2  C   UNL     1       1.851  -2.546  -1.969  0.00  0.00    +0.212 C 
ATOM      3  C   UNL     1       3.126  -2.310  -1.198  0.00  0.00    +0.238 C 
ATOM      4  O   UNL     1       4.135  -1.977  -1.782  0.00  0.00    -0.274 OA
ATOM      5  N   UNL     1       3.142  -2.469   0.138  0.00  0.00    -0.267 N 
ATOM      6  C   UNL     1       2.017  -2.750   0.815  0.00  0.00    +0.137 C 
ATOM      7  S   UNL     1       2.127  -3.246   2.450  0.00  0.00    -0.018 S 
ATOM      8  N   UNL     1       0.807  -2.651   0.240  0.00  0.00    -0.309 N 
ATOM      9  H   UNL     1       3.980  -2.379   0.619  0.00  0.00    +0.157 HD
ATOM     10  H   UNL     1       0.021  -2.940   0.729  0.00  0.00    +0.149 HD
ENDROOT
BRANCH   1  11
ATOM     11  C   UNL     1       0.604  -0.609  -1.052  0.00  0.00    +0.333 C 
ATOM     12  O   UNL     1       1.098   0.050  -1.937  0.00  0.00    -0.248 OA
BRANCH  11  14
ATOM     13  C   UNL     1      -0.009   1.429  -0.023  0.00  0.00    +0.280 C 
ATOM     14  O   UNL     1       0.006  -0.000  -0.016  0.00  0.00    -0.466 OA
ENDBRANCH  11  14
ENDBRANCH   1  11
BRANCH   2  15
ATOM     15  C   UNL     1       1.730  -3.976  -2.295  0.00  0.00    +0.078 C 
ATOM     16  N   UNL     1       1.636  -5.080  -2.546  0.00  0.00    -0.196 NA
ENDBRANCH   2  15
BRANCH   1  17
ATOM     17  C   UNL     1      -0.634  -2.646  -1.735  0.00  0.00    +0.118 C 
BRANCH  17  18
ATOM     18  C   UNL     1      -1.809  -2.220  -0.893  0.00  0.00    +0.166 C 
ATOM     19  O   UNL     1      -1.630  -1.555   0.106  0.00  0.00    -0.292 OA
BRANCH  18  20
ATOM     20  C   UNL     1      -3.169  -2.608  -1.281  0.00  0.00    +0.025 A 
ATOM     21  C   UNL     1      -3.404  -3.269  -2.484  0.00  0.00    +0.012 A 
ATOM     22  C   UNL     1      -4.691  -3.634  -2.847  0.00  0.00    +0.001 A 
ATOM     23  C   UNL     1      -5.766  -3.366  -2.054  0.00  0.00    +0.008 A 
ATOM     24  C   UNL     1      -5.604  -2.703  -0.827  0.00  0.00    -0.017 A 
ATOM     25  C   UNL     1      -4.307  -2.315  -0.410  0.00  0.00    -0.007 A 
ATOM     26  C   UNL     1      -4.141  -1.658   0.814  0.00  0.00    +0.009 A 
ATOM     27  C   UNL     1      -5.230  -1.404   1.596  0.00  0.00    +0.001 A 
ATOM     28  C   UNL     1      -6.506  -1.789   1.192  0.00  0.00    +0.001 A 
ATOM     29  C   UNL     1      -6.704  -2.419   0.001  0.00  0.00    +0.008 A 
ENDBRANCH  18  20
ENDBRANCH  17  18
ENDBRANCH   1  17
TORSDOF 6
