REMARK  Name = ZINC05648295
REMARK  5 active torsions:
REMARK  status: ('A' for Active; 'I' for Inactive)
REMARK    1  A    between atoms: C_1  and  C_2
REMARK    2  A    between atoms: C_7  and  C_12
REMARK    3  A    between atoms: C_13  and  O_21
REMARK    4  A    between atoms: N_14  and  C_18
REMARK    5  A    between atoms: C_18  and  C_19
REMARK                            x       y       z     vdW  Elec       q    Type
REMARK                         _______ _______ _______ _____ _____    ______ ____
ROOT
ATOM      1  C   UNL     1      -3.528  -2.590  -9.302  0.00  0.00    +0.046 C 
ATOM      2  C   UNL     1      -2.924  -3.235  -8.082  0.00  0.00    -0.027 A 
ATOM      3  C   UNL     1      -2.481  -4.540  -8.139  0.00  0.00    +0.005 A 
ATOM      4  C   UNL     1      -1.922  -5.151  -7.028  0.00  0.00    +0.001 A 
ATOM      5  C   UNL     1      -1.801  -4.457  -5.839  0.00  0.00    +0.010 A 
ATOM      6  C   UNL     1      -2.236  -3.138  -5.764  0.00  0.00    +0.012 A 
ATOM      7  C   UNL     1      -2.265  -2.133  -4.686  0.00  0.00    +0.067 C 
ATOM      8  C   UNL     1      -2.883  -0.934  -5.318  0.00  0.00    +0.270 C 
ATOM      9  O   UNL     1      -3.093   0.138  -4.773  0.00  0.00    -0.268 OA
ATOM     10  N   UNL     1      -3.163  -1.236  -6.572  0.00  0.00    -0.176 NA
ATOM     11  C   UNL     1      -2.813  -2.510  -6.892  0.00  0.00    +0.068 A 
ENDROOT
BRANCH   7  12
ATOM     12  C   UNL     1      -1.814  -2.271  -3.386  0.00  0.00    +0.087 A 
ATOM     13  C   UNL     1      -1.823  -1.294  -2.278  0.00  0.00    +0.209 A 
ATOM     14  N   UNL     1      -1.318  -1.700  -1.126  0.00  0.00    -0.296 N 
ATOM     15  C   UNL     1      -0.830  -2.947  -0.971  0.00  0.00    +0.129 A 
ATOM     16  S   UNL     1      -0.147  -3.656   0.430  0.00  0.00    -0.025 S 
ATOM     17  S   UNL     1      -1.068  -3.682  -2.581  0.00  0.00    -0.058 S 
BRANCH  13  18
ATOM     18  O   UNL     1      -2.314  -0.055  -2.434  0.00  0.00    -0.493 OA
ATOM     19  H   UNL     1      -1.696   0.628  -2.729  0.00  0.00    +0.294 HD
ENDBRANCH  13  18
BRANCH  14  20
ATOM     20  C   UNL     1      -1.293  -0.775   0.010  0.00  0.00    +0.153 C 
BRANCH  20  21
ATOM     21  C   UNL     1       0.002  -0.004   0.002  0.00  0.00    -0.013 C 
ATOM     22  C   UNL     1      -0.016   1.306   0.009  0.00  0.00    +0.005 C 
ENDBRANCH  20  21
ENDBRANCH  14  20
ENDBRANCH   7  12
TORSDOF 4
