REMARK  Name = ZINC40307511
REMARK  6 active torsions:
REMARK  status: ('A' for Active; 'I' for Inactive)
REMARK    1  A    between atoms: C_1  and  C_2
REMARK    2  A    between atoms: C_2  and  C_3
REMARK    3  A    between atoms: C_3  and  N_4
REMARK    4  A    between atoms: C_6  and  N_11
REMARK    5  A    between atoms: C_12  and  C_14
REMARK    6  A    between atoms: C_16  and  N_20
REMARK                            x       y       z     vdW  Elec       q    Type
REMARK                         _______ _______ _______ _____ _____    ______ ____
ROOT
ATOM      1  N   UNL     1      -1.300  -4.724   2.445  0.00  0.00    -0.279 N 
ATOM      2  C   UNL     1      -2.062  -5.568   1.722  0.00  0.00    +0.265 C 
ATOM      3  O   UNL     1      -1.785  -5.793   0.558  0.00  0.00    -0.268 OA
ATOM      4  H   UNL     1      -1.479  -4.598   3.390  0.00  0.00    +0.155 HD
ENDROOT
BRANCH   1   7
ATOM      5  N   UNL     1       0.796  -1.982   1.278  0.00  0.00    -0.313 N 
ATOM      6  C   UNL     1      -0.218  -2.668   1.869  0.00  0.00    +0.112 A 
ATOM      7  C   UNL     1      -0.249  -4.026   1.831  0.00  0.00    +0.050 A 
ATOM      8  C   UNL     1       0.776  -4.731   1.175  0.00  0.00    +0.030 A 
ATOM      9  C   UNL     1       1.790  -4.036   0.584  0.00  0.00    +0.072 A 
ATOM     10  C   UNL     1       1.787  -2.632   0.639  0.00  0.00    +0.251 A 
ATOM     11  O   UNL     1       2.687  -2.000   0.109  0.00  0.00    -0.268 OA
BRANCH   5  12
ATOM     12  C   UNL     1       0.808  -0.518   1.333  0.00  0.00    +0.124 C 
BRANCH  12  14
ATOM     13  C   UNL     1       0.067   1.572   0.182  0.00  0.00    +0.005 C 
ATOM     14  C   UNL     1       0.054   0.043   0.125  0.00  0.00    +0.018 C 
ENDBRANCH  12  14
ENDBRANCH   5  12
ENDBRANCH   1   7
BRANCH   2  15
ATOM     15  C   UNL     1      -3.225  -6.216   2.337  0.00  0.00    +0.104 A 
ATOM     16  C   UNL     1      -4.084  -7.102   1.720  0.00  0.00    +0.055 A 
ATOM     17  C   UNL     1      -5.047  -7.472   2.670  0.00  0.00    +0.043 A 
ATOM     18  C   UNL     1      -4.762  -6.817   3.826  0.00  0.00    +0.106 A 
ATOM     19  N   UNL     1      -3.652  -6.055   3.635  0.00  0.00    -0.355 N 
ATOM     20  H   UNL     1      -3.233  -5.489   4.302  0.00  0.00    +0.166 HD
BRANCH  17  21
ATOM     21  N   UNL     1      -6.117  -8.361   2.462  0.00  0.00    -0.357 N 
ATOM     22  H   UNL     1      -6.238  -8.781   1.596  0.00  0.00    +0.142 HD
ATOM     23  H   UNL     1      -6.734  -8.555   3.186  0.00  0.00    +0.142 HD
ENDBRANCH  17  21
ENDBRANCH   2  15
TORSDOF 5
