REMARK  Name = ZINC38187081
REMARK  7 active torsions:
REMARK  status: ('A' for Active; 'I' for Inactive)
REMARK    1  A    between atoms: C_1  and  C_2
REMARK    2  A    between atoms: C_5  and  N_9
REMARK    3  A    between atoms: C_6  and  O_8
REMARK    4  A    between atoms: C_10  and  C_12
REMARK    5  A    between atoms: C_12  and  C_14
REMARK    6  A    between atoms: C_14  and  C_26
REMARK    7  A    between atoms: C_26  and  C_28
REMARK                            x       y       z     vdW  Elec       q    Type
REMARK                         _______ _______ _______ _____ _____    ______ ____
ROOT
ATOM      1  C   UNL     1      -0.016  -7.191  -2.364  0.00  0.00    +0.100 C 
ATOM      2  C   UNL     1       0.072  -8.585  -2.373  0.00  0.00    +0.109 C 
ATOM      3  C   UNL     1      -0.036  -9.350  -1.106  0.00  0.00    +0.263 C 
ATOM      4  O   UNL     1      -0.203  -8.770  -0.051  0.00  0.00    -0.268 OA
ATOM      5  N   UNL     1       0.052 -10.696  -1.136  0.00  0.00    -0.279 N 
ATOM      6  C   UNL     1       0.242 -11.355  -2.345  0.00  0.00    +0.055 A 
ATOM      7  C   UNL     1       0.332 -12.743  -2.368  0.00  0.00    +0.025 A 
ATOM      8  C   UNL     1       0.521 -13.403  -3.564  0.00  0.00    +0.002 A 
ATOM      9  C   UNL     1       0.623 -12.689  -4.747  0.00  0.00    +0.002 A 
ATOM     10  C   UNL     1       0.536 -11.313  -4.739  0.00  0.00    +0.025 A 
ATOM     11  C   UNL     1       0.344 -10.635  -3.539  0.00  0.00    +0.053 A 
ATOM     12  N   UNL     1       0.253  -9.250  -3.537  0.00  0.00    -0.308 N 
ATOM     13  H   UNL     1      -0.018 -11.204  -0.313  0.00  0.00    +0.155 HD
ATOM     14  H   UNL     1       0.321  -8.758  -4.370  0.00  0.00    +0.152 HD
ENDROOT
BRANCH   1  15
ATOM     15  C   UNL     1      -0.060  -6.469  -1.093  0.00  0.00    +0.253 C 
ATOM     16  O   UNL     1       0.914  -6.456  -0.367  0.00  0.00    -0.282 OA
BRANCH  15  18
ATOM     17  N   UNL     1      -1.308  -4.994   0.429  0.00  0.00    -0.276 N 
ATOM     18  C   UNL     1      -1.301  -5.749  -0.688  0.00  0.00    +0.289 C 
ATOM     19  O   UNL     1      -2.306  -5.843  -1.363  0.00  0.00    -0.266 OA
ATOM     20  H   UNL     1      -0.504  -4.915   0.966  0.00  0.00    +0.155 HD
BRANCH  17  25
ATOM     21  C   UNL     1      -6.043  -2.278   1.985  0.00  0.00    +0.044 C 
ATOM     22  C   UNL     1      -4.785  -2.999   1.574  0.00  0.00    -0.047 A 
ATOM     23  C   UNL     1      -4.629  -3.425   0.268  0.00  0.00    +0.005 A 
ATOM     24  C   UNL     1      -3.478  -4.086  -0.115  0.00  0.00    +0.027 A 
ATOM     25  C   UNL     1      -2.474  -4.324   0.813  0.00  0.00    +0.076 A 
ATOM     26  C   UNL     1      -2.631  -3.894   2.130  0.00  0.00    +0.138 A 
ATOM     27  C   UNL     1      -3.787  -3.227   2.503  0.00  0.00    +0.050 A 
BRANCH  26  28
ATOM     28  O   UNL     1      -1.651  -4.124   3.044  0.00  0.00    -0.505 OA
ATOM     29  H   UNL     1      -0.993  -3.418   3.100  0.00  0.00    +0.292 HD
ENDBRANCH  26  28
ENDBRANCH  17  25
ENDBRANCH  15  18
ENDBRANCH   1  15
BRANCH   1  30
ATOM     30  C   UNL     1      -0.065  -6.450  -3.632  0.00  0.00    +0.199 C 
ATOM     31  O   UNL     1      -1.032  -6.557  -4.363  0.00  0.00    -0.286 OA
BRANCH  30  32
ATOM     32  C   UNL     1       1.060  -5.574  -4.021  0.00  0.00    +0.022 A 
ATOM     33  C   UNL     1       2.227  -5.550  -3.254  0.00  0.00    +0.012 A 
ATOM     34  C   UNL     1       3.274  -4.730  -3.622  0.00  0.00    +0.001 A 
ATOM     35  C   UNL     1       3.169  -3.933  -4.748  0.00  0.00    +0.000 A 
ATOM     36  C   UNL     1       2.016  -3.951  -5.512  0.00  0.00    +0.001 A 
ATOM     37  C   UNL     1       0.964  -4.770  -5.159  0.00  0.00    +0.012 A 
ENDBRANCH  30  32
ENDBRANCH   1  30
TORSDOF 6
