REMARK  Name = ZINC02064528
REMARK  6 active torsions:
REMARK  status: ('A' for Active; 'I' for Inactive)
REMARK    1  A    between atoms: C_4  and  C_7
REMARK    2  A    between atoms: N_9  and  C_10
REMARK    3  A    between atoms: C_10  and  N_12
REMARK    4  A    between atoms: N_12  and  N_13
REMARK    5  A    between atoms: C_14  and  C_16
REMARK    6  A    between atoms: C_21  and  N_22
REMARK                            x       y       z     vdW  Elec       q    Type
REMARK                         _______ _______ _______ _____ _____    ______ ____
ROOT
ATOM      1  N   UNL     1       5.447  -4.747   0.579  0.00  0.00    -0.245 N 
ATOM      2  H   UNL     1       6.204  -5.314   0.363  0.00  0.00    +0.172 HD
ENDROOT
BRANCH   1   3
ATOM      3  N   UNL     1       4.145  -5.256   0.497  0.00  0.00    -0.231 N 
ATOM      4  C   UNL     1       3.943  -6.534   0.118  0.00  0.00    +0.262 C 
ATOM      5  O   UNL     1       4.892  -7.244  -0.153  0.00  0.00    -0.269 OA
ATOM      6  H   UNL     1       3.388  -4.689   0.713  0.00  0.00    +0.173 HD
BRANCH   4   7
ATOM      7  C   UNL     1       2.569  -7.071   0.031  0.00  0.00    +0.068 A 
ATOM      8  C   UNL     1       1.716  -6.997   1.135  0.00  0.00    +0.015 A 
ATOM      9  C   UNL     1       0.435  -7.501   1.047  0.00  0.00    +0.001 A 
ATOM     10  C   UNL     1      -0.006  -8.078  -0.130  0.00  0.00    +0.002 A 
ATOM     11  C   UNL     1       0.833  -8.154  -1.227  0.00  0.00    +0.033 A 
ATOM     12  C   UNL     1       2.115  -7.649  -1.155  0.00  0.00    +0.138 A 
BRANCH  12  13
ATOM     13  N   UNL     1       3.010  -7.726  -2.332  0.00  0.00    +0.057 N 
ATOM     14  O   UNL     1       2.663  -8.335  -3.317  0.00  0.00    -0.126 OA
ATOM     15  O   UNL     1       4.089  -7.180  -2.308  0.00  0.00    -0.126 OA
ENDBRANCH  12  13
ENDBRANCH   4   7
ENDBRANCH   1   3
BRANCH   1  16
ATOM     16  C   UNL     1       5.649  -3.470   0.958  0.00  0.00    +0.153 C 
ATOM     17  S   UNL     1       7.241  -2.847   1.058  0.00  0.00    -0.017 S 
BRANCH  16  20
ATOM     18  C   UNL     1       4.799  -1.404   1.637  0.00  0.00    +0.250 C 
ATOM     19  O   UNL     1       5.929  -0.963   1.708  0.00  0.00    -0.270 OA
ATOM     20  N   UNL     1       4.597  -2.682   1.258  0.00  0.00    -0.263 N 
ATOM     21  H   UNL     1       3.696  -3.034   1.202  0.00  0.00    +0.157 HD
BRANCH  18  25
ATOM     22  C   UNL     1       1.485   1.079   2.582  0.00  0.00    +0.000 A 
ATOM     23  C   UNL     1       2.770   1.584   2.665  0.00  0.00    +0.001 A 
ATOM     24  C   UNL     1       3.851   0.783   2.360  0.00  0.00    +0.013 A 
ATOM     25  C   UNL     1       3.646  -0.540   1.967  0.00  0.00    +0.037 A 
ATOM     26  C   UNL     1       2.347  -1.045   1.885  0.00  0.00    +0.013 A 
ATOM     27  C   UNL     1       1.275  -0.233   2.193  0.00  0.00    +0.001 A 
ENDBRANCH  18  25
ENDBRANCH  16  20
ENDBRANCH   1  16
TORSDOF 6
