REMARK  Name = ZINC38741730
REMARK  2 active torsions:
REMARK  status: ('A' for Active; 'I' for Inactive)
REMARK    1  A    between atoms: C_20  and  N_23
REMARK    2  A    between atoms: N_23  and  C_24
REMARK                            x       y       z     vdW  Elec       q    Type
REMARK                         _______ _______ _______ _____ _____    ______ ____
ROOT
ATOM      1  C   UNL     1       0.797   0.779  -0.259  0.00  0.00    +0.002 A 
ATOM      2  C   UNL     1      -0.304   1.614  -0.138  0.00  0.00    +0.002 A 
ATOM      3  C   UNL     1      -1.572   1.087  -0.043  0.00  0.00    +0.030 A 
ATOM      4  C   UNL     1      -1.752  -0.298  -0.070  0.00  0.00    +0.091 A 
ATOM      5  N   UNL     1      -2.849  -1.098   0.002  0.00  0.00    -0.213 NA
ATOM      6  C   UNL     1      -2.481  -2.354  -0.069  0.00  0.00    +0.211 A 
ATOM      7  N   UNL     1      -1.124  -2.434  -0.190  0.00  0.00    -0.325 N 
ATOM      8  C   UNL     1      -0.634  -1.138  -0.193  0.00  0.00    +0.067 A 
ATOM      9  C   UNL     1       0.636  -0.591  -0.287  0.00  0.00    +0.028 A 
ATOM     10  N   UNL     1      -3.338  -3.433  -0.026  0.00  0.00    -0.231 N 
ATOM     11  C   UNL     1      -4.815  -3.346   0.100  0.00  0.00    +0.107 C 
ATOM     12  C   UNL     1      -5.127  -3.312   1.597  0.00  0.00    +0.025 C 
ATOM     13  C   UNL     1      -6.613  -3.541   1.860  0.00  0.00    +0.009 C 
ATOM     14  C   UNL     1      -6.962  -4.976   1.442  0.00  0.00    +0.075 C 
ATOM     15  C   UNL     1      -6.612  -5.113  -0.022  0.00  0.00    +0.141 C 
ATOM     16  O   UNL     1      -7.420  -5.574  -0.791  0.00  0.00    -0.297 OA
ATOM     17  C   UNL     1      -5.275  -4.675  -0.538  0.00  0.00    +0.113 C 
ATOM     18  C   UNL     1      -4.149  -5.622  -0.072  0.00  0.00    +0.168 C 
ATOM     19  N   UNL     1      -2.956  -4.744  -0.099  0.00  0.00    -0.217 NA
ATOM     20  H   UNL     1      -0.600  -3.247  -0.260  0.00  0.00    +0.169 HD
ATOM     21  H   UNL     1      -2.321  -4.977   0.649  0.00  0.00    +0.147 HD
ENDROOT
BRANCH  18  22
ATOM     22  N   UNL     1      -4.412  -6.115   1.282  0.00  0.00    -0.327 N 
ATOM     23  H   UNL     1      -4.742  -5.508   1.964  0.00  0.00    +0.148 HD
BRANCH  22  24
ATOM     24  C   UNL     1      -4.188  -7.458   1.593  0.00  0.00    +0.031 A 
ATOM     25  C   UNL     1      -3.569  -8.291   0.670  0.00  0.00    +0.043 A 
ATOM     26  C   UNL     1      -3.348  -9.620   0.980  0.00  0.00    +0.044 A 
ATOM     27  C   UNL     1      -3.744 -10.121   2.208  0.00  0.00    +0.040 A 
ATOM     28  C   UNL     1      -4.362  -9.293   3.129  0.00  0.00    +0.044 A 
ATOM     29  C   UNL     1      -4.580  -7.962   2.827  0.00  0.00    +0.043 A 
ATOM     30 CL   UNL     1      -4.857  -9.925   4.668  0.00  0.00    -0.083 Cl
ATOM     31 CL   UNL     1      -2.574 -10.662  -0.173  0.00  0.00    -0.083 Cl
ENDBRANCH  22  24
ENDBRANCH  18  22
TORSDOF 2
