REMARK  Name = ZINC66483251
REMARK  5 active torsions:
REMARK  status: ('A' for Active; 'I' for Inactive)
REMARK    1  A    between atoms: C_1  and  C_2
REMARK    2  A    between atoms: C_2  and  C_17
REMARK    3  A    between atoms: N_5  and  C_9
REMARK    4  A    between atoms: C_9  and  C_10
REMARK    5  A    between atoms: C_10  and  O_16
REMARK                            x       y       z     vdW  Elec       q    Type
REMARK                         _______ _______ _______ _____ _____    ______ ____
ROOT
ATOM      1  C   UNL     1      -0.019   1.526   0.010  0.00  0.00    +0.047 C 
ATOM      2  C   UNL     1       0.002  -0.004   0.002  0.00  0.00    +0.138 C 
ATOM      3  C   UNL     1      -1.403  -0.557   0.139  0.00  0.00    +0.251 C 
ATOM      4  O   UNL     1      -2.332  -0.392  -0.621  0.00  0.00    -0.272 OA
ATOM      5  N   UNL     1      -1.403  -1.272   1.282  0.00  0.00    -0.221 N 
ATOM      6  C   UNL     1      -0.206  -1.247   1.879  0.00  0.00    +0.310 C 
ATOM      7  O   UNL     1       0.040  -1.819   2.924  0.00  0.00    -0.252 OA
ATOM      8  N   UNL     1       0.695  -0.520   1.195  0.00  0.00    -0.281 N 
ATOM      9  H   UNL     1       1.621  -0.365   1.440  0.00  0.00    +0.152 HD
ENDROOT
BRANCH   2  10
ATOM     10  C   UNL     1       0.657  -0.517  -1.255  0.00  0.00    +0.020 A 
ATOM     11  C   UNL     1       1.795  -1.298  -1.172  0.00  0.00    +0.012 A 
ATOM     12  C   UNL     1       2.396  -1.769  -2.323  0.00  0.00    +0.039 A 
ATOM     13  C   UNL     1       1.859  -1.459  -3.562  0.00  0.00    +0.126 A 
ATOM     14  C   UNL     1       0.721  -0.678  -3.646  0.00  0.00    +0.077 A 
ATOM     15  C   UNL     1       0.116  -0.211  -2.492  0.00  0.00    +0.132 A 
ATOM     16  F   UNL     1      -0.999   0.548  -2.572  0.00  0.00    -0.205 F 
ATOM     17  F   UNL     1       2.448  -1.919  -4.687  0.00  0.00    -0.205 F 
ENDBRANCH   2  10
BRANCH   5  18
ATOM     18  C   UNL     1      -2.569  -1.986   1.805  0.00  0.00    +0.152 C 
BRANCH  18  19
ATOM     19  C   UNL     1      -2.585  -3.413   1.252  0.00  0.00    +0.082 C 
ATOM     20  C   UNL     1      -2.533  -3.367  -0.277  0.00  0.00    +0.036 C 
ATOM     21  C   UNL     1      -2.548  -4.793  -0.831  0.00  0.00    +0.003 C 
ATOM     22  C   UNL     1      -3.830  -5.499  -0.385  0.00  0.00    +0.000 C 
ATOM     23  C   UNL     1      -3.882  -5.545   1.143  0.00  0.00    +0.003 C 
ATOM     24  C   UNL     1      -3.867  -4.119   1.697  0.00  0.00    +0.036 C 
BRANCH  19  25
ATOM     25  O   UNL     1      -1.450  -4.128   1.745  0.00  0.00    -0.387 OA
ATOM     26  H   UNL     1      -0.601  -3.736   1.500  0.00  0.00    +0.210 HD
ENDBRANCH  19  25
ENDBRANCH  18  19
ENDBRANCH   5  18
TORSDOF 4
