REMARK  Name = ZINC01666485
REMARK  5 active torsions:
REMARK  status: ('A' for Active; 'I' for Inactive)
REMARK    1  A    between atoms: C_1  and  C_2
REMARK    2  A    between atoms: C_2  and  C_3
REMARK    3  A    between atoms: C_3  and  C_10
REMARK    4  A    between atoms: C_10  and  C_11
REMARK    5  A    between atoms: C_10  and  C_12
REMARK                            x       y       z     vdW  Elec       q    Type
REMARK                         _______ _______ _______ _____ _____    ______ ____
ROOT
ATOM      1  C   UNL     1       0.593   3.169   0.013  0.00  0.00    +0.114 C 
ATOM      2  C   UNL     1       1.093   1.738   0.001  0.00  0.00    +0.244 C 
ATOM      3  O   UNL     1       2.247   1.366  -0.012  0.00  0.00    -0.273 OA
ATOM      4  N   UNL     1      -0.011   0.966   0.007  0.00  0.00    -0.238 N 
ATOM      5  C   UNL     1      -1.128   1.702   0.016  0.00  0.00    +0.307 C 
ATOM      6  O   UNL     1      -2.248   1.231   0.019  0.00  0.00    -0.252 OA
ATOM      7  N   UNL     1      -0.873   3.023   0.025  0.00  0.00    -0.285 N 
ATOM      8  H   UNL     1       0.002  -0.004   0.002  0.00  0.00    +0.159 HD
ATOM      9  H   UNL     1      -1.526   3.740   0.035  0.00  0.00    +0.151 HD
ENDROOT
BRANCH   1  10
ATOM     10  C   UNL     1       1.073   3.897   1.270  0.00  0.00    +0.015 C 
ATOM     11  C   UNL     1       0.662   3.099   2.509  0.00  0.00    +0.010 C 
ATOM     12  C   UNL     1       2.596   4.031   1.232  0.00  0.00    +0.010 C 
ENDBRANCH   1  10
BRANCH   1  14
ATOM     13  C   UNL     1       0.409   3.264  -2.477  0.00  0.00    +0.006 C 
ATOM     14  C   UNL     1       1.050   3.909  -1.246  0.00  0.00    +0.032 C 
ENDBRANCH   1  14
TORSDOF 2
