REMARK  Name = ZINC18130930
REMARK  2 active torsions:
REMARK  status: ('A' for Active; 'I' for Inactive)
REMARK    1  A    between atoms: N_11  and  C_12
REMARK    2  A    between atoms: C_15  and  C_16
REMARK                            x       y       z     vdW  Elec       q    Type
REMARK                         _______ _______ _______ _____ _____    ______ ____
ROOT
ATOM      1  C   UNL     1       4.995  -3.846  -0.040  0.00  0.00    +0.224 C 
ATOM      2  N   UNL     1       3.942  -4.638  -0.050  0.00  0.00    -0.266 NA
ATOM      3  N   UNL     1       6.250  -4.380   0.020  0.00  0.00    -0.330 N 
ATOM      4  C   UNL     1       6.407  -5.675   0.069  0.00  0.00    +0.095 C 
ATOM      5  H   UNL     1       3.055  -4.264  -0.171  0.00  0.00    +0.190 HD
ATOM      6  H   UNL     1       7.025  -3.797   0.027  0.00  0.00    +0.168 HD
ENDROOT
BRANCH   1  17
ATOM      7  C   UNL     1       2.081   1.447   3.836  0.00  0.00    +0.001 A 
ATOM      8  C   UNL     1       2.654   2.152   2.780  0.00  0.00    +0.002 A 
ATOM      9  C   UNL     1       3.320   1.506   1.782  0.00  0.00    +0.028 A 
ATOM     10  C   UNL     1       3.433   0.108   1.813  0.00  0.00    +0.080 A 
ATOM     11  C   UNL     1       2.848  -0.610   2.889  0.00  0.00    +0.065 A 
ATOM     12  C   UNL     1       2.170   0.088   3.900  0.00  0.00    +0.015 A 
ATOM     13  C   UNL     1       2.965  -2.013   2.914  0.00  0.00    +0.261 A 
ATOM     14  N   UNL     1       3.632  -2.621   1.908  0.00  0.00    -0.291 N 
ATOM     15  C   UNL     1       4.180  -1.881   0.889  0.00  0.00    +0.234 A 
ATOM     16  N   UNL     1       4.080  -0.561   0.849  0.00  0.00    -0.212 NA
ATOM     17  N   UNL     1       4.833  -2.512  -0.090  0.00  0.00    -0.177 NA
ATOM     18  O   UNL     1       2.426  -2.731   3.915  0.00  0.00    -0.267 OA
ATOM     19  H   UNL     1       3.724  -3.586   1.906  0.00  0.00    +0.172 HD
ENDBRANCH   1  17
BRANCH   4  20
ATOM     20  C   UNL     1       7.757  -6.255   0.015  0.00  0.00    +0.009 A 
ATOM     21  C   UNL     1       8.881  -5.422   0.035  0.00  0.00    +0.012 A 
ATOM     22  C   UNL     1      10.143  -5.972  -0.016  0.00  0.00    +0.021 A 
ATOM     23  C   UNL     1      10.302  -7.347  -0.087  0.00  0.00    +0.042 A 
ATOM     24  C   UNL     1       9.195  -8.179  -0.107  0.00  0.00    +0.040 A 
ATOM     25  C   UNL     1       7.924  -7.643  -0.050  0.00  0.00    +0.051 A 
ATOM     26 CL   UNL     1       6.538  -8.688  -0.068  0.00  0.00    -0.083 Cl
ATOM     27 CL   UNL     1      11.896  -8.030  -0.150  0.00  0.00    -0.083 Cl
ENDBRANCH   4  20
TORSDOF 2
