REMARK  Name = ZINC08304377
REMARK  5 active torsions:
REMARK  status: ('A' for Active; 'I' for Inactive)
REMARK    1  A    between atoms: C_1  and  C_2
REMARK    2  A    between atoms: C_7  and  N_8
REMARK    3  A    between atoms: C_9  and  C_11
REMARK    4  A    between atoms: C_11  and  N_12
REMARK    5  A    between atoms: C_16  and  N_22
REMARK                            x       y       z     vdW  Elec       q    Type
REMARK                         _______ _______ _______ _____ _____    ______ ____
ROOT
ATOM      1  N   UNL     1       0.984   0.635   5.955  0.00  0.00    -0.265 N 
ATOM      2  C   UNL     1       1.269  -0.396   6.849  0.00  0.00    +0.091 A 
ATOM      3  C   UNL     1       0.803  -1.695   6.984  0.00  0.00    +0.032 A 
ATOM      4  C   UNL     1       1.289  -2.497   7.997  0.00  0.00    +0.035 A 
ATOM      5  C   UNL     1       2.239  -2.009   8.877  0.00  0.00    +0.130 A 
ATOM      6  C   UNL     1       2.708  -0.716   8.749  0.00  0.00    +0.081 A 
ATOM      7  C   UNL     1       2.226   0.097   7.735  0.00  0.00    +0.159 A 
ATOM      8  O   UNL     1       2.491   1.375   7.370  0.00  0.00    -0.407 OA
ATOM      9  C   UNL     1       1.748   1.691   6.298  0.00  0.00    +0.422 A 
ATOM     10  O   UNL     1       1.760   2.765   5.726  0.00  0.00    -0.223 OA
ENDROOT
BRANCH   5  11
ATOM     11  N   UNL     1       2.755  -2.875   9.961  0.00  0.00    +0.057 N 
ATOM     12  O   UNL     1       2.346  -4.007  10.076  0.00  0.00    -0.126 OA
ATOM     13  O   UNL     1       3.585  -2.451  10.731  0.00  0.00    -0.126 OA
ENDBRANCH   5  11
BRANCH   1  14
ATOM     14  C   UNL     1       0.033   0.579   4.842  0.00  0.00    +0.224 C 
BRANCH  14  16
ATOM     15  N   UNL     1       0.056  -0.038   2.447  0.00  0.00    -0.311 N 
ATOM     16  C   UNL     1       0.738   0.093   3.602  0.00  0.00    +0.233 C 
ATOM     17  O   UNL     1       1.919  -0.179   3.644  0.00  0.00    -0.274 OA
ATOM     18  H   UNL     1      -0.888   0.180   2.413  0.00  0.00    +0.149 HD
BRANCH  15  25
ATOM     19  C   UNL     1      -0.019   1.526   0.010  0.00  0.00    +0.009 C 
ATOM     20  C   UNL     1       0.002  -0.004   0.002  0.00  0.00    +0.006 C 
ATOM     21  C   UNL     1       0.718  -0.497  -1.257  0.00  0.00    +0.005 C 
ATOM     22  C   UNL     1       0.739  -2.027  -1.265  0.00  0.00    +0.000 C 
ATOM     23  C   UNL     1       1.479  -2.534  -0.026  0.00  0.00    +0.002 C 
ATOM     24  C   UNL     1       0.763  -2.041   1.233  0.00  0.00    +0.022 C 
ATOM     25  C   UNL     1       0.742  -0.511   1.242  0.00  0.00    +0.076 C 
ENDBRANCH  15  25
ENDBRANCH  14  16
ENDBRANCH   1  14
TORSDOF 4
