REMARK  Name = ZINC37648752
REMARK  6 active torsions:
REMARK  status: ('A' for Active; 'I' for Inactive)
REMARK    1  A    between atoms: C_3  and  N_20
REMARK    2  A    between atoms: C_6  and  N_7
REMARK    3  A    between atoms: N_7  and  C_8
REMARK    4  A    between atoms: C_8  and  C_9
REMARK    5  A    between atoms: N_13  and  C_15
REMARK    6  A    between atoms: C_15  and  C_16
REMARK                            x       y       z     vdW  Elec       q    Type
REMARK                         _______ _______ _______ _____ _____    ______ ____
ROOT
ATOM      1  N   UNL     1      -1.197  -0.720   0.010  0.00  0.00    -0.344 N 
ATOM      2  H   UNL     1      -2.044  -0.248   0.021  0.00  0.00    +0.146 HD
ENDROOT
BRANCH   1   8
ATOM      3  C   UNL     1      -0.017   1.385   0.010  0.00  0.00    +0.025 A 
ATOM      4  C   UNL     1       1.171   2.090   0.002  0.00  0.00    +0.034 A 
ATOM      5  C   UNL     1       2.377   1.415  -0.013  0.00  0.00    +0.126 A 
ATOM      6  C   UNL     1       2.400   0.032  -0.022  0.00  0.00    +0.034 A 
ATOM      7  C   UNL     1       1.216  -0.679  -0.014  0.00  0.00    +0.025 A 
ATOM      8  C   UNL     1       0.002  -0.004   0.002  0.00  0.00    +0.027 A 
BRANCH   5   9
ATOM      9  N   UNL     1       3.648   2.174  -0.022  0.00  0.00    +0.056 N 
ATOM     10  O   UNL     1       3.630   3.383  -0.015  0.00  0.00    -0.126 OA
ATOM     11  O   UNL     1       4.704   1.585  -0.036  0.00  0.00    -0.126 OA
ENDBRANCH   5   9
ENDBRANCH   1   8
BRANCH   1  12
ATOM     12  C   UNL     1      -1.175  -2.185   0.002  0.00  0.00    +0.106 C 
BRANCH  12  13
ATOM     13  C   UNL     1      -2.610  -2.717   0.013  0.00  0.00    +0.021 C 
ATOM     14  C   UNL     1      -3.317  -2.410  -1.327  0.00  0.00    +0.021 C 
ATOM     15  C   UNL     1      -4.146  -3.670  -1.641  0.00  0.00    +0.085 C 
ATOM     16  N   UNL     1      -3.939  -4.616  -0.523  0.00  0.00    -0.294 NA
ATOM     17  C   UNL     1      -2.621  -4.265   0.070  0.00  0.00    +0.089 C 
BRANCH  16  18
ATOM     18  C   UNL     1      -3.950  -6.005  -1.000  0.00  0.00    +0.198 C 
BRANCH  18  19
ATOM     19  C   UNL     1      -5.368  -6.385  -1.430  0.00  0.00    +0.402 C 
ATOM     20  F   UNL     1      -5.787  -5.535  -2.459  0.00  0.00    -0.169 F 
ATOM     21  F   UNL     1      -5.379  -7.708  -1.885  0.00  0.00    -0.169 F 
ATOM     22  F   UNL     1      -6.236  -6.260  -0.340  0.00  0.00    -0.169 F 
ENDBRANCH  18  19
ENDBRANCH  16  18
ENDBRANCH  12  13
ENDBRANCH   1  12
TORSDOF 6
