REMARK  Name = ZINC09953212
REMARK  10 active torsions:
REMARK  status: ('A' for Active; 'I' for Inactive)
REMARK    1  A    between atoms: C_1  and  C_2
REMARK    2  A    between atoms: C_4  and  C_7
REMARK    3  A    between atoms: C_7  and  C_8
REMARK    4  A    between atoms: C_11  and  S_13
REMARK    5  A    between atoms: S_13  and  C_14
REMARK    6  A    between atoms: C_14  and  C_16
REMARK    7  A    between atoms: C_14  and  C_17
REMARK    8  A    between atoms: N_19  and  C_20
REMARK    9  A    between atoms: C_23  and  S_26
REMARK   10  A    between atoms: S_26  and  N_29
REMARK                            x       y       z     vdW  Elec       q    Type
REMARK                         _______ _______ _______ _____ _____    ______ ____
ROOT
ATOM      1  C   UNL     1      -2.806   4.216   5.426  0.00  0.00    +0.230 C 
ATOM      2  O   UNL     1      -2.000   4.979   4.938  0.00  0.00    -0.274 OA
ATOM      3  N   UNL     1      -3.077   3.043   4.819  0.00  0.00    -0.285 N 
ATOM      4  H   UNL     1      -3.776   2.468   5.167  0.00  0.00    +0.155 HD
ENDROOT
BRANCH   3   5
ATOM      5  C   UNL     1      -2.351   2.656   3.688  0.00  0.00    +0.034 A 
ATOM      6  C   UNL     1      -1.014   3.011   3.565  0.00  0.00    +0.025 A 
ATOM      7  C   UNL     1      -0.299   2.627   2.447  0.00  0.00    +0.030 A 
ATOM      8  C   UNL     1      -0.914   1.891   1.451  0.00  0.00    +0.106 A 
ATOM      9  C   UNL     1      -2.246   1.541   1.568  0.00  0.00    +0.030 A 
ATOM     10  C   UNL     1      -2.965   1.917   2.686  0.00  0.00    +0.025 A 
BRANCH   8  11
ATOM     11  S   UNL     1       0.001   1.403   0.026  0.00  0.00    +0.061 S 
ATOM     12  O   UNL     1       1.076   2.324  -0.101  0.00  0.00    -0.153 OA
ATOM     13  O   UNL     1      -0.946   1.190  -1.011  0.00  0.00    -0.153 OA
BRANCH  11  14
ATOM     14  N   UNL     1       0.678  -0.071   0.360  0.00  0.00    -0.177 NA
ATOM     15  C   UNL     1       2.001  -0.290   0.963  0.00  0.00    +0.109 C 
ATOM     16  C   UNL     1       2.214  -1.815   1.060  0.00  0.00    +0.018 C 
ATOM     17  C   UNL     1       1.245  -2.368  -0.019  0.00  0.00    +0.018 C 
ATOM     18  C   UNL     1       0.057  -1.381   0.095  0.00  0.00    +0.109 C 
ENDBRANCH  11  14
ENDBRANCH   8  11
ENDBRANCH   3   5
BRANCH   1  19
ATOM     19  C   UNL     1      -3.504   4.578   6.712  0.00  0.00    +0.139 C 
ATOM     20  C   UNL     1      -2.752   3.961   7.892  0.00  0.00    +0.029 C 
BRANCH  19  21
ATOM     21  S   UNL     1      -3.538   6.379   6.893  0.00  0.00    -0.053 S 
BRANCH  21  25
ATOM     22  C   UNL     1      -5.609   7.307  10.036  0.00  0.00    +0.224 A 
ATOM     23  N   UNL     1      -5.680   6.008  10.046  0.00  0.00    -0.111 NA
ATOM     24  N   UNL     1      -5.033   5.533   9.041  0.00  0.00    -0.101 NA
ATOM     25  C   UNL     1      -4.514   6.521   8.353  0.00  0.00    +0.278 A 
ATOM     26  O   UNL     1      -4.871   7.665   8.966  0.00  0.00    -0.415 OA
BRANCH  22  27
ATOM     27  C   UNL     1      -6.237   8.241  11.037  0.00  0.00    +0.153 C 
BRANCH  27  31
ATOM     28  C   UNL     1      -3.210   6.692  14.707  0.00  0.00    +0.073 C 
ATOM     29  C   UNL     1      -3.902   7.701  13.826  0.00  0.00    +0.076 A 
ATOM     30  N   UNL     1      -4.751   7.495  12.846  0.00  0.00    -0.249 NA
ATOM     31  C   UNL     1      -5.269   8.495  12.164  0.00  0.00    +0.058 A 
ATOM     32  C   UNL     1      -4.913   9.760  12.504  0.00  0.00    +0.070 A 
ATOM     33  S   UNL     1      -3.788   9.433  13.853  0.00  0.00    -0.081 S 
ENDBRANCH  27  31
ENDBRANCH  22  27
ENDBRANCH  21  25
ENDBRANCH  19  21
ENDBRANCH   1  19
TORSDOF 8
