REMARK  Name = ZINC12254408
REMARK  8 active torsions:
REMARK  status: ('A' for Active; 'I' for Inactive)
REMARK    1  A    between atoms: C_1  and  C_2
REMARK    2  A    between atoms: C_2  and  C_3
REMARK    3  A    between atoms: C_2  and  C_4
REMARK    4  A    between atoms: C_2  and  C_5
REMARK    5  A    between atoms: C_8  and  S_11
REMARK    6  A    between atoms: S_11  and  C_12
REMARK    7  A    between atoms: C_12  and  C_13
REMARK    8  A    between atoms: N_15  and  C_16
REMARK                            x       y       z     vdW  Elec       q    Type
REMARK                         _______ _______ _______ _____ _____    ______ ____
ROOT
ATOM      1  C   UNL     1       4.419   4.405  -0.017  0.00  0.00    +0.224 C 
ATOM      2  O   UNL     1       3.803   5.450  -0.006  0.00  0.00    -0.275 OA
ATOM      3  N   UNL     1       5.766   4.418  -0.030  0.00  0.00    -0.309 N 
ATOM      4  H   UNL     1       6.325   3.470  -0.040  0.00  0.00    +0.149 HD
ENDROOT
BRANCH   3   5
ATOM      5  C   UNL     1       6.487   5.693  -0.030  0.00  0.00    +0.035 C 
ATOM      6  C   UNL     1       6.098   6.498  -1.272  0.00  0.00    +0.029 C 
ATOM      7  C   UNL     1       6.851   7.830  -1.272  0.00  0.00    -0.008 C 
ATOM      8  C   UNL     1       8.357   7.565  -1.288  0.00  0.00    +0.007 C 
ATOM      9  C   UNL     1       8.746   6.760  -0.046  0.00  0.00    -0.008 C 
ATOM     10  C   UNL     1       7.994   5.428  -0.046  0.00  0.00    +0.029 C 
ATOM     11  C   UNL     1       8.381   7.552   1.211  0.00  0.00    +0.007 C 
ATOM     12  C   UNL     1       6.874   7.818   1.226  0.00  0.00    -0.008 C 
ATOM     13  C   UNL     1       6.485   8.623  -0.015  0.00  0.00    +0.007 C 
ATOM     14  C   UNL     1       6.122   6.486   1.227  0.00  0.00    +0.029 C 
ENDBRANCH   3   5
BRANCH   1  15
ATOM     15  C   UNL     1       3.678   3.093  -0.017  0.00  0.00    +0.173 C 
BRANCH  15  16
ATOM     16  S   UNL     1       1.895   3.407   0.002  0.00  0.00    -0.077 S 
BRANCH  16  20
ATOM     17  C   UNL     1       0.002  -0.004   0.002  0.00  0.00    +0.157 A 
ATOM     18  N   UNL     1      -0.017   1.363   0.009  0.00  0.00    -0.205 NA
ATOM     19  H   UNL     1       3.110   0.530  -0.024  0.00  0.00    +0.191 HD
ATOM     20  C   UNL     1       1.293   1.751  -0.001  0.00  0.00    +0.185 A 
ATOM     21  N   UNL     1       2.018   0.657  -0.013  0.00  0.00    -0.254 N 
ATOM     22  N   UNL     1       1.251  -0.375  -0.011  0.00  0.00    -0.156 NA
BRANCH  17  24
ATOM     23  C   UNL     1      -1.844  -0.916  -1.380  0.00  0.00    +0.019 C 
ATOM     24  C   UNL     1      -1.200  -0.913   0.008  0.00  0.00    +0.024 C 
ATOM     25  C   UNL     1      -0.762  -2.334   0.369  0.00  0.00    +0.019 C 
ATOM     26  C   UNL     1      -2.212  -0.414   1.040  0.00  0.00    +0.019 C 
ENDBRANCH  17  24
ENDBRANCH  16  20
ENDBRANCH  15  16
ENDBRANCH   1  15
TORSDOF 5
