REMARK  Name = ZINC43225208
REMARK  14 active torsions:
REMARK  status: ('A' for Active; 'I' for Inactive)
REMARK    1  A    between atoms: C_1  and  C_2
REMARK    2  A    between atoms: C_2  and  C_3
REMARK    3  A    between atoms: C_4  and  C_18
REMARK    4  A    between atoms: C_5  and  C_15
REMARK    5  A    between atoms: C_6  and  C_14
REMARK    6  A    between atoms: N_7  and  C_8
REMARK    7  A    between atoms: C_8  and  C_9
REMARK    8  A    between atoms: C_9  and  C_10
REMARK    9  A    between atoms: C_10  and  N_11
REMARK   10  A    between atoms: N_11  and  C_12
REMARK   11  A    between atoms: N_11  and  C_13
REMARK   12  A    between atoms: C_19  and  C_31
REMARK   13  A    between atoms: N_20  and  C_30
REMARK   14  A    between atoms: N_21  and  C_24
REMARK                            x       y       z     vdW  Elec       q    Type
REMARK                         _______ _______ _______ _____ _____    ______ ____
ROOT
ATOM      1  C   UNL     1      -1.646  -0.805   0.030  0.00  0.00    +0.027 A 
ATOM      2  C   UNL     1      -2.345  -0.817   1.193  0.00  0.00    +0.022 A 
ATOM      3  C   UNL     1      -3.755  -1.024   0.818  0.00  0.00    +0.065 A 
ATOM      4  C   UNL     1      -3.775  -1.120  -0.546  0.00  0.00    +0.029 A 
ATOM      5  N   UNL     1      -2.518  -0.982  -1.006  0.00  0.00    -0.347 N 
ATOM      6  C   UNL     1      -5.002  -1.336  -1.393  0.00  0.00    +0.064 C 
ENDROOT
BRANCH   2   7
ATOM      7  C   UNL     1      -1.801  -0.654   2.563  0.00  0.00    +0.071 A 
ATOM      8  C   UNL     1      -1.649   0.516   3.239  0.00  0.00    +0.046 A 
ATOM      9  N   UNL     1      -1.118   0.244   4.466  0.00  0.00    -0.283 N 
ATOM     10  N   UNL     1      -0.920  -1.136   4.591  0.00  0.00    -0.217 N 
ATOM     11  C   UNL     1      -1.331  -1.726   3.449  0.00  0.00    +0.280 A 
ATOM     12  O   UNL     1      -1.312  -2.917   3.200  0.00  0.00    -0.265 OA
ATOM     13  C   UNL     1      -0.803   1.240   5.493  0.00  0.00    +0.171 C 
ATOM     14  C   UNL     1      -2.006   1.885   2.720  0.00  0.00    +0.066 C 
BRANCH  10  15
ATOM     15  C   UNL     1      -0.393  -1.791   5.708  0.00  0.00    +0.067 A 
ATOM     16  C   UNL     1      -0.873  -1.497   6.978  0.00  0.00    +0.028 A 
ATOM     17  C   UNL     1      -0.350  -2.146   8.079  0.00  0.00    +0.002 A 
ATOM     18  C   UNL     1       0.650  -3.087   7.919  0.00  0.00    +0.000 A 
ATOM     19  C   UNL     1       1.130  -3.382   6.656  0.00  0.00    +0.002 A 
ATOM     20  C   UNL     1       0.608  -2.741   5.550  0.00  0.00    +0.028 A 
ENDBRANCH  10  15
ENDBRANCH   2   7
BRANCH   3  21
ATOM     21  C   UNL     1      -4.908  -1.112   1.727  0.00  0.00    +0.244 C 
ATOM     22  O   UNL     1      -5.519  -0.106   2.033  0.00  0.00    -0.270 OA
ATOM     23  N   UNL     1      -5.287  -2.308   2.222  0.00  0.00    -0.325 N 
ATOM     24  H   UNL     1      -4.799  -3.110   1.978  0.00  0.00    +0.145 HD
ATOM     25  H   UNL     1      -6.047  -2.365   2.821  0.00  0.00    +0.145 HD
ENDBRANCH   3  21
BRANCH   1  27
ATOM     26  C   UNL     1       0.165   0.869  -0.229  0.00  0.00    +0.010 C 
ATOM     27  C   UNL     1      -0.156  -0.622  -0.097  0.00  0.00    +0.050 C 
ENDBRANCH   1  27
BRANCH   5  28
ATOM     28  C   UNL     1      -2.137  -1.021  -2.420  0.00  0.00    +0.120 C 
BRANCH  28  29
ATOM     29  C   UNL     1      -1.820  -2.463  -2.824  0.00  0.00    +0.003 C 
BRANCH  29  30
ATOM     30  C   UNL     1      -1.423  -2.504  -4.300  0.00  0.00    -0.078 C 
BRANCH  30  31
ATOM     31  N   UNL     1      -1.119  -3.888  -4.688  0.00  0.00    +0.376 N 
ATOM     32  C   UNL     1      -2.337  -4.702  -4.591  0.00  0.00    -0.097 C 
ATOM     33  C   UNL     1      -0.623  -3.912  -6.070  0.00  0.00    -0.097 C 
ATOM     34  H   UNL     1      -0.414  -4.262  -4.071  0.00  0.00    -0.083 HD
ENDBRANCH  30  31
ENDBRANCH  29  30
ENDBRANCH  28  29
ENDBRANCH   5  28
TORSDOF 8
