REMARK  Name = ZINC67320961
REMARK  4 active torsions:
REMARK  status: ('A' for Active; 'I' for Inactive)
REMARK    1  A    between atoms: C_1  and  C_2
REMARK    2  A    between atoms: C_5  and  C_8
REMARK    3  A    between atoms: C_21  and  C_23
REMARK    4  A    between atoms: C_28  and  C_31
REMARK                            x       y       z     vdW  Elec       q    Type
REMARK                         _______ _______ _______ _____ _____    ______ ____
ROOT
ATOM      1  C   UNL     1       0.059  -4.275  -0.022  0.00  0.00    +0.083 C 
ATOM      2  C   UNL     1      -1.160  -4.796   0.691  0.00  0.00    +0.066 A 
ATOM      3  C   UNL     1      -2.316  -5.119  -0.026  0.00  0.00    +0.258 A 
ATOM      4  O   UNL     1      -2.352  -4.991  -1.240  0.00  0.00    -0.267 OA
ATOM      5  N   UNL     1      -3.391  -5.575   0.651  0.00  0.00    -0.295 N 
ATOM      6  H   UNL     1      -4.201  -5.813   0.173  0.00  0.00    +0.172 HD
ATOM      7  C   UNL     1      -3.340  -5.703   2.005  0.00  0.00    +0.200 A 
ATOM      8  N   UNL     1      -2.252  -5.402   2.684  0.00  0.00    -0.200 NA
ATOM      9  C   UNL     1      -1.151  -4.961   2.064  0.00  0.00    +0.138 A 
ATOM     10  N   UNL     1      -0.004  -4.692   2.792  0.00  0.00    -0.269 N 
ATOM     11  C   UNL     1       1.180  -4.527   2.179  0.00  0.00    +0.236 C 
ATOM     12  O   UNL     1       2.147  -4.187   2.825  0.00  0.00    -0.274 OA
ATOM     13  C   UNL     1       1.319  -4.759   0.698  0.00  0.00    +0.189 C 
ATOM     14  N   UNL     1      -4.444  -6.154   2.677  0.00  0.00    -0.301 N 
ATOM     15  C   UNL     1      -4.387  -6.415   4.122  0.00  0.00    +0.108 C 
ATOM     16  C   UNL     1      -5.516  -5.639   4.808  0.00  0.00    +0.022 C 
ATOM     17  C   UNL     1      -6.851  -6.006   4.156  0.00  0.00    -0.011 C 
ATOM     18  C   UNL     1      -6.823  -5.612   2.677  0.00  0.00    +0.022 C 
ATOM     19  C   UNL     1      -5.711  -6.382   1.968  0.00  0.00    +0.108 C 
ATOM     20  C   UNL     1      -7.985  -5.259   4.861  0.00  0.00    +0.007 C 
ATOM     21  H   UNL     1      -0.057  -4.622   3.758  0.00  0.00    +0.156 HD
ENDROOT
BRANCH   1  26
ATOM     22  C   UNL     1      -0.050   1.503  -0.041  0.00  0.00    +0.044 C 
ATOM     23  C   UNL     1      -0.021  -0.004  -0.036  0.00  0.00    -0.050 A 
ATOM     24  C   UNL     1      -0.009  -0.699  -1.231  0.00  0.00    +0.003 A 
ATOM     25  C   UNL     1       0.017  -2.081  -1.226  0.00  0.00    +0.004 A 
ATOM     26  C   UNL     1       0.032  -2.768  -0.027  0.00  0.00    -0.038 A 
ATOM     27  C   UNL     1       0.021  -2.073   1.168  0.00  0.00    +0.004 A 
ATOM     28  C   UNL     1      -0.001  -0.691   1.163  0.00  0.00    +0.003 A 
ENDBRANCH   1  26
BRANCH  13  29
ATOM     29  C   UNL     1       1.506  -6.197   0.443  0.00  0.00    +0.076 C 
ATOM     30  N   UNL     1       1.651  -7.306   0.247  0.00  0.00    -0.196 NA
ENDBRANCH  13  29
TORSDOF 2
