REMARK  Name = ZINC39737184
REMARK  8 active torsions:
REMARK  status: ('A' for Active; 'I' for Inactive)
REMARK    1  A    between atoms: C_1  and  C_2
REMARK    2  A    between atoms: C_4  and  C_27
REMARK    3  A    between atoms: C_5  and  C_25
REMARK    4  A    between atoms: C_6  and  N_14
REMARK    5  A    between atoms: N_8  and  C_9
REMARK    6  A    between atoms: C_15  and  C_17
REMARK    7  A    between atoms: C_17  and  S_18
REMARK    8  A    between atoms: S_18  and  C_19
REMARK                            x       y       z     vdW  Elec       q    Type
REMARK                         _______ _______ _______ _____ _____    ______ ____
ROOT
ATOM      1  C   UNL     1      -0.019   1.526   0.010  0.00  0.00    +0.029 C 
ATOM      2  C   UNL     1       0.002  -0.004   0.002  0.00  0.00    +0.083 C 
ATOM      3  C   UNL     1       0.762  -0.510  -1.202  0.00  0.00    -0.039 C 
ATOM      4  C   UNL     1       1.565  -1.503  -0.825  0.00  0.00    +0.065 C 
ATOM      5  C   UNL     1       1.401  -1.735   0.659  0.00  0.00    +0.186 C 
ATOM      6  N   UNL     1       0.741  -0.513   1.181  0.00  0.00    -0.271 NA
ATOM      7  C   UNL     1       0.633   0.023  -2.606  0.00  0.00    +0.042 C 
ENDROOT
BRANCH   6   8
ATOM      8  C   UNL     1      -0.179  -0.838   2.279  0.00  0.00    +0.059 C 
ATOM      9  C   UNL     1      -0.910   0.437   2.750  0.00  0.00    +0.019 C 
ATOM     10  C   UNL     1      -1.021   0.266   4.285  0.00  0.00    +0.002 C 
ATOM     11  C   UNL     1       0.332  -0.391   4.655  0.00  0.00    +0.002 C 
ATOM     12  C   UNL     1       0.611  -1.364   3.490  0.00  0.00    +0.019 C 
ENDBRANCH   6   8
BRANCH   5  13
ATOM     13  N   UNL     1       2.710  -1.917   1.292  0.00  0.00    -0.294 N 
ATOM     14  C   UNL     1       2.887  -2.892   2.205  0.00  0.00    +0.225 C 
ATOM     15  O   UNL     1       1.964  -3.620   2.503  0.00  0.00    -0.275 OA
ATOM     16  H   UNL     1       3.448  -1.335   1.054  0.00  0.00    +0.151 HD
BRANCH  14  17
ATOM     17  C   UNL     1       4.234  -3.079   2.855  0.00  0.00    +0.173 C 
BRANCH  17  18
ATOM     18  S   UNL     1       4.152  -4.461   4.028  0.00  0.00    -0.077 S 
BRANCH  18  19
ATOM     19  C   UNL     1       5.780  -4.550   4.696  0.00  0.00    +0.184 A 
ATOM     20  N   UNL     1       6.215  -5.437   5.617  0.00  0.00    -0.254 N 
ATOM     21  H   UNL     1       5.696  -6.142   6.036  0.00  0.00    +0.191 HD
ATOM     22  N   UNL     1       7.567  -5.136   5.848  0.00  0.00    -0.160 NA
ATOM     23  C   UNL     1       7.868  -4.121   5.083  0.00  0.00    +0.245 A 
ATOM     24  N   UNL     1       6.791  -3.768   4.381  0.00  0.00    -0.209 NA
ENDBRANCH  18  19
ENDBRANCH  17  18
ENDBRANCH  14  17
ENDBRANCH   5  13
BRANCH   4  25
ATOM     25  C   UNL     1       2.443  -2.235  -1.688  0.00  0.00    +0.098 C 
ATOM     26  N   UNL     1       3.140  -2.815  -2.372  0.00  0.00    -0.191 NA
ENDBRANCH   4  25
TORSDOF 6
