REMARK  Name = ZINC00421464
REMARK  5 active torsions:
REMARK  status: ('A' for Active; 'I' for Inactive)
REMARK    1  A    between atoms: C_1  and  C_2
REMARK    2  A    between atoms: C_7  and  C_14
REMARK    3  A    between atoms: C_17  and  C_28
REMARK    4  A    between atoms: C_23  and  N_27
REMARK    5  A    between atoms: C_24  and  C_25
REMARK                            x       y       z     vdW  Elec       q    Type
REMARK                         _______ _______ _______ _____ _____    ______ ____
ROOT
ATOM      1  C   UNL     1       2.466   1.063  -0.016  0.00  0.00    +0.107 C 
ATOM      2  C   UNL     1       3.254   1.472  -1.234  0.00  0.00    +0.049 A 
ATOM      3  C   UNL     1       3.046   1.143  -2.566  0.00  0.00    +0.068 A 
ATOM      4  N   UNL     1       3.979   1.727  -3.280  0.00  0.00    -0.176 NA
ATOM      5  N   UNL     1       4.813   2.451  -2.414  0.00  0.00    -0.246 N 
ATOM      6  H   UNL     1       5.608   2.996  -2.680  0.00  0.00    +0.192 HD
ATOM      7  C   UNL     1       4.353   2.282  -1.164  0.00  0.00    +0.222 A 
ATOM      8  O   UNL     1       4.823   2.779   0.007  0.00  0.00    -0.423 OA
ATOM      9  C   UNL     1       4.349   2.240   1.149  0.00  0.00    +0.200 C 
ATOM     10  C   UNL     1       3.265   1.436   1.208  0.00  0.00    +0.098 C 
ATOM     11  C   UNL     1       1.942   0.266  -3.099  0.00  0.00    +0.068 C 
ENDROOT
BRANCH   1  18
ATOM     12  C   UNL     1      -4.951   3.994   0.070  0.00  0.00    +0.044 C 
ATOM     13  C   UNL     1      -3.652   3.231   0.054  0.00  0.00    -0.048 A 
ATOM     14  C   UNL     1      -3.672   1.842   0.046  0.00  0.00    +0.004 A 
ATOM     15  C   UNL     1      -2.506   1.131   0.032  0.00  0.00    +0.010 A 
ATOM     16  C   UNL     1      -1.281   1.807   0.018  0.00  0.00    -0.001 A 
ATOM     17  C   UNL     1      -0.013   1.076   0.008  0.00  0.00    +0.019 A 
ATOM     18  C   UNL     1       1.143   1.785   0.001  0.00  0.00    +0.030 A 
ATOM     19  C   UNL     1       1.112   3.196   0.008  0.00  0.00    +0.253 A 
ATOM     20  O   UNL     1       2.163   3.813   0.001  0.00  0.00    -0.268 OA
ATOM     21  N   UNL     1      -0.048   3.876   0.023  0.00  0.00    -0.322 N 
ATOM     22  H   UNL     1      -0.033   4.875   0.028  0.00  0.00    +0.169 HD
ATOM     23  C   UNL     1      -1.257   3.214   0.031  0.00  0.00    +0.049 A 
ATOM     24  C   UNL     1      -2.458   3.917   0.046  0.00  0.00    +0.029 A 
ENDBRANCH   1  18
BRANCH   9  25
ATOM     25  N   UNL     1       5.007   2.525   2.320  0.00  0.00    -0.328 N 
ATOM     26  H   UNL     1       4.691   2.152   3.157  0.00  0.00    +0.145 HD
ATOM     27  H   UNL     1       5.789   3.100   2.309  0.00  0.00    +0.145 HD
ENDBRANCH   9  25
BRANCH  10  28
ATOM     28  C   UNL     1       2.858   0.919   2.481  0.00  0.00    +0.101 C 
ATOM     29  N   UNL     1       2.536   0.509   3.490  0.00  0.00    -0.191 NA
ENDBRANCH  10  28
TORSDOF 3
