REMARK  Name = ZINC29811555
REMARK  10 active torsions:
REMARK  status: ('A' for Active; 'I' for Inactive)
REMARK    1  A    between atoms: C_1  and  C_2
REMARK    2  A    between atoms: C_5  and  N_9
REMARK    3  A    between atoms: C_6  and  C_8
REMARK    4  A    between atoms: C_10  and  C_12
REMARK    5  A    between atoms: C_12  and  C_14
REMARK    6  A    between atoms: C_12  and  N_15
REMARK    7  A    between atoms: N_15  and  C_16
REMARK    8  A    between atoms: C_19  and  N_22
REMARK    9  A    between atoms: N_25  and  C_26
REMARK   10  A    between atoms: C_26  and  C_27
REMARK                            x       y       z     vdW  Elec       q    Type
REMARK                         _______ _______ _______ _____ _____    ______ ____
ROOT
ATOM      1  N   UNL     1      -1.062   7.551   0.401  0.00  0.00    -0.333 N 
ATOM      2  H   UNL     1      -2.001   8.117   0.491  0.00  0.00    +0.147 HD
ENDROOT
BRANCH   1   3
ATOM      3  C   UNL     1      -1.093   6.157   0.292  0.00  0.00    +0.028 A 
ATOM      4  C   UNL     1      -2.310   5.487   0.298  0.00  0.00    +0.025 A 
ATOM      5  C   UNL     1      -2.341   4.111   0.192  0.00  0.00    +0.025 A 
ATOM      6  C   UNL     1      -1.156   3.397   0.078  0.00  0.00    +0.035 A 
ATOM      7  C   UNL     1       0.061   4.066   0.077  0.00  0.00    +0.025 A 
ATOM      8  C   UNL     1       0.092   5.442   0.179  0.00  0.00    +0.025 A 
BRANCH   6   9
ATOM      9  N   UNL     1      -1.188   1.999  -0.031  0.00  0.00    -0.269 N 
ATOM     10  C   UNL     1      -0.181   1.348  -0.646  0.00  0.00    +0.304 C 
ATOM     11  O   UNL     1       0.698   1.976  -1.205  0.00  0.00    -0.253 OA
ATOM     12  N   UNL     1      -0.151   0.001  -0.648  0.00  0.00    -0.296 N 
ATOM     13  H   UNL     1      -2.034   1.434   0.387  0.00  0.00    +0.156 HD
ATOM     14  H   UNL     1      -0.946  -0.568  -0.143  0.00  0.00    +0.151 HD
BRANCH  12  15
ATOM     15  C   UNL     1       0.940  -0.707  -1.322  0.00  0.00    +0.132 C 
BRANCH  15  16
ATOM     16  C   UNL     1       0.740  -2.194  -1.178  0.00  0.00    -0.016 C 
ATOM     17  C   UNL     1       0.704  -2.956  -2.243  0.00  0.00    +0.005 C 
ENDBRANCH  15  16
ENDBRANCH  12  15
ENDBRANCH   6   9
ENDBRANCH   1   3
BRANCH   1  18
ATOM     18  C   UNL     1       0.222   8.258   0.395  0.00  0.00    +0.154 C 
ATOM     19  C   UNL     1       0.798   8.281   1.812  0.00  0.00    +0.038 C 
BRANCH  18  21
ATOM     20  N   UNL     1       1.064  10.513  -0.175  0.00  0.00    -0.284 N 
ATOM     21  C   UNL     1       0.015   9.671  -0.086  0.00  0.00    +0.237 C 
ATOM     22  O   UNL     1      -1.095  10.051  -0.394  0.00  0.00    -0.273 OA
ATOM     23  H   UNL     1       2.081  10.148   0.030  0.00  0.00    +0.155 HD
BRANCH  20  28
ATOM     24  C   UNL     1       0.233  15.938  -1.610  0.00  0.00    +0.044 C 
ATOM     25  C   UNL     1       0.454  14.497  -1.229  0.00  0.00    -0.050 A 
ATOM     26  C   UNL     1      -0.338  13.508  -1.783  0.00  0.00    +0.005 A 
ATOM     27  C   UNL     1      -0.139  12.186  -1.436  0.00  0.00    +0.024 A 
ATOM     28  C   UNL     1       0.859  11.851  -0.529  0.00  0.00    +0.036 A 
ATOM     29  C   UNL     1       1.648  12.847   0.029  0.00  0.00    -0.029 A 
ATOM     30  C   UNL     1       1.447  14.167  -0.326  0.00  0.00    +0.008 A 
ATOM     31  C   UNL     1       2.728  12.489   1.018  0.00  0.00    +0.045 C 
ENDBRANCH  20  28
ENDBRANCH  18  21
ENDBRANCH   1  18
TORSDOF 7
