REMARK  Name = ZINC61827852
REMARK  9 active torsions:
REMARK  status: ('A' for Active; 'I' for Inactive)
REMARK    1  A    between atoms: C_1  and  C_2
REMARK    2  A    between atoms: C_2  and  C_3
REMARK    3  A    between atoms: C_2  and  C_4
REMARK    4  A    between atoms: C_2  and  C_20
REMARK    5  A    between atoms: C_4  and  C_5
REMARK    6  A    between atoms: N_10  and  C_11
REMARK    7  A    between atoms: C_16  and  O_18
REMARK    8  A    between atoms: O_18  and  C_19
REMARK    9  A    between atoms: C_20  and  C_21
REMARK                            x       y       z     vdW  Elec       q    Type
REMARK                         _______ _______ _______ _____ _____    ______ ____
ROOT
ATOM      1  C   UNL     1      -2.139  -0.048   1.253  0.00  0.00    +0.221 C 
ATOM      2  O   UNL     1      -1.551   0.653   2.049  0.00  0.00    -0.275 OA
ATOM      3  N   UNL     1      -3.422  -0.392   1.476  0.00  0.00    -0.240 N 
ATOM      4  C   UNL     1      -4.053   0.043   2.585  0.00  0.00    +0.306 C 
ATOM      5  O   UNL     1      -3.465   0.745   3.384  0.00  0.00    -0.252 OA
ATOM      6  N   UNL     1      -5.337  -0.301   2.809  0.00  0.00    -0.294 N 
ATOM      7  H   UNL     1      -3.892  -0.953   0.839  0.00  0.00    +0.159 HD
ATOM      8  H   UNL     1      -5.807  -0.862   2.172  0.00  0.00    +0.151 HD
ENDROOT
BRANCH   6   9
ATOM      9  C   UNL     1      -6.023   0.171   4.014  0.00  0.00    +0.103 C 
ATOM     10  C   UNL     1      -5.769  -0.801   5.180  0.00  0.00    +0.025 C 
ATOM     11  C   UNL     1      -7.148  -1.337   5.615  0.00  0.00    +0.004 C 
ATOM     12  C   UNL     1      -8.145  -0.251   5.140  0.00  0.00    +0.033 C 
ATOM     13  C   UNL     1      -7.547   0.192   3.781  0.00  0.00    +0.138 C 
BRANCH  13  14
ATOM     14  O   UNL     1      -7.984   1.511   3.448  0.00  0.00    -0.378 OA
ATOM     15  C   UNL     1      -9.130   1.546   2.595  0.00  0.00    +0.194 C 
ENDBRANCH  13  14
ENDBRANCH   6   9
BRANCH   1  16
ATOM     16  C   UNL     1      -1.433  -0.534   0.013  0.00  0.00    +0.103 C 
BRANCH  16  18
ATOM     17  C   UNL     1      -0.019   1.526   0.010  0.00  0.00    +0.012 C 
ATOM     18  C   UNL     1       0.002  -0.004   0.002  0.00  0.00    -0.016 C 
ATOM     19  C   UNL     1       0.742  -0.511   1.242  0.00  0.00    +0.012 C 
BRANCH  18  20
ATOM     20  C   UNL     1       0.718  -0.497  -1.257  0.00  0.00    +0.132 C 
BRANCH  20  21
ATOM     21  C   UNL     1       2.132   0.024  -1.268  0.00  0.00    +0.357 C 
ATOM     22  O   UNL     1       2.530   0.726  -0.353  0.00  0.00    -0.246 OA
ATOM     23  O   UNL     1       2.878  -0.255  -2.191  0.00  0.00    -0.246 OA
ENDBRANCH  20  21
ENDBRANCH  18  20
ENDBRANCH  16  18
ENDBRANCH   1  16
TORSDOF 6
