REMARK  Name = ZINC39533982
REMARK  10 active torsions:
REMARK  status: ('A' for Active; 'I' for Inactive)
REMARK    1  A    between atoms: C_1  and  O_2
REMARK    2  A    between atoms: O_2  and  C_3
REMARK    3  A    between atoms: N_6  and  C_10
REMARK    4  A    between atoms: C_10  and  C_12
REMARK    5  A    between atoms: C_10  and  C_21
REMARK    6  A    between atoms: C_12  and  N_13
REMARK    7  A    between atoms: N_13  and  C_14
REMARK    8  A    between atoms: C_14  and  C_15
REMARK    9  A    between atoms: C_24  and  C_27
REMARK   10  A    between atoms: C_32  and  O_33
REMARK                            x       y       z     vdW  Elec       q    Type
REMARK                         _______ _______ _______ _____ _____    ______ ____
ROOT
ATOM      1  C   UNL     1       1.676  -4.101  -1.896  0.00  0.00    -0.023 C 
ENDROOT
BRANCH   1   4
ATOM      2  C   UNL     1       1.674  -0.540  -0.711  0.00  0.00    +0.169 C 
ATOM      3  C   UNL     1       1.462  -2.054  -0.664  0.00  0.00    -0.030 C 
ATOM      4  N   UNL     1       1.863  -2.645  -1.948  0.00  0.00    +0.388 N 
ATOM      5  C   UNL     1       1.038  -2.084  -3.026  0.00  0.00    -0.062 C 
ATOM      6  C   UNL     1       1.247  -0.569  -3.092  0.00  0.00    +0.065 C 
ATOM      7  N   UNL     1       0.874   0.031  -1.803  0.00  0.00    -0.295 NA
ATOM      8  H   UNL     1      -0.113  -0.080  -1.625  0.00  0.00    +0.124 HD
ATOM      9  H   UNL     1       2.834  -2.437  -2.124  0.00  0.00    -0.081 HD
BRANCH   2  11
ATOM     10  C   UNL     1       1.627   1.412   0.680  0.00  0.00    +0.196 C 
ATOM     11  O   UNL     1       1.266   0.038   0.531  0.00  0.00    -0.367 OA
ENDBRANCH   2  11
ENDBRANCH   1   4
BRANCH   1  12
ATOM     12  C   UNL     1       2.400  -4.658  -0.698  0.00  0.00    -0.060 A 
ATOM     13  C   UNL     1       3.643  -4.160  -0.351  0.00  0.00    +0.002 A 
ATOM     14  C   UNL     1       4.312  -4.667   0.745  0.00  0.00    +0.009 A 
ATOM     15  C   UNL     1       3.732  -5.683   1.503  0.00  0.00    -0.014 A 
ATOM     16  C   UNL     1       2.479  -6.181   1.149  0.00  0.00    +0.009 A 
ATOM     17  C   UNL     1       1.818  -5.663   0.054  0.00  0.00    +0.002 A 
BRANCH  15  18
ATOM     18  C   UNL     1       4.446  -6.232   2.681  0.00  0.00    +0.024 A 
ATOM     19  C   UNL     1       5.776  -6.631   2.570  0.00  0.00    +0.012 A 
ATOM     20  C   UNL     1       6.435  -7.142   3.670  0.00  0.00    +0.001 A 
ATOM     21  C   UNL     1       5.780  -7.259   4.883  0.00  0.00    +0.004 A 
ATOM     22  C   UNL     1       4.461  -6.866   5.004  0.00  0.00    +0.046 A 
ATOM     23  C   UNL     1       3.788  -6.346   3.910  0.00  0.00    +0.125 A 
BRANCH  23  24
ATOM     24  O   UNL     1       2.493  -5.954   4.029  0.00  0.00    -0.506 OA
ATOM     25  H   UNL     1       1.852  -6.654   3.846  0.00  0.00    +0.292 HD
ENDBRANCH  23  24
ENDBRANCH  15  18
ENDBRANCH   1  12
BRANCH   1  26
ATOM     26  C   UNL     1       2.237  -4.733  -3.171  0.00  0.00    +0.070 C 
BRANCH  26  27
ATOM     27  N   UNL     1       1.423  -4.320  -4.322  0.00  0.00    -0.313 NA
ATOM     28  H   UNL     1       0.452  -4.557  -4.181  0.00  0.00    +0.122 HD
BRANCH  27  29
ATOM     29  C   UNL     1       1.934  -4.909  -5.567  0.00  0.00    +0.116 C 
BRANCH  29  30
ATOM     30  C   UNL     1       1.075  -4.464  -6.723  0.00  0.00    -0.034 A 
ATOM     31  C   UNL     1      -0.030  -5.209  -7.089  0.00  0.00    +0.005 A 
ATOM     32  C   UNL     1      -0.818  -4.801  -8.149  0.00  0.00    +0.000 A 
ATOM     33  C   UNL     1      -0.501  -3.648  -8.842  0.00  0.00    +0.000 A 
ATOM     34  C   UNL     1       0.604  -2.903  -8.475  0.00  0.00    +0.000 A 
ATOM     35  C   UNL     1       1.389  -3.308  -7.412  0.00  0.00    +0.005 A 
ENDBRANCH  29  30
ENDBRANCH  27  29
ENDBRANCH  26  27
ENDBRANCH   1  26
TORSDOF 9
