REMARK  Name = ZINC62702802
REMARK  5 active torsions:
REMARK  status: ('A' for Active; 'I' for Inactive)
REMARK    1  A    between atoms: C_3  and  O_16
REMARK    2  A    between atoms: C_6  and  C_7
REMARK    3  A    between atoms: C_7  and  N_8
REMARK    4  A    between atoms: N_8  and  C_9
REMARK    5  A    between atoms: C_9  and  C_10
REMARK                            x       y       z     vdW  Elec       q    Type
REMARK                         _______ _______ _______ _____ _____    ______ ____
ROOT
ATOM      1  C   UNL     1      -1.293  -0.774   0.011  0.00  0.00    -0.046 C 
ENDROOT
BRANCH   1   7
ATOM      2  C   UNL     1      -0.017   1.378   0.010  0.00  0.00    +0.005 A 
ATOM      3  C   UNL     1       1.170   2.087   0.002  0.00  0.00    +0.047 A 
ATOM      4  C   UNL     1       2.380   1.410  -0.013  0.00  0.00    +0.131 A 
ATOM      5  C   UNL     1       2.397   0.022  -0.021  0.00  0.00    +0.059 A 
ATOM      6  C   UNL     1       1.208  -0.682  -0.013  0.00  0.00    +0.020 A 
ATOM      7  C   UNL     1       0.002  -0.004   0.002  0.00  0.00    -0.063 A 
ATOM      8 BR   UNL     1       4.045  -0.905  -0.042  0.00  0.00    -0.047 Br
BRANCH   4   9
ATOM      9  O   UNL     1       3.548   2.105  -0.021  0.00  0.00    -0.506 OA
ATOM     10  H   UNL     1       3.895   2.302   0.860  0.00  0.00    +0.292 HD
ENDBRANCH   4   9
ENDBRANCH   1   7
BRANCH   1  11
ATOM     11  N   UNL     1      -1.728  -1.017  -1.371  0.00  0.00    +0.387 N 
ATOM     12  H   UNL     1      -1.864  -0.134  -1.841  0.00  0.00    -0.085 HD
ATOM     13  H   UNL     1      -1.023  -1.550  -1.857  0.00  0.00    -0.085 HD
BRANCH  11  14
ATOM     14  C   UNL     1      -2.991  -1.767  -1.363  0.00  0.00    -0.001 C 
BRANCH  14  15
ATOM     15  C   UNL     1      -3.437  -2.016  -2.781  0.00  0.00    +0.160 A 
ATOM     16  N   UNL     1      -4.209  -1.229  -3.516  0.00  0.00    -0.113 NA
ATOM     17  N   UNL     1      -4.357  -1.793  -4.666  0.00  0.00    -0.021 NA
ATOM     18  N   UNL     1      -3.705  -2.903  -4.676  0.00  0.00    -0.021 NA
ATOM     19  N   UNL     1      -3.127  -3.061  -3.534  0.00  0.00    -0.113 NA
ENDBRANCH  14  15
ENDBRANCH  11  14
ENDBRANCH   1  11
TORSDOF 5
