REMARK  Name = ZINC39658745
REMARK  12 active torsions:
REMARK  status: ('A' for Active; 'I' for Inactive)
REMARK    1  A    between atoms: C_1  and  C_2
REMARK    2  A    between atoms: C_6  and  C_8
REMARK    3  A    between atoms: N_10  and  C_11
REMARK    4  A    between atoms: C_11  and  C_13
REMARK    5  A    between atoms: C_11  and  C_16
REMARK    6  A    between atoms: C_13  and  C_14
REMARK    7  A    between atoms: C_13  and  C_15
REMARK    8  A    between atoms: C_16  and  O_18
REMARK    9  A    between atoms: O_18  and  C_19
REMARK   10  A    between atoms: C_19  and  C_20
REMARK   11  A    between atoms: N_22  and  C_23
REMARK   12  A    between atoms: C_24  and  C_31
REMARK                            x       y       z     vdW  Elec       q    Type
REMARK                         _______ _______ _______ _____ _____    ______ ____
ROOT
ATOM      1  O   UNL     1      -0.585  -7.173   4.512  0.00  0.00    -0.454 OA
ENDROOT
BRANCH   1   2
ATOM      2  C   UNL     1      -0.498  -6.309   3.488  0.00  0.00    +0.328 C 
ATOM      3  O   UNL     1      -0.886  -6.633   2.391  0.00  0.00    -0.249 OA
BRANCH   2   4
ATOM      4  C   UNL     1       0.086  -4.937   3.707  0.00  0.00    +0.185 C 
BRANCH   4   7
ATOM      5  C   UNL     1       0.052  -2.845   2.458  0.00  0.00    +0.245 C 
ATOM      6  O   UNL     1       0.049  -2.248   3.516  0.00  0.00    -0.270 OA
ATOM      7  N   UNL     1       0.070  -4.193   2.445  0.00  0.00    -0.298 N 
ATOM      8  H   UNL     1       0.072  -4.670   1.601  0.00  0.00    +0.150 HD
BRANCH   5  14
ATOM      9  C   UNL     1      -0.018   1.503   0.010  0.00  0.00    +0.044 C 
ATOM     10  C   UNL     1       0.002  -0.004   0.002  0.00  0.00    -0.050 A 
ATOM     11  C   UNL     1       0.006  -0.688  -1.201  0.00  0.00    +0.003 A 
ATOM     12  C   UNL     1       0.025  -2.071  -1.218  0.00  0.00    +0.001 A 
ATOM     13  C   UNL     1       0.040  -2.778  -0.033  0.00  0.00    +0.013 A 
ATOM     14  C   UNL     1       0.036  -2.095   1.184  0.00  0.00    +0.037 A 
ATOM     15  C   UNL     1       0.023  -0.699   1.194  0.00  0.00    +0.016 A 
ENDBRANCH   5  14
ENDBRANCH   4   7
BRANCH   4  16
ATOM     16  C   UNL     1       1.527  -5.069   4.204  0.00  0.00    +0.014 C 
ATOM     17  C   UNL     1       2.119  -3.676   4.426  0.00  0.00    +0.009 C 
ATOM     18  C   UNL     1       1.543  -5.846   5.521  0.00  0.00    +0.009 C 
ENDBRANCH   4  16
ENDBRANCH   2   4
ENDBRANCH   1   2
BRANCH   1  19
ATOM     19  C   UNL     1      -1.149  -8.456   4.233  0.00  0.00    +0.328 C 
BRANCH  19  20
ATOM     20  C   UNL     1      -1.165  -9.282   5.493  0.00  0.00    +0.255 C 
ATOM     21  O   UNL     1      -0.737  -8.818   6.528  0.00  0.00    -0.272 OA
ATOM     22  N   UNL     1      -1.656 -10.537   5.469  0.00  0.00    -0.277 N 
ATOM     23  H   UNL     1      -1.999 -10.908   4.641  0.00  0.00    +0.155 HD
BRANCH  22  24
ATOM     24  C   UNL     1      -1.672 -11.297   6.629  0.00  0.00    +0.084 A 
ATOM     25  C   UNL     1      -2.128 -12.593   6.790  0.00  0.00    +0.068 A 
ATOM     26  C   UNL     1      -2.032 -13.175   8.127  0.00  0.00    -0.023 A 
ATOM     27  C   UNL     1      -1.500 -12.351   9.048  0.00  0.00    -0.004 A 
ATOM     28  S   UNL     1      -1.135 -10.860   8.156  0.00  0.00    -0.077 S 
ATOM     29  C   UNL     1      -1.429 -12.996  10.405  0.00  0.00    +0.043 C 
ATOM     30  C   UNL     1      -2.387 -14.205  10.313  0.00  0.00    +0.010 C 
ATOM     31  C   UNL     1      -2.374 -14.503   8.800  0.00  0.00    +0.037 C 
BRANCH  25  32
ATOM     32  C   UNL     1      -2.685 -13.351   5.666  0.00  0.00    +0.244 C 
ATOM     33  O   UNL     1      -1.955 -14.033   4.970  0.00  0.00    -0.270 OA
ATOM     34  N   UNL     1      -4.005 -13.293   5.402  0.00  0.00    -0.325 N 
ATOM     35  H   UNL     1      -4.587 -12.750   5.956  0.00  0.00    +0.145 HD
ATOM     36  H   UNL     1      -4.374 -13.795   4.658  0.00  0.00    +0.145 HD
ENDBRANCH  25  32
ENDBRANCH  22  24
ENDBRANCH  19  20
ENDBRANCH   1  19
TORSDOF 9
