REMARK  Name = ZINC05936642
REMARK  6 active torsions:
REMARK  status: ('A' for Active; 'I' for Inactive)
REMARK    1  A    between atoms: C_4  and  O_23
REMARK    2  A    between atoms: C_5  and  C_7
REMARK    3  A    between atoms: N_8  and  N_9
REMARK    4  A    between atoms: C_12  and  S_15
REMARK    5  A    between atoms: S_15  and  C_16
REMARK    6  A    between atoms: C_16  and  C_17
REMARK                            x       y       z     vdW  Elec       q    Type
REMARK                         _______ _______ _______ _____ _____    ______ ____
ROOT
ATOM      1  N   UNL     1       2.412  -4.186  -0.047  0.00  0.00    -0.205 N 
ATOM      2  C   UNL     1       3.622  -4.855  -0.063  0.00  0.00    +0.232 A 
ATOM      3  N   UNL     1       4.815  -4.297  -0.066  0.00  0.00    -0.186 NA
ATOM      4  C   UNL     1       5.755  -5.247  -0.082  0.00  0.00    +0.210 A 
ATOM      5  N   UNL     1       5.174  -6.423  -0.090  0.00  0.00    -0.144 NA
ATOM      6  N   UNL     1       3.788  -6.194  -0.073  0.00  0.00    -0.245 N 
ATOM      7  H   UNL     1       1.581  -4.686  -0.042  0.00  0.00    +0.177 HD
ATOM      8  H   UNL     1       3.089  -6.867  -0.070  0.00  0.00    +0.192 HD
ENDROOT
BRANCH   1  10
ATOM      9  C   UNL     1       1.250  -2.157  -0.023  0.00  0.00    +0.142 C 
ATOM     10  N   UNL     1       2.386  -2.785  -0.038  0.00  0.00    -0.187 NA
BRANCH   9  15
ATOM     11  C   UNL     1      -0.017   1.375   0.010  0.00  0.00    +0.001 A 
ATOM     12  C   UNL     1       1.169   2.089   0.002  0.00  0.00    +0.004 A 
ATOM     13  C   UNL     1       2.383   1.428  -0.013  0.00  0.00    +0.046 A 
ATOM     14  C   UNL     1       2.420   0.044  -0.021  0.00  0.00    +0.125 A 
ATOM     15  C   UNL     1       1.222  -0.684  -0.014  0.00  0.00    +0.036 A 
ATOM     16  C   UNL     1       0.002  -0.004   0.002  0.00  0.00    +0.013 A 
BRANCH  14  17
ATOM     17  O   UNL     1       3.613  -0.607  -0.037  0.00  0.00    -0.506 OA
ATOM     18  H   UNL     1       3.967  -0.800   0.842  0.00  0.00    +0.292 HD
ENDBRANCH  14  17
ENDBRANCH   9  15
ENDBRANCH   1  10
BRANCH   4  19
ATOM     19  S   UNL     1       7.495  -4.966  -0.092  0.00  0.00    -0.080 S 
BRANCH  19  20
ATOM     20  C   UNL     1       8.209  -6.633  -0.115  0.00  0.00    +0.112 C 
BRANCH  20  21
ATOM     21  C   UNL     1       9.713  -6.535  -0.125  0.00  0.00    -0.034 A 
ATOM     22  C   UNL     1      10.412  -6.471  -1.321  0.00  0.00    +0.024 A 
ATOM     23  C   UNL     1      11.791  -6.382  -1.291  0.00  0.00    +0.111 A 
ATOM     24  N   UNL     1      12.441  -6.358  -0.143  0.00  0.00    -0.263 NA
ATOM     25  C   UNL     1      11.809  -6.417   1.013  0.00  0.00    +0.111 A 
ATOM     26  C   UNL     1      10.430  -6.501   1.061  0.00  0.00    +0.024 A 
ENDBRANCH  20  21
ENDBRANCH  19  20
ENDBRANCH   4  19
TORSDOF 6
