REMARK  Name = ZINC37816118
REMARK  7 active torsions:
REMARK  status: ('A' for Active; 'I' for Inactive)
REMARK    1  A    between atoms: C_1  and  N_2
REMARK    2  A    between atoms: N_2  and  C_3
REMARK    3  A    between atoms: C_3  and  C_4
REMARK    4  A    between atoms: C_12  and  C_14
REMARK    5  A    between atoms: C_14  and  C_16
REMARK    6  A    between atoms: C_14  and  N_20
REMARK    7  A    between atoms: C_16  and  C_17
REMARK                            x       y       z     vdW  Elec       q    Type
REMARK                         _______ _______ _______ _____ _____    ______ ____
ROOT
ATOM      1  C   UNL     1      -0.018   1.461   0.010  0.00  0.00    +0.132 C 
ATOM      2  N   UNL     1       0.002  -0.004   0.002  0.00  0.00    -0.302 N 
ATOM      3  C   UNL     1       0.000  -0.672  -1.169  0.00  0.00    +0.202 C 
ATOM      4  O   UNL     1       0.017  -1.884  -1.175  0.00  0.00    -0.277 OA
ENDROOT
BRANCH   2   5
ATOM      5  C   UNL     1       0.024  -0.743   1.267  0.00  0.00    +0.142 C 
BRANCH   5   6
ATOM      6  C   UNL     1      -1.389  -1.016   1.714  0.00  0.00    -0.027 A 
ATOM      7  C   UNL     1      -2.047  -0.105   2.518  0.00  0.00    +0.025 A 
ATOM      8  C   UNL     1      -3.344  -0.355   2.929  0.00  0.00    +0.043 A 
ATOM      9  C   UNL     1      -3.983  -1.517   2.535  0.00  0.00    +0.040 A 
ATOM     10  C   UNL     1      -3.324  -2.428   1.729  0.00  0.00    +0.043 A 
ATOM     11  C   UNL     1      -2.028  -2.175   1.314  0.00  0.00    +0.025 A 
ATOM     12 CL   UNL     1      -4.124  -3.887   1.234  0.00  0.00    -0.083 Cl
ATOM     13 CL   UNL     1      -4.170   0.789   3.941  0.00  0.00    -0.083 Cl
ENDBRANCH   5   6
ENDBRANCH   2   5
BRANCH   3  14
ATOM     14  C   UNL     1      -0.023   0.089  -2.470  0.00  0.00    +0.022 C 
BRANCH  14  15
ATOM     15  N   UNL     1       0.453  -0.781  -3.554  0.00  0.00    +0.386 N 
ATOM     16  H   UNL     1       0.438  -0.272  -4.425  0.00  0.00    -0.089 HD
ATOM     17  H   UNL     1       1.396  -1.081  -3.356  0.00  0.00    -0.089 HD
ATOM     18  H   UNL     1      -0.148  -1.588  -3.626  0.00  0.00    -0.089 HD
ENDBRANCH  14  15
BRANCH  14  19
ATOM     19  C   UNL     1      -1.452   0.543  -2.770  0.00  0.00    +0.088 C 
BRANCH  19  20
ATOM     20  C   UNL     1      -1.456   1.407  -4.005  0.00  0.00    +0.209 C 
ATOM     21  O   UNL     1      -0.417   1.636  -4.588  0.00  0.00    -0.276 OA
ATOM     22  N   UNL     1      -2.614   1.924  -4.462  0.00  0.00    -0.329 N 
ATOM     23  H   UNL     1      -3.444   1.740  -3.996  0.00  0.00    +0.145 HD
ATOM     24  H   UNL     1      -2.616   2.480  -5.257  0.00  0.00    +0.145 HD
ENDBRANCH  19  20
ENDBRANCH  14  19
ENDBRANCH   3  14
TORSDOF 6
