REMARK  Name = ZINC05956083
REMARK  9 active torsions:
REMARK  status: ('A' for Active; 'I' for Inactive)
REMARK    1  A    between atoms: C_1  and  C_2
REMARK    2  A    between atoms: C_4  and  C_27
REMARK    3  A    between atoms: C_5  and  C_25
REMARK    4  A    between atoms: N_8  and  C_9
REMARK    5  A    between atoms: C_11  and  O_24
REMARK    6  A    between atoms: C_13  and  O_23
REMARK    7  A    between atoms: C_15  and  O_22
REMARK    8  A    between atoms: C_17  and  C_20
REMARK    9  A    between atoms: C_20  and  O_21
REMARK                            x       y       z     vdW  Elec       q    Type
REMARK                         _______ _______ _______ _____ _____    ______ ____
ROOT
ATOM      1  C   UNL     1      -3.473   1.391   0.240  0.00  0.00    +0.063 C 
ATOM      2  C   UNL     1      -3.111   0.829  -1.111  0.00  0.00    +0.020 A 
ATOM      3  C   UNL     1      -3.890   1.118  -2.179  0.00  0.00    +0.031 A 
ATOM      4  C   UNL     1      -3.564   0.600  -3.448  0.00  0.00    +0.004 A 
ATOM      5  C   UNL     1      -2.426  -0.213  -3.573  0.00  0.00    +0.090 A 
ATOM      6  C   UNL     1      -1.647  -0.476  -2.420  0.00  0.00    +0.107 A 
ATOM      7  S   UNL     1      -0.249  -1.456  -2.535  0.00  0.00    -0.031 S 
ATOM      8  N   UNL     1      -2.011   0.043  -1.232  0.00  0.00    -0.309 N 
ENDROOT
BRANCH   4   9
ATOM      9  C   UNL     1      -4.405   0.907  -4.625  0.00  0.00    -0.016 A 
ATOM     10  C   UNL     1      -5.788   0.727  -4.566  0.00  0.00    +0.010 A 
ATOM     11  C   UNL     1      -6.567   1.019  -5.666  0.00  0.00    +0.020 A 
ATOM     12  C   UNL     1      -5.978   1.482  -6.831  0.00  0.00    +0.041 A 
ATOM     13  C   UNL     1      -4.606   1.658  -6.898  0.00  0.00    +0.020 A 
ATOM     14  C   UNL     1      -3.817   1.374  -5.803  0.00  0.00    +0.010 A 
ATOM     15 CL   UNL     1      -6.964   1.841  -8.214  0.00  0.00    -0.084 Cl
ENDBRANCH   4   9
BRANCH   8  16
ATOM     16  C   UNL     1      -1.199  -0.242  -0.046  0.00  0.00    +0.252 C 
ATOM     17  C   UNL     1      -1.903  -1.295   0.814  0.00  0.00    +0.195 C 
ATOM     18  C   UNL     1      -1.078  -1.543   2.080  0.00  0.00    +0.178 C 
ATOM     19  C   UNL     1      -0.890  -0.216   2.823  0.00  0.00    +0.177 C 
ATOM     20  C   UNL     1      -0.226   0.795   1.885  0.00  0.00    +0.177 C 
ATOM     21  O   UNL     1      -1.028   0.956   0.714  0.00  0.00    -0.346 OA
BRANCH  19  22
ATOM     22  O   UNL     1      -2.163   0.283   3.239  0.00  0.00    -0.386 OA
ATOM     23  H   UNL     1      -2.642  -0.307   3.836  0.00  0.00    +0.210 HD
ENDBRANCH  19  22
BRANCH  18  24
ATOM     24  O   UNL     1      -1.764  -2.470   2.924  0.00  0.00    -0.386 OA
ATOM     25  H   UNL     1      -1.297  -2.674   3.746  0.00  0.00    +0.210 HD
ENDBRANCH  18  24
BRANCH  17  26
ATOM     26  O   UNL     1      -2.022  -2.512   0.076  0.00  0.00    -0.385 OA
ATOM     27  H   UNL     1      -2.460  -3.225   0.561  0.00  0.00    +0.210 HD
ENDBRANCH  17  26
BRANCH  20  28
ATOM     28  C   UNL     1      -0.090   2.141   2.600  0.00  0.00    +0.190 C 
BRANCH  28  29
ATOM     29  O   UNL     1       0.633   3.051   1.768  0.00  0.00    -0.392 OA
ATOM     30  H   UNL     1       0.757   3.927   2.159  0.00  0.00    +0.210 HD
ENDBRANCH  28  29
ENDBRANCH  20  28
ENDBRANCH   8  16
BRANCH   5  31
ATOM     31  C   UNL     1      -2.057  -0.762  -4.843  0.00  0.00    +0.102 C 
ATOM     32  N   UNL     1      -1.764  -1.198  -5.851  0.00  0.00    -0.191 NA
ENDBRANCH   5  31
TORSDOF 8
