REMARK  Name = ZINC24421420
REMARK  9 active torsions:
REMARK  status: ('A' for Active; 'I' for Inactive)
REMARK    1  A    between atoms: C_1  and  C_2
REMARK    2  A    between atoms: C_5  and  C_8
REMARK    3  A    between atoms: C_8  and  C_10
REMARK    4  A    between atoms: C_10  and  N_11
REMARK    5  A    between atoms: C_14  and  C_18
REMARK    6  A    between atoms: C_14  and  C_19
REMARK    7  A    between atoms: C_22  and  C_25
REMARK    8  A    between atoms: C_25  and  C_26
REMARK    9  A    between atoms: C_25  and  C_27
REMARK                            x       y       z     vdW  Elec       q    Type
REMARK                         _______ _______ _______ _____ _____    ______ ____
ROOT
ATOM      1  N   UNL     1       3.143   5.221   1.757  0.00  0.00    -0.216 N 
ATOM      2  C   UNL     1       2.287   5.262   0.717  0.00  0.00    +0.251 C 
ATOM      3  O   UNL     1       1.541   6.169   0.418  0.00  0.00    -0.272 OA
ATOM      4  C   UNL     1       2.451   3.937  -0.001  0.00  0.00    +0.135 C 
ATOM      5  N   UNL     1       3.476   3.237   0.792  0.00  0.00    -0.281 N 
ATOM      6  C   UNL     1       3.818   4.066   1.796  0.00  0.00    +0.310 C 
ATOM      7  O   UNL     1       4.646   3.796   2.643  0.00  0.00    -0.252 OA
ATOM      8  C   UNL     1       2.934   4.158  -1.436  0.00  0.00    +0.047 C 
ATOM      9  H   UNL     1       3.804   2.229   0.501  0.00  0.00    +0.152 HD
ENDROOT
BRANCH   4  10
ATOM     10  C   UNL     1       1.156   3.165   0.008  0.00  0.00    -0.015 A 
ATOM     11  C   UNL     1       1.175   1.783   0.000  0.00  0.00    +0.006 A 
ATOM     12  C   UNL     1      -0.013   1.076   0.008  0.00  0.00    +0.004 A 
ATOM     13  C   UNL     1      -1.219   1.751   0.017  0.00  0.00    -0.045 A 
ATOM     14  C   UNL     1      -1.238   3.133   0.030  0.00  0.00    +0.004 A 
ATOM     15  C   UNL     1      -0.050   3.840   0.022  0.00  0.00    +0.006 A 
BRANCH  13  16
ATOM     16  C   UNL     1      -2.514   0.980   0.019  0.00  0.00    +0.013 C 
ATOM     17  C   UNL     1      -3.315   1.331   1.274  0.00  0.00    +0.012 C 
ATOM     18  C   UNL     1      -3.327   1.345  -1.224  0.00  0.00    +0.012 C 
ENDBRANCH  13  16
ENDBRANCH   4  10
BRANCH   1  19
ATOM     19  C   UNL     1       3.313   6.306   2.726  0.00  0.00    +0.197 C 
BRANCH  19  20
ATOM     20  C   UNL     1       2.355   6.111   3.873  0.00  0.00    +0.181 C 
ATOM     21  O   UNL     1       1.604   5.159   3.879  0.00  0.00    -0.290 OA
BRANCH  20  26
ATOM     22  C   UNL     1       2.260   9.878   8.214  0.00  0.00    +0.044 C 
ATOM     23  C   UNL     1       2.285   8.890   7.076  0.00  0.00    -0.050 A 
ATOM     24  C   UNL     1       1.425   7.805   7.087  0.00  0.00    +0.004 A 
ATOM     25  C   UNL     1       1.442   6.897   6.049  0.00  0.00    +0.011 A 
ATOM     26  C   UNL     1       2.330   7.075   4.984  0.00  0.00    +0.019 A 
ATOM     27  C   UNL     1       3.199   8.171   4.982  0.00  0.00    +0.011 A 
ATOM     28  C   UNL     1       3.166   9.073   6.025  0.00  0.00    +0.004 A 
ENDBRANCH  20  26
ENDBRANCH  19  20
ENDBRANCH   1  19
TORSDOF 5
