REMARK  Name = ZINC39667054
REMARK  8 active torsions:
REMARK  status: ('A' for Active; 'I' for Inactive)
REMARK    1  A    between atoms: C_1  and  C_2
REMARK    2  A    between atoms: C_5  and  C_9
REMARK    3  A    between atoms: C_6  and  C_8
REMARK    4  A    between atoms: C_9  and  C_10
REMARK    5  A    between atoms: C_10  and  N_11
REMARK    6  A    between atoms: C_12  and  C_14
REMARK    7  A    between atoms: C_25  and  C_27
REMARK    8  A    between atoms: C_27  and  C_33
REMARK                            x       y       z     vdW  Elec       q    Type
REMARK                         _______ _______ _______ _____ _____    ______ ____
ROOT
ATOM      1  C   UNL     1      -2.178  -8.987   0.186  0.00  0.00    +0.100 C 
ATOM      2  C   UNL     1      -1.345  -9.220   1.467  0.00  0.00    +0.121 C 
ATOM      3  N   UNL     1      -2.351  -9.470   2.526  0.00  0.00    -0.300 N 
ATOM      4  C   UNL     1      -3.386 -10.298   1.863  0.00  0.00    +0.115 C 
ATOM      5  C   UNL     1      -3.515  -9.699   0.449  0.00  0.00    -0.004 C 
ATOM      6  C   UNL     1      -3.734 -10.808  -0.576  0.00  0.00    -0.010 C 
ATOM      7  C   UNL     1      -5.096 -11.462  -0.331  0.00  0.00    -0.082 C 
ATOM      8  N   UNL     1      -6.154 -10.451  -0.440  0.00  0.00    +0.379 N 
ATOM      9  C   UNL     1      -5.989  -9.438   0.609  0.00  0.00    -0.082 C 
ATOM     10  C   UNL     1      -4.665  -8.698   0.403  0.00  0.00    -0.010 C 
ATOM     11  C   UNL     1      -2.328  -9.042   3.804  0.00  0.00    +0.222 C 
ATOM     12  O   UNL     1      -1.444  -8.301   4.180  0.00  0.00    -0.275 OA
ATOM     13  H   UNL     1      -6.101 -10.008  -1.345  0.00  0.00    -0.086 HD
ATOM     14  H   UNL     1      -7.054 -10.895  -0.338  0.00  0.00    -0.086 HD
ENDROOT
BRANCH  11  15
ATOM     15  C   UNL     1      -3.401  -9.483   4.766  0.00  0.00    +0.044 C 
ATOM     16  C   UNL     1      -4.745  -8.889   4.338  0.00  0.00    +0.016 C 
ATOM     17  C   UNL     1      -4.653  -7.362   4.342  0.00  0.00    +0.001 C 
ATOM     18  C   UNL     1      -4.306  -6.877   5.751  0.00  0.00    +0.000 C 
ATOM     19  C   UNL     1      -2.962  -7.470   6.179  0.00  0.00    +0.001 C 
ATOM     20  C   UNL     1      -3.055  -8.997   6.174  0.00  0.00    +0.016 C 
ATOM     21  C   UNL     1      -3.494 -11.010   4.761  0.00  0.00    +0.021 C 
ENDBRANCH  11  15
BRANCH   1  23
ATOM     22  N   UNL     1      -2.550  -7.032  -1.283  0.00  0.00    -0.315 N 
ATOM     23  C   UNL     1      -2.402  -7.513  -0.033  0.00  0.00    +0.218 C 
ATOM     24  O   UNL     1      -2.450  -6.760   0.916  0.00  0.00    -0.275 OA
ATOM     25  H   UNL     1      -2.512  -7.635  -2.042  0.00  0.00    +0.149 HD
BRANCH  22  26
ATOM     26  C   UNL     1      -2.768  -5.599  -1.496  0.00  0.00    +0.109 C 
BRANCH  26  27
ATOM     27  C   UNL     1      -2.903  -5.321  -2.994  0.00  0.00    +0.054 C 
BRANCH  27  32
ATOM     28  C   UNL     1      -3.764   0.332  -3.829  0.00  0.00    +0.044 C 
ATOM     29  C   UNL     1      -3.540  -1.142  -3.612  0.00  0.00    -0.050 A 
ATOM     30  C   UNL     1      -4.619  -2.003  -3.541  0.00  0.00    +0.003 A 
ATOM     31  C   UNL     1      -4.413  -3.355  -3.341  0.00  0.00    +0.004 A 
ATOM     32  C   UNL     1      -3.128  -3.846  -3.213  0.00  0.00    -0.043 A 
ATOM     33  C   UNL     1      -2.048  -2.986  -3.284  0.00  0.00    -0.047 A 
ATOM     34  C   UNL     1      -2.254  -1.634  -3.488  0.00  0.00    +0.007 A 
ATOM     35  C   UNL     1      -0.647  -3.522  -3.143  0.00  0.00    +0.044 C 
ENDBRANCH  27  32
ENDBRANCH  26  27
ENDBRANCH  22  26
ENDBRANCH   1  23
TORSDOF 5
