REMARK  Name = ZINC01217883
REMARK  10 active torsions:
REMARK  status: ('A' for Active; 'I' for Inactive)
REMARK    1  A    between atoms: C_1  and  C_2
REMARK    2  A    between atoms: C_2  and  C_3
REMARK    3  A    between atoms: C_3  and  C_4
REMARK    4  A    between atoms: C_3  and  C_5
REMARK    5  A    between atoms: C_3  and  C_6
REMARK    6  A    between atoms: C_13  and  N_18
REMARK    7  A    between atoms: C_14  and  C_15
REMARK    8  A    between atoms: C_19  and  C_21
REMARK    9  A    between atoms: C_24  and  N_28
REMARK   10  A    between atoms: C_25  and  C_27
REMARK                            x       y       z     vdW  Elec       q    Type
REMARK                         _______ _______ _______ _____ _____    ______ ____
ROOT
ATOM      1  C   UNL     1      -0.485  -2.683  -1.346  0.00  0.00    -0.000 C 
ATOM      2  C   UNL     1      -1.975  -2.996  -1.185  0.00  0.00    +0.009 C 
ATOM      3  C   UNL     1      -2.191  -4.510  -1.182  0.00  0.00    +0.037 C 
ATOM      4  C   UNL     1      -1.266  -5.135  -0.144  0.00  0.00    -0.023 A 
ATOM      5  C   UNL     1      -0.195  -4.461   0.328  0.00  0.00    -0.004 A 
ATOM      6  S   UNL     1       0.560  -5.567   1.487  0.00  0.00    -0.077 S 
ATOM      7  C   UNL     1      -0.531  -6.906   1.348  0.00  0.00    +0.085 A 
ATOM      8  C   UNL     1      -1.453  -6.466   0.408  0.00  0.00    +0.068 A 
ATOM      9  C   UNL     1       0.246  -3.083  -0.056  0.00  0.00    +0.046 C 
ENDROOT
BRANCH   8  10
ATOM     10  C   UNL     1      -2.574  -7.313  -0.011  0.00  0.00    +0.244 C 
ATOM     11  O   UNL     1      -2.446  -8.068  -0.957  0.00  0.00    -0.270 OA
ATOM     12  N   UNL     1      -3.747  -7.255   0.651  0.00  0.00    -0.325 N 
ATOM     13  H   UNL     1      -3.849  -6.653   1.405  0.00  0.00    +0.145 HD
ATOM     14  H   UNL     1      -4.488  -7.815   0.373  0.00  0.00    +0.145 HD
ENDBRANCH   8  10
BRANCH   7  15
ATOM     15  N   UNL     1      -0.492  -8.120   2.013  0.00  0.00    -0.275 N 
ATOM     16  C   UNL     1       0.490  -8.371   2.901  0.00  0.00    +0.249 C 
ATOM     17  O   UNL     1       1.343  -7.532   3.118  0.00  0.00    -0.270 OA
ATOM     18  H   UNL     1      -1.172  -8.790   1.840  0.00  0.00    +0.156 HD
BRANCH  16  19
ATOM     19  C   UNL     1       0.532  -9.667   3.610  0.00  0.00    +0.037 A 
ATOM     20  C   UNL     1      -0.449 -10.631   3.367  0.00  0.00    +0.015 A 
ATOM     21  C   UNL     1      -0.402 -11.840   4.030  0.00  0.00    +0.034 A 
ATOM     22  C   UNL     1       0.609 -12.095   4.940  0.00  0.00    +0.129 A 
ATOM     23  C   UNL     1       1.581 -11.142   5.189  0.00  0.00    -0.020 A 
ATOM     24  C   UNL     1       1.548  -9.931   4.530  0.00  0.00    +0.018 A 
ATOM     25  C   UNL     1       2.677 -11.428   6.183  0.00  0.00    +0.046 C 
BRANCH  22  26
ATOM     26  N   UNL     1       0.650 -13.393   5.651  0.00  0.00    +0.057 N 
ATOM     27  O   UNL     1      -0.132 -14.277   5.351  0.00  0.00    -0.126 OA
ATOM     28  O   UNL     1       1.466 -13.576   6.536  0.00  0.00    -0.126 OA
ENDBRANCH  22  26
ENDBRANCH  16  19
ENDBRANCH   7  15
BRANCH   1  29
ATOM     29  C   UNL     1      -0.300  -1.185  -1.597  0.00  0.00    -0.032 C 
ATOM     30  C   UNL     1      -0.861  -0.396  -0.411  0.00  0.00    +0.011 C 
ATOM     31  C   UNL     1      -1.044  -0.785  -2.873  0.00  0.00    +0.011 C 
BRANCH  29  33
ATOM     32  C   UNL     1       1.375   0.623  -2.007  0.00  0.00    +0.004 C 
ATOM     33  C   UNL     1       1.190  -0.875  -1.756  0.00  0.00    +0.003 C 
ENDBRANCH  29  33
ENDBRANCH   1  29
TORSDOF 6
