REMARK  Name = ZINC49179700
REMARK  8 active torsions:
REMARK  status: ('A' for Active; 'I' for Inactive)
REMARK    1  A    between atoms: C_1  and  C_2
REMARK    2  A    between atoms: C_2  and  C_4
REMARK    3  A    between atoms: C_2  and  C_20
REMARK    4  A    between atoms: C_4  and  N_5
REMARK    5  A    between atoms: C_6  and  C_8
REMARK    6  A    between atoms: C_11  and  C_14
REMARK    7  A    between atoms: C_20  and  O_21
REMARK    8  A    between atoms: O_21  and  C_22
REMARK                            x       y       z     vdW  Elec       q    Type
REMARK                         _______ _______ _______ _____ _____    ______ ____
ROOT
ATOM      1  C   UNL     1       4.443  -0.023   2.090  0.00  0.00    +0.295 C 
ATOM      2  C   UNL     1       4.583   1.512   2.234  0.00  0.00    +0.117 C 
ATOM      3  C   UNL     1       4.826   1.683   3.721  0.00  0.00    +0.098 C 
ATOM      4  N   UNL     1       5.146   0.529   4.215  0.00  0.00    -0.088 NA
ATOM      5  O   UNL     1       5.175  -0.495   3.239  0.00  0.00    -0.380 OA
ENDROOT
BRANCH   3   6
ATOM      6  C   UNL     1       4.718   2.939   4.471  0.00  0.00    +0.038 A 
ATOM      7  C   UNL     1       4.929   3.171   5.819  0.00  0.00    +0.019 A 
ATOM      8  C   UNL     1       4.764   4.449   6.296  0.00  0.00    +0.028 A 
ATOM      9  C   UNL     1       4.402   5.439   5.435  0.00  0.00    +0.079 A 
ATOM     10  S   UNL     1       4.286   4.568   3.881  0.00  0.00    -0.075 S 
ATOM     11 CL   UNL     1       4.127   7.121   5.763  0.00  0.00    -0.076 Cl
ENDBRANCH   3   6
BRANCH   1  13
ATOM     12  N   UNL     1       2.148  -0.104   1.172  0.00  0.00    -0.312 N 
ATOM     13  C   UNL     1       2.997  -0.441   2.162  0.00  0.00    +0.257 C 
ATOM     14  O   UNL     1       2.598  -1.082   3.111  0.00  0.00    -0.272 OA
ATOM     15  H   UNL     1       2.467   0.409   0.412  0.00  0.00    +0.149 HD
BRANCH  12  16
ATOM     16  C   UNL     1       0.742  -0.511   1.242  0.00  0.00    +0.109 C 
BRANCH  16  18
ATOM     17  C   UNL     1      -0.019   1.526   0.010  0.00  0.00    +0.011 C 
ATOM     18  C   UNL     1       0.002  -0.004   0.002  0.00  0.00    +0.029 C 
BRANCH  18  19
ATOM     19  C   UNL     1      -1.433  -0.534   0.013  0.00  0.00    +0.164 C 
BRANCH  19  20
ATOM     20  O   UNL     1      -2.089  -0.158  -1.200  0.00  0.00    -0.383 OA
ATOM     21  C   UNL     1      -3.443  -0.606  -1.292  0.00  0.00    +0.193 C 
ENDBRANCH  19  20
ENDBRANCH  18  19
ENDBRANCH  16  18
ENDBRANCH  12  16
ENDBRANCH   1  13
TORSDOF 6
