REMARK  Name = ZINC06520938
REMARK  9 active torsions:
REMARK  status: ('A' for Active; 'I' for Inactive)
REMARK    1  A    between atoms: C_1  and  C_2
REMARK    2  A    between atoms: C_5  and  C_7
REMARK    3  A    between atoms: C_8  and  C_9
REMARK    4  A    between atoms: N_11  and  C_12
REMARK    5  A    between atoms: C_12  and  N_14
REMARK    6  A    between atoms: N_14  and  N_15
REMARK    7  A    between atoms: C_16  and  C_18
REMARK    8  A    between atoms: C_21  and  N_24
REMARK    9  A    between atoms: C_25  and  C_27
REMARK                            x       y       z     vdW  Elec       q    Type
REMARK                         _______ _______ _______ _____ _____    ______ ____
ROOT
ATOM      1  N   UNL     1       0.149   9.833   0.511  0.00  0.00    -0.245 N 
ATOM      2  H   UNL     1      -0.679  10.333   0.587  0.00  0.00    +0.172 HD
ENDROOT
BRANCH   1   3
ATOM      3  N   UNL     1       0.117   8.435   0.412  0.00  0.00    -0.231 N 
ATOM      4  C   UNL     1      -1.064   7.786   0.421  0.00  0.00    +0.260 C 
ATOM      5  O   UNL     1      -2.102   8.413   0.516  0.00  0.00    -0.269 OA
ATOM      6  H   UNL     1       0.944   7.935   0.336  0.00  0.00    +0.173 HD
BRANCH   4   7
ATOM      7  C   UNL     1      -1.098   6.314   0.317  0.00  0.00    +0.038 A 
ATOM      8  C   UNL     1      -2.322   5.640   0.327  0.00  0.00    +0.015 A 
ATOM      9  C   UNL     1      -2.350   4.267   0.229  0.00  0.00    +0.024 A 
ATOM     10  C   UNL     1      -1.162   3.551   0.119  0.00  0.00    +0.033 A 
ATOM     11  C   UNL     1       0.058   4.219   0.115  0.00  0.00    +0.024 A 
ATOM     12  C   UNL     1       0.093   5.592   0.207  0.00  0.00    +0.015 A 
BRANCH  10  13
ATOM     13  N   UNL     1      -1.195   2.161   0.019  0.00  0.00    -0.286 N 
ATOM     14  C   UNL     1      -0.267   1.516  -0.716  0.00  0.00    +0.214 C 
ATOM     15  O   UNL     1       0.535   2.149  -1.370  0.00  0.00    -0.276 OA
ATOM     16  C   UNL     1      -0.231   0.010  -0.731  0.00  0.00    +0.109 C 
ATOM     17  H   UNL     1      -1.884   1.657   0.480  0.00  0.00    +0.155 HD
ENDBRANCH  10  13
ENDBRANCH   4   7
ENDBRANCH   1   3
BRANCH   1  18
ATOM     18  C   UNL     1       1.330  10.482   0.501  0.00  0.00    +0.153 C 
ATOM     19  S   UNL     1       1.370  12.189   0.623  0.00  0.00    -0.017 S 
BRANCH  18  22
ATOM     20  C   UNL     1       3.661  10.436   0.387  0.00  0.00    +0.242 C 
ATOM     21  O   UNL     1       3.689  11.650   0.473  0.00  0.00    -0.270 OA
ATOM     22  N   UNL     1       2.480   9.787   0.396  0.00  0.00    -0.263 N 
ATOM     23  H   UNL     1       2.458   8.819   0.328  0.00  0.00    +0.157 HD
BRANCH  20  25
ATOM     24  C   UNL     1       6.057  10.361   0.267  0.00  0.00    +0.051 C 
ATOM     25  C   UNL     1       4.868   9.707   0.276  0.00  0.00    +0.071 C 
BRANCH  24  30
ATOM     26  C   UNL     1       9.207   6.553  -0.161  0.00  0.00    +0.086 C 
ATOM     27  C   UNL     1       8.672   7.956  -0.033  0.00  0.00    +0.103 A 
ATOM     28  C   UNL     1       9.421   9.081   0.013  0.00  0.00    +0.045 A 
ATOM     29  C   UNL     1       8.537  10.164   0.128  0.00  0.00    +0.049 A 
ATOM     30  C   UNL     1       7.265   9.631   0.156  0.00  0.00    +0.128 A 
ATOM     31  O   UNL     1       7.377   8.290   0.054  0.00  0.00    -0.461 OA
ENDBRANCH  24  30
ENDBRANCH  20  25
ENDBRANCH  18  22
ENDBRANCH   1  18
TORSDOF 7
