REMARK  Name = ZINC41738111
REMARK  9 active torsions:
REMARK  status: ('A' for Active; 'I' for Inactive)
REMARK    1  A    between atoms: C_1  and  C_2
REMARK    2  A    between atoms: C_5  and  C_25
REMARK    3  A    between atoms: C_6  and  C_8
REMARK    4  A    between atoms: C_8  and  C_10
REMARK    5  A    between atoms: C_8  and  N_11
REMARK    6  A    between atoms: C_12  and  C_14
REMARK    7  A    between atoms: C_14  and  C_23
REMARK    8  A    between atoms: C_15  and  C_16
REMARK    9  A    between atoms: C_19  and  O_22
REMARK                            x       y       z     vdW  Elec       q    Type
REMARK                         _______ _______ _______ _____ _____    ______ ____
ROOT
ATOM      1  N   UNL     1      -0.828  -1.999   3.409  0.00  0.00    -0.304 N 
ATOM      2  C   UNL     1      -1.363  -2.583   4.500  0.00  0.00    +0.255 C 
ATOM      3  O   UNL     1      -1.567  -3.782   4.510  0.00  0.00    -0.269 OA
ATOM      4  H   UNL     1      -0.665  -1.043   3.401  0.00  0.00    +0.150 HD
ENDROOT
BRANCH   1   5
ATOM      5  C   UNL     1      -0.492  -2.809   2.235  0.00  0.00    +0.101 C 
ATOM      6  C   UNL     1       0.902  -3.414   2.414  0.00  0.00    +0.033 C 
BRANCH   5  12
ATOM      7  C   UNL     1      -0.077   1.702   0.109  0.00  0.00    +0.044 C 
ATOM      8  C   UNL     1      -0.310   0.218  -0.013  0.00  0.00    -0.050 A 
ATOM      9  C   UNL     1      -0.540  -0.346  -1.255  0.00  0.00    +0.003 A 
ATOM     10  C   UNL     1      -0.754  -1.707  -1.366  0.00  0.00    +0.004 A 
ATOM     11  C   UNL     1      -0.739  -2.504  -0.237  0.00  0.00    -0.046 A 
ATOM     12  C   UNL     1      -0.509  -1.940   1.004  0.00  0.00    -0.024 A 
ATOM     13  C   UNL     1      -0.290  -0.580   1.115  0.00  0.00    +0.009 A 
ATOM     14  C   UNL     1      -0.973  -3.988  -0.359  0.00  0.00    +0.044 C 
ENDBRANCH   5  12
ENDBRANCH   1   5
BRANCH   2  15
ATOM     15  C   UNL     1      -1.700  -1.770   5.678  0.00  0.00    +0.114 C 
ATOM     16  C   UNL     1      -2.246  -2.366   6.794  0.00  0.00    +0.032 C 
BRANCH  16  17
ATOM     17  C   UNL     1      -2.736  -1.541   7.899  0.00  0.00    -0.023 A 
ATOM     18  C   UNL     1      -3.324  -0.294   7.641  0.00  0.00    +0.011 A 
ATOM     19  C   UNL     1      -3.779   0.471   8.677  0.00  0.00    +0.046 A 
ATOM     20  C   UNL     1      -3.661   0.016   9.986  0.00  0.00    +0.117 A 
ATOM     21  C   UNL     1      -3.079  -1.220  10.249  0.00  0.00    +0.046 A 
ATOM     22  C   UNL     1      -2.626  -1.997   9.221  0.00  0.00    +0.011 A 
BRANCH  20  23
ATOM     23  O   UNL     1      -4.114   0.781  11.011  0.00  0.00    -0.507 OA
ATOM     24  H   UNL     1      -5.038   0.617  11.245  0.00  0.00    +0.292 HD
ENDBRANCH  20  23
ENDBRANCH  16  17
BRANCH  15  25
ATOM     25  C   UNL     1      -1.460  -0.358   5.667  0.00  0.00    +0.104 C 
ATOM     26  N   UNL     1      -1.269   0.762   5.657  0.00  0.00    -0.191 NA
ENDBRANCH  15  25
ENDBRANCH   2  15
TORSDOF 6
