REMARK  Name = ZINC04489158
REMARK  6 active torsions:
REMARK  status: ('A' for Active; 'I' for Inactive)
REMARK    1  A    between atoms: C_3  and  O_27
REMARK    2  A    between atoms: C_4  and  C_8
REMARK    3  A    between atoms: C_8  and  C_10
REMARK    4  A    between atoms: C_12  and  C_17
REMARK    5  A    between atoms: N_19  and  C_20
REMARK    6  A    between atoms: C_20  and  C_21
REMARK                            x       y       z     vdW  Elec       q    Type
REMARK                         _______ _______ _______ _____ _____    ______ ____
ROOT
ATOM      1  C   UNL     1      -6.689   6.489   0.986  0.00  0.00    +0.058 A 
ATOM      2  C   UNL     1      -5.782   5.643   0.307  0.00  0.00    +0.033 A 
ATOM      3  C   UNL     1      -5.245   6.074  -0.895  0.00  0.00    +0.097 A 
ATOM      4  C   UNL     1      -5.642   7.397  -1.404  0.00  0.00    +0.204 A 
ATOM      5  N   UNL     1      -5.153   7.842  -2.532  0.00  0.00    -0.369 N 
ATOM      6  O   UNL     1      -6.519   8.145  -0.701  0.00  0.00    -0.446 OA
ATOM      7  C   UNL     1      -7.027   7.715   0.457  0.00  0.00    +0.209 A 
ATOM      8  H   UNL     1      -5.452   8.831  -2.909  0.00  0.00    +0.159 HD
ATOM      9  H   UNL     1      -4.443   7.227  -3.104  0.00  0.00    +0.159 HD
ENDROOT
BRANCH   3  10
ATOM     10  C   UNL     1      -4.297   5.233  -1.641  0.00  0.00    +0.249 C 
ATOM     11  O   UNL     1      -3.835   5.626  -2.696  0.00  0.00    -0.270 OA
ATOM     12  N   UNL     1      -3.941   4.026  -1.157  0.00  0.00    -0.309 N 
ATOM     13  H   UNL     1      -4.359   3.671  -0.204  0.00  0.00    +0.149 HD
BRANCH  12  14
ATOM     14  C   UNL     1      -2.997   3.188  -1.901  0.00  0.00    +0.136 C 
BRANCH  14  15
ATOM     15  C   UNL     1      -2.764   1.882  -1.139  0.00  0.00    +0.135 C 
ATOM     16  C   UNL     1      -1.770   0.982  -1.905  0.00  0.00    +0.035 C 
ATOM     17  C   UNL     1      -0.931   0.317  -0.792  0.00  0.00    +0.031 C 
ATOM     18  C   UNL     1      -1.513   0.893   0.517  0.00  0.00    +0.160 C 
ATOM     19  O   UNL     1      -2.122   2.146   0.128  0.00  0.00    -0.375 OA
ENDBRANCH  14  15
ENDBRANCH  12  14
ENDBRANCH   3  10
BRANCH   1  20
ATOM     20  C   UNL     1      -7.276   6.057   2.268  0.00  0.00    +0.200 C 
ATOM     21  O   UNL     1      -6.906   5.021   2.788  0.00  0.00    -0.286 OA
BRANCH  20  25
ATOM     22  C   UNL     1     -10.261   8.428   4.145  0.00  0.00    +0.019 A 
ATOM     23  C   UNL     1     -10.592   7.656   3.049  0.00  0.00    +0.047 A 
ATOM     24  C   UNL     1      -9.626   6.878   2.428  0.00  0.00    +0.128 A 
ATOM     25  C   UNL     1      -8.312   6.880   2.919  0.00  0.00    +0.065 A 
ATOM     26  C   UNL     1      -7.992   7.662   4.032  0.00  0.00    +0.030 A 
ATOM     27  C   UNL     1      -8.964   8.433   4.633  0.00  0.00    +0.019 A 
ATOM     28 BR   UNL     1      -8.528   9.497   6.134  0.00  0.00    -0.050 Br
BRANCH  24  29
ATOM     29  O   UNL     1      -9.951   6.119   1.352  0.00  0.00    -0.506 OA
ATOM     30  H   UNL     1      -9.182   5.503   0.862  0.00  0.00    +0.292 HD
ENDBRANCH  24  29
ENDBRANCH  20  25
ENDBRANCH   1  20
TORSDOF 6
