REMARK  Name = ZINC37224604
REMARK  6 active torsions:
REMARK  status: ('A' for Active; 'I' for Inactive)
REMARK    1  A    between atoms: C_1  and  N_2
REMARK    2  A    between atoms: C_3  and  C_5
REMARK    3  A    between atoms: C_5  and  N_6
REMARK    4  A    between atoms: N_6  and  S_7
REMARK    5  A    between atoms: S_7  and  C_10
REMARK    6  A    between atoms: C_12  and  N_17
REMARK                            x       y       z     vdW  Elec       q    Type
REMARK                         _______ _______ _______ _____ _____    ______ ____
ROOT
ATOM      1  S   UNL     1       1.793  -4.219  -2.335  0.00  0.00    +0.062 S 
ATOM      2  O   UNL     1       2.390  -4.371  -3.616  0.00  0.00    -0.153 OA
ATOM      3  O   UNL     1       2.491  -4.503  -1.131  0.00  0.00    -0.153 OA
ENDROOT
BRANCH   1   4
ATOM      4  C   UNL     1       0.348  -5.227  -2.330  0.00  0.00    +0.142 A 
ATOM      5  C   UNL     1       0.029  -5.983  -3.442  0.00  0.00    +0.054 A 
ATOM      6  C   UNL     1      -1.109  -6.777  -3.437  0.00  0.00    +0.027 A 
ATOM      7  C   UNL     1      -1.926  -6.810  -2.314  0.00  0.00    +0.025 A 
ATOM      8  C   UNL     1      -1.604  -6.053  -1.205  0.00  0.00    +0.042 A 
ATOM      9  C   UNL     1      -0.465  -5.265  -1.210  0.00  0.00    +0.150 A 
ATOM     10  F   UNL     1      -0.148  -4.530  -0.122  0.00  0.00    -0.203 F 
BRANCH   6  11
ATOM     11  N   UNL     1      -1.434  -7.543  -4.561  0.00  0.00    -0.358 N 
ATOM     12  H   UNL     1      -0.863  -7.519  -5.345  0.00  0.00    +0.142 HD
ATOM     13  H   UNL     1      -2.230  -8.097  -4.557  0.00  0.00    +0.142 HD
ENDBRANCH   6  11
ENDBRANCH   1   4
BRANCH   1  14
ATOM     14  N   UNL     1       1.291  -2.644  -2.232  0.00  0.00    -0.181 NA
ATOM     15  H   UNL     1       1.452  -2.034  -2.969  0.00  0.00    +0.149 HD
BRANCH  14  16
ATOM     16  C   UNL     1       0.606  -2.171  -1.026  0.00  0.00    +0.201 C 
BRANCH  16  19
ATOM     17  C   UNL     1      -0.018   1.461   0.010  0.00  0.00    +0.128 C 
ATOM     18  N   UNL     1       0.002  -0.004   0.002  0.00  0.00    -0.317 N 
ATOM     19  C   UNL     1       0.585  -0.664  -1.018  0.00  0.00    +0.228 C 
ATOM     20  O   UNL     1       1.093  -0.046  -1.929  0.00  0.00    -0.274 OA
ATOM     21  H   UNL     1      -0.404  -0.499   0.731  0.00  0.00    +0.148 HD
ENDBRANCH  16  19
ENDBRANCH  14  16
ENDBRANCH   1  14
TORSDOF 5
