REMARK  Name = ZINC64665867
REMARK  5 active torsions:
REMARK  status: ('A' for Active; 'I' for Inactive)
REMARK    1  A    between atoms: C_4  and  C_7
REMARK    2  A    between atoms: C_10  and  N_22
REMARK    3  A    between atoms: N_12  and  C_14
REMARK    4  A    between atoms: N_22  and  S_23
REMARK    5  A    between atoms: S_23  and  C_26
REMARK                            x       y       z     vdW  Elec       q    Type
REMARK                         _______ _______ _______ _____ _____    ______ ____
ROOT
ATOM      1  C   UNL     1       3.712  -0.705  -0.045  0.00  0.00    +0.102 C 
ATOM      2  C   UNL     1       4.045  -1.244   1.365  0.00  0.00    +0.062 C 
ATOM      3  C   UNL     1       4.669  -2.631   1.112  0.00  0.00    +0.162 C 
ATOM      4  N   UNL     1       4.687  -2.801  -0.359  0.00  0.00    -0.219 NA
ATOM      5  N   UNL     1       3.617  -1.935  -0.875  0.00  0.00    -0.245 NA
ATOM      6  H   UNL     1       2.715  -2.374  -0.769  0.00  0.00    +0.142 HD
ENDROOT
BRANCH   4   7
ATOM      7  C   UNL     1       4.455  -4.204  -0.730  0.00  0.00    +0.097 C 
ATOM      8  C   UNL     1       4.438  -4.340  -2.261  0.00  0.00    +0.044 C 
ATOM      9  C   UNL     1       3.883  -5.729  -2.661  0.00  0.00    +0.167 C 
ATOM     10  S   UNL     1       2.768  -6.137  -1.257  0.00  0.00    -0.029 S 
ATOM     11  O   UNL     1       1.421  -6.106  -1.711  0.00  0.00    -0.174 OA
ATOM     12  O   UNL     1       3.257  -7.299  -0.601  0.00  0.00    -0.174 OA
ATOM     13  C   UNL     1       3.073  -4.669  -0.187  0.00  0.00    +0.186 C 
ENDBRANCH   4   7
BRANCH   1  17
ATOM     14  C   UNL     1      -0.013   1.385  -0.020  0.00  0.00    +0.000 A 
ATOM     15  C   UNL     1       1.176   2.091  -0.021  0.00  0.00    +0.000 A 
ATOM     16  C   UNL     1       2.381   1.414  -0.029  0.00  0.00    +0.005 A 
ATOM     17  C   UNL     1       2.398   0.032  -0.035  0.00  0.00    -0.029 A 
ATOM     18  C   UNL     1       1.210  -0.674  -0.033  0.00  0.00    +0.005 A 
ATOM     19  C   UNL     1       0.004   0.003  -0.026  0.00  0.00    +0.000 A 
ENDBRANCH   1  17
BRANCH   3  20
ATOM     20  N   UNL     1       6.033  -2.677   1.645  0.00  0.00    -0.170 NA
ATOM     21  H   UNL     1       6.780  -2.404   1.089  0.00  0.00    +0.150 HD
BRANCH  20  22
ATOM     22  S   UNL     1       6.300  -3.196   3.194  0.00  0.00    +0.078 S 
ATOM     23  O   UNL     1       7.705  -3.152   3.401  0.00  0.00    -0.151 OA
ATOM     24  O   UNL     1       5.385  -2.490   4.022  0.00  0.00    -0.151 OA
BRANCH  22  25
ATOM     25  C   UNL     1       5.834  -4.894   3.263  0.00  0.00    +0.211 A 
ATOM     26  H   UNL     1       6.179  -7.989   3.079  0.00  0.00    +0.166 HD
ATOM     27  C   UNL     1       6.639  -5.946   3.022  0.00  0.00    +0.133 A 
ATOM     28  N   UNL     1       5.879  -7.072   3.185  0.00  0.00    -0.349 N 
ATOM     29  C   UNL     1       4.635  -6.669   3.520  0.00  0.00    +0.198 A 
ATOM     30  N   UNL     1       4.616  -5.365   3.569  0.00  0.00    -0.217 NA
ENDBRANCH  22  25
ENDBRANCH  20  22
ENDBRANCH   3  20
TORSDOF 5
