REMARK  Name = ZINC40779150
REMARK  6 active torsions:
REMARK  status: ('A' for Active; 'I' for Inactive)
REMARK    1  A    between atoms: C_1  and  C_2
REMARK    2  A    between atoms: C_11  and  C_13
REMARK    3  A    between atoms: C_11  and  C_14
REMARK    4  A    between atoms: N_16  and  C_17
REMARK    5  A    between atoms: C_17  and  C_18
REMARK    6  A    between atoms: C_23  and  C_24
REMARK                            x       y       z     vdW  Elec       q    Type
REMARK                         _______ _______ _______ _____ _____    ______ ____
ROOT
ATOM      1  C   UNL     1      -0.018   1.503   0.010  0.00  0.00    +0.044 C 
ATOM      2  C   UNL     1       0.002  -0.004   0.002  0.00  0.00    -0.048 A 
ATOM      3  C   UNL     1       0.006  -0.687  -1.200  0.00  0.00    +0.007 A 
ATOM      4  C   UNL     1       0.019  -2.070  -1.216  0.00  0.00    +0.048 A 
ATOM      5  C   UNL     1       0.031  -2.773  -0.024  0.00  0.00    +0.144 A 
ATOM      6  C   UNL     1       0.038  -2.085   1.188  0.00  0.00    +0.076 A 
ATOM      7  C   UNL     1       0.023  -0.700   1.197  0.00  0.00    +0.030 A 
ATOM      8  N   UNL     1       0.086  -2.805   2.389  0.00  0.00    -0.279 N 
ATOM      9  C   UNL     1       0.342  -4.129   2.355  0.00  0.00    +0.270 C 
ATOM     10  O   UNL     1       0.279  -4.788   3.371  0.00  0.00    -0.271 OA
ATOM     11  C   UNL     1       0.706  -4.787   1.048  0.00  0.00    +0.257 C 
ATOM     12  O   UNL     1       0.025  -4.133  -0.026  0.00  0.00    -0.466 OA
ATOM     13  C   UNL     1       0.298  -6.261   1.088  0.00  0.00    +0.076 C 
ATOM     14  H   UNL     1      -0.063  -2.356   3.236  0.00  0.00    +0.155 HD
ENDROOT
BRANCH  11  15
ATOM     15  C   UNL     1       2.194  -4.685   0.833  0.00  0.00    +0.266 C 
ATOM     16  O   UNL     1       2.938  -4.569   1.784  0.00  0.00    -0.271 OA
ATOM     17  N   UNL     1       2.699  -4.724  -0.416  0.00  0.00    -0.307 N 
ATOM     18  H   UNL     1       2.105  -4.818  -1.177  0.00  0.00    +0.149 HD
BRANCH  17  19
ATOM     19  C   UNL     1       4.146  -4.626  -0.625  0.00  0.00    +0.140 C 
BRANCH  19  20
ATOM     20  C   UNL     1       4.447  -4.695  -2.100  0.00  0.00    -0.027 A 
ATOM     21  C   UNL     1       4.873  -5.883  -2.664  0.00  0.00    +0.005 A 
ATOM     22  C   UNL     1       5.149  -5.946  -4.016  0.00  0.00    +0.000 A 
ATOM     23  C   UNL     1       4.998  -4.821  -4.806  0.00  0.00    +0.000 A 
ATOM     24  C   UNL     1       4.571  -3.633  -4.242  0.00  0.00    +0.003 A 
ATOM     25  C   UNL     1       4.291  -3.571  -2.890  0.00  0.00    -0.046 A 
ATOM     26  C   UNL     1       3.821  -2.278  -2.276  0.00  0.00    +0.044 C 
ENDBRANCH  19  20
ENDBRANCH  17  19
ENDBRANCH  11  15
TORSDOF 3
