REMARK  Name = ZINC49656543
REMARK  12 active torsions:
REMARK  status: ('A' for Active; 'I' for Inactive)
REMARK    1  A    between atoms: C_1  and  C_2
REMARK    2  A    between atoms: C_2  and  C_3
REMARK    3  A    between atoms: C_4  and  C_23
REMARK    4  A    between atoms: C_5  and  C_22
REMARK    5  A    between atoms: C_6  and  C_9
REMARK    6  A    between atoms: N_11  and  C_12
REMARK    7  A    between atoms: N_11  and  C_14
REMARK    8  A    between atoms: C_12  and  C_13
REMARK    9  A    between atoms: C_17  and  C_21
REMARK   10  A    between atoms: C_19  and  C_20
REMARK   11  A    between atoms: C_23  and  O_25
REMARK   12  A    between atoms: O_25  and  C_26
REMARK                            x       y       z     vdW  Elec       q    Type
REMARK                         _______ _______ _______ _____ _____    ______ ____
ROOT
ATOM      1  C   UNL     1       1.620  -1.227  -1.157  0.00  0.00    +0.031 A 
ATOM      2  C   UNL     1       1.311   0.077  -1.498  0.00  0.00    +0.083 A 
ATOM      3  C   UNL     1       0.978   0.079  -2.872  0.00  0.00    -0.006 A 
ATOM      4  C   UNL     1       1.096  -1.206  -3.312  0.00  0.00    +0.106 A 
ATOM      5  N   UNL     1       1.495  -1.992  -2.253  0.00  0.00    -0.353 N 
ATOM      6  H   UNL     1       1.658  -2.947  -2.292  0.00  0.00    +0.166 HD
ATOM      7  C   UNL     1       0.571   1.274  -3.694  0.00  0.00    +0.047 C 
ENDROOT
BRANCH   4   8
ATOM      8  C   UNL     1       0.846  -1.672  -4.681  0.00  0.00    +0.267 C 
ATOM      9  O   UNL     1       1.780  -1.910  -5.424  0.00  0.00    -0.268 OA
ATOM     10  N   UNL     1      -0.419  -1.836  -5.117  0.00  0.00    -0.266 N 
BRANCH  10  11
ATOM     11  C   UNL     1      -0.658  -2.372  -6.386  0.00  0.00    +0.040 A 
ATOM     12  C   UNL     1      -0.702  -3.749  -6.563  0.00  0.00    +0.024 A 
ATOM     13  C   UNL     1      -0.938  -4.276  -7.817  0.00  0.00    +0.005 A 
ATOM     14  C   UNL     1      -1.130  -3.433  -8.897  0.00  0.00    -0.050 A 
ATOM     15  C   UNL     1      -1.086  -2.062  -8.725  0.00  0.00    +0.008 A 
ATOM     16  C   UNL     1      -0.857  -1.529  -7.471  0.00  0.00    -0.029 A 
ATOM     17  C   UNL     1      -0.816  -0.034  -7.283  0.00  0.00    +0.045 C 
ATOM     18  C   UNL     1      -1.386  -4.011 -10.265  0.00  0.00    +0.044 C 
ENDBRANCH  10  11
BRANCH  10  19
ATOM     19  C   UNL     1      -1.544  -1.453  -4.260  0.00  0.00    +0.110 C 
ATOM     20  C   UNL     1      -1.882  -2.608  -3.315  0.00  0.00    +0.025 C 
ENDBRANCH  10  19
ENDBRANCH   4   8
BRANCH   1  22
ATOM     21  C   UNL     1       0.787  -1.998   1.048  0.00  0.00    +0.010 C 
ATOM     22  C   UNL     1       2.034  -1.706   0.210  0.00  0.00    +0.050 C 
ENDBRANCH   1  22
BRANCH   2  23
ATOM     23  C   UNL     1       1.324   1.243  -0.599  0.00  0.00    +0.341 C 
ATOM     24  O   UNL     1       2.338   1.901  -0.471  0.00  0.00    -0.245 OA
BRANCH  23  25
ATOM     25  O   UNL     1       0.211   1.582   0.082  0.00  0.00    -0.464 OA
ATOM     26  C   UNL     1       0.296   2.725   0.936  0.00  0.00    +0.280 C 
ENDBRANCH  23  25
ENDBRANCH   2  23
TORSDOF 6
