REMARK  Name = ZINC15619322
REMARK  9 active torsions:
REMARK  status: ('A' for Active; 'I' for Inactive)
REMARK    1  A    between atoms: C_1  and  C_2
REMARK    2  A    between atoms: C_7  and  N_8
REMARK    3  A    between atoms: C_9  and  C_11
REMARK    4  A    between atoms: C_11  and  N_12
REMARK    5  A    between atoms: C_13  and  C_15
REMARK    6  A    between atoms: C_15  and  S_16
REMARK    7  A    between atoms: S_16  and  C_17
REMARK    8  A    between atoms: C_20  and  C_26
REMARK    9  A    between atoms: C_22  and  N_23
REMARK                            x       y       z     vdW  Elec       q    Type
REMARK                         _______ _______ _______ _____ _____    ______ ____
ROOT
ATOM      1  N   UNL     1       3.073   4.299   0.012  0.00  0.00    -0.306 N 
ATOM      2  C   UNL     1       1.855   3.723   0.031  0.00  0.00    +0.224 C 
ATOM      3  O   UNL     1       0.858   4.413   0.052  0.00  0.00    -0.275 OA
ATOM      4  H   UNL     1       3.871   3.747  -0.005  0.00  0.00    +0.149 HD
ENDROOT
BRANCH   1   5
ATOM      5  C   UNL     1       3.193   5.759   0.018  0.00  0.00    +0.200 C 
BRANCH   5   7
ATOM      6  N   UNL     1       5.005   7.444  -0.006  0.00  0.00    -0.284 N 
ATOM      7  C   UNL     1       4.651   6.143  -0.006  0.00  0.00    +0.234 C 
ATOM      8  O   UNL     1       5.505   5.282  -0.025  0.00  0.00    -0.274 OA
ATOM      9  H   UNL     1       4.324   8.132  -0.071  0.00  0.00    +0.155 HD
BRANCH   6  16
ATOM     10  C   UNL     1       5.805   9.960  -1.064  0.00  0.00    +0.046 C 
ATOM     11  C   UNL     1       6.788   9.020  -0.415  0.00  0.00    -0.028 A 
ATOM     12  C   UNL     1       8.120   9.373  -0.315  0.00  0.00    +0.020 A 
ATOM     13  C   UNL     1       9.023   8.508   0.275  0.00  0.00    +0.018 A 
ATOM     14  C   UNL     1       8.595   7.290   0.773  0.00  0.00    +0.017 A 
ATOM     15  C   UNL     1       7.264   6.935   0.682  0.00  0.00    +0.024 A 
ATOM     16  C   UNL     1       6.354   7.801   0.089  0.00  0.00    +0.036 A 
ATOM     17 BR   UNL     1      10.847   8.991   0.403  0.00  0.00    -0.050 Br
ENDBRANCH   6  16
ENDBRANCH   5   7
ENDBRANCH   1   5
BRANCH   2  18
ATOM     18  C   UNL     1       1.731   2.221   0.025  0.00  0.00    +0.170 C 
BRANCH  18  19
ATOM     19  S   UNL     1      -0.022   1.759   0.054  0.00  0.00    -0.114 S 
BRANCH  19  20
ATOM     20  C   UNL     1       0.001  -0.003   0.045  0.00  0.00    +0.039 A 
ATOM     21  C   UNL     1       1.217  -0.682   0.020  0.00  0.00    +0.018 A 
ATOM     22  C   UNL     1       1.242  -2.047   0.012  0.00  0.00    +0.014 A 
ATOM     23  C   UNL     1       0.044  -2.769   0.030  0.00  0.00    +0.039 A 
ATOM     24  C   UNL     1      -1.178  -2.091   0.055  0.00  0.00    +0.047 A 
ATOM     25  C   UNL     1      -1.196  -0.715   0.068  0.00  0.00    +0.140 A 
BRANCH  23  26
ATOM     26  C   UNL     1       0.070  -4.244   0.021  0.00  0.00    +0.242 C 
ATOM     27  O   UNL     1      -0.972  -4.871   0.036  0.00  0.00    -0.270 OA
ATOM     28  N   UNL     1       1.249  -4.897  -0.003  0.00  0.00    -0.325 N 
ATOM     29  H   UNL     1       2.080  -4.397  -0.015  0.00  0.00    +0.145 HD
ATOM     30  H   UNL     1       1.266  -5.867  -0.009  0.00  0.00    +0.145 HD
ENDBRANCH  23  26
BRANCH  25  31
ATOM     31  N   UNL     1      -2.487   0.009   0.100  0.00  0.00    +0.058 N 
ATOM     32  O   UNL     1      -3.534  -0.614   0.121  0.00  0.00    -0.126 OA
ATOM     33  O   UNL     1      -2.503   1.227   0.107  0.00  0.00    -0.126 OA
ENDBRANCH  25  31
ENDBRANCH  19  20
ENDBRANCH  18  19
ENDBRANCH   2  18
TORSDOF 8
