REMARK  Name = ZINC08040172
REMARK  7 active torsions:
REMARK  status: ('A' for Active; 'I' for Inactive)
REMARK    1  A    between atoms: C_3  and  C_6
REMARK    2  A    between atoms: C_6  and  C_8
REMARK    3  A    between atoms: C_6  and  N_52
REMARK    4  A    between atoms: C_8  and  N_9
REMARK    5  A    between atoms: C_10  and  C_12
REMARK    6  A    between atoms: C_15  and  N_18
REMARK    7  A    between atoms: C_19  and  C_21
REMARK                            x       y       z     vdW  Elec       q    Type
REMARK                         _______ _______ _______ _____ _____    ______ ____
ROOT
ATOM      1  N   UNL     1      -0.236   1.112  -2.298  0.00  0.00    -0.312 N 
ATOM      2  C   UNL     1      -0.868   1.547  -3.406  0.00  0.00    +0.244 C 
ATOM      3  O   UNL     1      -1.933   2.127  -3.310  0.00  0.00    -0.270 OA
ATOM      4  H   UNL     1       0.614   0.650  -2.374  0.00  0.00    +0.149 HD
ENDROOT
BRANCH   2   5
ATOM      5  C   UNL     1      -0.269   1.320  -4.735  0.00  0.00    +0.037 A 
ATOM      6  C   UNL     1       0.958   0.659  -4.846  0.00  0.00    +0.015 A 
ATOM      7  C   UNL     1       1.512   0.444  -6.088  0.00  0.00    +0.024 A 
ATOM      8  C   UNL     1       0.857   0.894  -7.231  0.00  0.00    +0.034 A 
ATOM      9  C   UNL     1      -0.361   1.557  -7.123  0.00  0.00    +0.024 A 
ATOM     10  C   UNL     1      -0.923   1.771  -5.885  0.00  0.00    +0.015 A 
BRANCH   8  11
ATOM     11  N   UNL     1       1.423   0.679  -8.486  0.00  0.00    -0.281 N 
ATOM     12  C   UNL     1       1.286   1.606  -9.455  0.00  0.00    +0.255 C 
ATOM     13  O   UNL     1       0.597   2.590  -9.262  0.00  0.00    -0.269 OA
ATOM     14  H   UNL     1       1.916  -0.138  -8.662  0.00  0.00    +0.155 HD
BRANCH  12  15
ATOM     15  C   UNL     1       1.965   1.427 -10.741  0.00  0.00    +0.074 A 
ATOM     16  C   UNL     1       1.955   2.251 -11.856  0.00  0.00    +0.021 A 
ATOM     17  C   UNL     1       2.688   1.842 -12.942  0.00  0.00    +0.008 A 
ATOM     18  C   UNL     1       3.375   0.671 -12.876  0.00  0.00    +0.046 A 
ATOM     19  S   UNL     1       3.027   0.098 -11.277  0.00  0.00    -0.092 S 
ENDBRANCH  12  15
ENDBRANCH   8  11
ENDBRANCH   2   5
BRANCH   1  20
ATOM     20  C   UNL     1      -0.831   1.338  -0.979  0.00  0.00    +0.097 C 
BRANCH  20  21
ATOM     21  C   UNL     1       0.082   0.750   0.100  0.00  0.00    +0.016 C 
BRANCH  21  26
ATOM     22  C   UNL     1       1.383   2.800  -0.087  0.00  0.00    -0.078 C 
ATOM     23  C   UNL     1       2.826   3.214   0.296  0.00  0.00    -0.020 C 
ATOM     24  C   UNL     1       3.208   2.174   1.375  0.00  0.00    -0.020 C 
ATOM     25  C   UNL     1       2.270   0.978   1.131  0.00  0.00    -0.078 C 
ATOM     26  N   UNL     1       1.452   1.331  -0.030  0.00  0.00    +0.387 N 
ATOM     27  H   UNL     1       1.891   0.971  -0.886  0.00  0.00    -0.081 HD
ENDBRANCH  21  26
BRANCH  21  30
ATOM     28  C   UNL     1      -1.433   0.968   3.453  0.00  0.00    +0.041 A 
ATOM     29  C   UNL     1      -1.088   0.234   2.294  0.00  0.00    +0.043 A 
ATOM     30  C   UNL     1      -0.467   1.089   1.462  0.00  0.00    +0.093 A 
ATOM     31  O   UNL     1      -0.425   2.297   2.048  0.00  0.00    -0.469 OA
ATOM     32  C   UNL     1      -1.009   2.229   3.255  0.00  0.00    +0.195 A 
ENDBRANCH  21  30
ENDBRANCH  20  21
ENDBRANCH   1  20
TORSDOF 7
