REMARK  Name = ZINC40004106
REMARK  17 active torsions:
REMARK  status: ('A' for Active; 'I' for Inactive)
REMARK    1  A    between atoms: C_1  and  C_2
REMARK    2  A    between atoms: C_2  and  N_3
REMARK    3  A    between atoms: N_3  and  C_4
REMARK    4  A    between atoms: N_3  and  C_6
REMARK    5  A    between atoms: C_4  and  C_5
REMARK    6  A    between atoms: C_6  and  C_7
REMARK    7  A    between atoms: C_7  and  C_8
REMARK    8  A    between atoms: C_8  and  N_9
REMARK    9  A    between atoms: C_10  and  C_30
REMARK   10  A    between atoms: C_12  and  C_17
REMARK   11  A    between atoms: C_17  and  C_19
REMARK   12  A    between atoms: C_20  and  C_29
REMARK   13  A    between atoms: C_27  and  C_28
REMARK   14  A    between atoms: C_33  and  O_39
REMARK   15  A    between atoms: C_34  and  O_36
REMARK   16  A    between atoms: O_36  and  C_37
REMARK   17  A    between atoms: C_37  and  C_38
REMARK                            x       y       z     vdW  Elec       q    Type
REMARK                         _______ _______ _______ _____ _____    ______ ____
ROOT
ATOM      1  N   UNL     1       1.341  -4.311  -3.935  0.00  0.00    -0.284 N 
ATOM      2  C   UNL     1       0.898  -4.851  -5.226  0.00  0.00    +0.145 C 
ATOM      3  C   UNL     1       2.062  -5.646  -5.770  0.00  0.00    +0.078 C 
ATOM      4  C   UNL     1       3.058  -5.552  -4.861  0.00  0.00    +0.249 C 
ATOM      5  C   UNL     1       2.606  -4.719  -3.729  0.00  0.00    +0.288 C 
ATOM      6  O   UNL     1       3.278  -4.445  -2.754  0.00  0.00    -0.266 OA
ATOM      7  O   UNL     1       4.279  -6.128  -4.972  0.00  0.00    -0.282 OA
ENDROOT
BRANCH   2   8
ATOM      8  C   UNL     1       0.550  -3.727  -6.167  0.00  0.00    -0.019 A 
ATOM      9  C   UNL     1       1.415  -2.658  -6.313  0.00  0.00    +0.009 A 
ATOM     10  C   UNL     1       1.101  -1.624  -7.175  0.00  0.00    +0.049 A 
ATOM     11  C   UNL     1      -0.082  -1.657  -7.896  0.00  0.00    +0.158 A 
ATOM     12  C   UNL     1      -0.952  -2.734  -7.749  0.00  0.00    +0.162 A 
ATOM     13  C   UNL     1      -0.629  -3.769  -6.887  0.00  0.00    +0.055 A 
BRANCH  11  14
ATOM     14  O   UNL     1      -0.393  -0.641  -8.744  0.00  0.00    -0.503 OA
ATOM     15  H   UNL     1      -0.070  -0.769  -9.646  0.00  0.00    +0.292 HD
ENDBRANCH  11  14
BRANCH  12  16
ATOM     16  O   UNL     1      -2.114  -2.772  -8.454  0.00  0.00    -0.489 OA
BRANCH  16  17
ATOM     17  C   UNL     1      -3.008  -3.851  -8.175  0.00  0.00    +0.226 C 
ATOM     18  C   UNL     1      -4.195  -3.793  -9.138  0.00  0.00    +0.048 C 
ENDBRANCH  16  17
ENDBRANCH  12  16
ENDBRANCH   2   8
BRANCH   3  19
ATOM     19  C   UNL     1       2.103  -6.380  -7.041  0.00  0.00    +0.213 C 
ATOM     20  O   UNL     1       2.337  -5.786  -8.081  0.00  0.00    -0.285 OA
BRANCH  19  21
ATOM     21  C   UNL     1       1.871  -7.777  -7.060  0.00  0.00    +0.116 A 
ATOM     22  C   UNL     1       1.488  -8.572  -5.987  0.00  0.00    +0.068 A 
ATOM     23  N   UNL     1       1.376  -9.817  -6.416  0.00  0.00    -0.232 NA
ATOM     24  C   UNL     1       1.667  -9.877  -7.716  0.00  0.00    +0.141 A 
ATOM     25  N   UNL     1       1.975  -8.620  -8.152  0.00  0.00    -0.296 N 
ATOM     26  C   UNL     1       2.306  -8.399  -9.452  0.00  0.00    +0.093 A 
ATOM     27  C   UNL     1       2.334  -9.420 -10.340  0.00  0.00    +0.018 A 
ATOM     28  C   UNL     1       2.019 -10.720  -9.925  0.00  0.00    +0.008 A 
ATOM     29  C   UNL     1       1.694 -10.952  -8.621  0.00  0.00    -0.008 A 
ATOM     30  C   UNL     1       1.351 -12.344  -8.158  0.00  0.00    +0.047 C 
ATOM     31  C   UNL     1       1.243  -8.097  -4.579  0.00  0.00    +0.068 C 
ENDBRANCH  19  21
ENDBRANCH   3  19
BRANCH   1  32
ATOM     32  C   UNL     1       0.549  -3.470  -3.034  0.00  0.00    +0.107 C 
BRANCH  32  33
ATOM     33  C   UNL     1       0.763  -1.998  -3.389  0.00  0.00    +0.000 C 
BRANCH  33  34
ATOM     34  C   UNL     1      -0.064  -1.120  -2.448  0.00  0.00    -0.077 C 
BRANCH  34  35
ATOM     35  N   UNL     1       0.238   0.294  -2.706  0.00  0.00    +0.379 N 
ATOM     36  H   UNL     1       1.231   0.449  -2.612  0.00  0.00    -0.082 HD
BRANCH  35  38
ATOM     37  C   UNL     1       0.240   2.081  -4.381  0.00  0.00    -0.017 C 
ATOM     38  C   UNL     1      -0.186   0.645  -4.068  0.00  0.00    -0.082 C 
ENDBRANCH  35  38
BRANCH  35  39
ATOM     39  C   UNL     1      -0.481   1.133  -1.738  0.00  0.00    -0.082 C 
ATOM     40  C   UNL     1       0.051   0.857  -0.330  0.00  0.00    -0.017 C 
ENDBRANCH  35  39
ENDBRANCH  34  35
ENDBRANCH  33  34
ENDBRANCH  32  33
ENDBRANCH   1  32
TORSDOF 12
