REMARK  Name = ZINC45534601
REMARK  8 active torsions:
REMARK  status: ('A' for Active; 'I' for Inactive)
REMARK    1  A    between atoms: C_1  and  C_2
REMARK    2  A    between atoms: C_2  and  C_3
REMARK    3  A    between atoms: C_2  and  C_4
REMARK    4  A    between atoms: C_4  and  C_6
REMARK    5  A    between atoms: C_4  and  N_21
REMARK    6  A    between atoms: C_6  and  N_7
REMARK    7  A    between atoms: N_10  and  N_11
REMARK    8  A    between atoms: C_12  and  C_14
REMARK                            x       y       z     vdW  Elec       q    Type
REMARK                         _______ _______ _______ _____ _____    ______ ____
ROOT
ATOM      1  N   UNL     1      -3.417  -0.677  -1.339  0.00  0.00    -0.300 N 
ATOM      2  C   UNL     1      -4.131  -0.599  -2.480  0.00  0.00    +0.316 C 
ATOM      3  O   UNL     1      -3.629  -0.122  -3.479  0.00  0.00    -0.251 OA
ATOM      4  N   UNL     1      -5.401  -1.050  -2.513  0.00  0.00    -0.218 N 
ATOM      5  H   UNL     1      -3.818  -1.057  -0.542  0.00  0.00    +0.150 HD
ATOM      6  H   UNL     1      -5.914  -0.994  -3.334  0.00  0.00    +0.174 HD
ENDROOT
BRANCH   4   7
ATOM      7  N   UNL     1      -5.979  -1.599  -1.361  0.00  0.00    -0.229 N 
ATOM      8  C   UNL     1      -7.249  -2.049  -1.394  0.00  0.00    +0.260 C 
ATOM      9  O   UNL     1      -7.892  -1.979  -2.423  0.00  0.00    -0.269 OA
ATOM     10  H   UNL     1      -5.466  -1.655  -0.540  0.00  0.00    +0.173 HD
BRANCH   8  11
ATOM     11  C   UNL     1      -7.859  -2.628  -0.179  0.00  0.00    +0.038 A 
ATOM     12  C   UNL     1      -7.124  -2.704   1.006  0.00  0.00    +0.016 A 
ATOM     13  C   UNL     1      -7.698  -3.245   2.136  0.00  0.00    +0.039 A 
ATOM     14  C   UNL     1      -9.003  -3.713   2.098  0.00  0.00    +0.123 A 
ATOM     15  C   UNL     1      -9.737  -3.640   0.924  0.00  0.00    +0.039 A 
ATOM     16  C   UNL     1      -9.174  -3.096  -0.211  0.00  0.00    +0.016 A 
ATOM     17  F   UNL     1      -9.561  -4.243   3.209  0.00  0.00    -0.205 F 
ENDBRANCH   8  11
ENDBRANCH   4   7
BRANCH   1  18
ATOM     18  C   UNL     1      -2.037  -0.187  -1.303  0.00  0.00    +0.091 C 
BRANCH  18  19
ATOM     19  C   UNL     1      -1.406  -0.538   0.045  0.00  0.00    -0.048 C 
BRANCH  19  20
ATOM     20  N   UNL     1      -1.176  -1.987   0.116  0.00  0.00    +0.383 N 
ATOM     21  C   UNL     1      -0.325  -2.387  -1.021  0.00  0.00    -0.078 C 
ATOM     22  C   UNL     1       0.394  -3.660  -0.649  0.00  0.00    -0.019 C 
ATOM     23  C   UNL     1      -0.347  -4.901  -1.181  0.00  0.00    -0.002 C 
ATOM     24  C   UNL     1      -1.874  -4.769  -1.018  0.00  0.00    -0.002 C 
ATOM     25  C   UNL     1      -2.261  -4.162   0.307  0.00  0.00    -0.019 C 
ATOM     26  C   UNL     1      -2.412  -2.636   0.137  0.00  0.00    -0.078 C 
ATOM     27  H   UNL     1      -0.687  -2.195   0.974  0.00  0.00    -0.081 HD
ENDBRANCH  19  20
BRANCH  19  29
ATOM     28  C   UNL     1      -0.326   1.705   0.252  0.00  0.00    +0.005 C 
ATOM     29  C   UNL     1      -0.073   0.198   0.192  0.00  0.00    -0.029 C 
ATOM     30  C   UNL     1       0.621  -0.254   1.478  0.00  0.00    +0.005 C 
ENDBRANCH  19  29
ENDBRANCH  18  19
ENDBRANCH   1  18
TORSDOF 6
