REMARK  Name = ZINC67646242
REMARK  5 active torsions:
REMARK  status: ('A' for Active; 'I' for Inactive)
REMARK    1  A    between atoms: C_1  and  C_2
REMARK    2  A    between atoms: N_6  and  C_7
REMARK    3  A    between atoms: C_10  and  C_14
REMARK    4  A    between atoms: C_14  and  N_15
REMARK    5  A    between atoms: N_18  and  C_19
REMARK                            x       y       z     vdW  Elec       q    Type
REMARK                         _______ _______ _______ _____ _____    ______ ____
ROOT
ATOM      1  N   UNL     1       0.617   2.254   6.599  0.00  0.00    -0.295 N 
ATOM      2  C   UNL     1       0.725   2.866   7.795  0.00  0.00    +0.300 C 
ATOM      3  O   UNL     1       0.357   2.298   8.805  0.00  0.00    -0.253 OA
ATOM      4  N   UNL     1       1.241   4.109   7.872  0.00  0.00    -0.293 N 
ATOM      5  H   UNL     1       0.911   2.708   5.794  0.00  0.00    +0.151 HD
ATOM      6  H   UNL     1       1.535   4.563   7.066  0.00  0.00    +0.151 HD
ENDROOT
BRANCH   4   7
ATOM      7  C   UNL     1       1.359   4.775   9.172  0.00  0.00    +0.106 C 
ATOM      8  C   UNL     1       2.484   5.805   9.109  0.00  0.00    +0.027 C 
ATOM      9  C   UNL     1       2.440   6.642  10.394  0.00  0.00    +0.008 C 
ATOM     10  C   UNL     1       1.181   7.506  10.358  0.00  0.00    +0.054 C 
ATOM     11  C   UNL     1      -0.033   6.668  10.052  0.00  0.00    +0.024 A 
ATOM     12  C   UNL     1       0.049   5.437   9.510  0.00  0.00    -0.008 A 
ATOM     13  C   UNL     1      -1.131   4.715   9.239  0.00  0.00    +0.012 A 
ATOM     14  C   UNL     1      -2.343   5.261   9.529  0.00  0.00    +0.070 A 
ATOM     15  C   UNL     1      -2.393   6.544  10.100  0.00  0.00    +0.249 A 
ATOM     16  O   UNL     1      -3.469   7.053  10.371  0.00  0.00    -0.268 OA
ATOM     17  N   UNL     1      -1.253   7.207  10.347  0.00  0.00    -0.326 N 
ATOM     18  H   UNL     1      -1.297   8.092  10.742  0.00  0.00    +0.169 HD
ENDBRANCH   4   7
BRANCH   1  19
ATOM     19  C   UNL     1       0.056   0.903   6.516  0.00  0.00    +0.141 C 
BRANCH  19  23
ATOM     20  C   UNL     1       0.031  -0.381   2.438  0.00  0.00    +0.083 A 
ATOM     21  C   UNL     1       1.133  -0.636   3.242  0.00  0.00    +0.029 A 
ATOM     22  C   UNL     1       1.138  -0.220   4.559  0.00  0.00    +0.007 A 
ATOM     23  C   UNL     1       0.046   0.451   5.079  0.00  0.00    -0.027 A 
ATOM     24  C   UNL     1      -1.054   0.708   4.282  0.00  0.00    +0.045 A 
ATOM     25  C   UNL     1      -1.063   0.299   2.961  0.00  0.00    +0.147 A 
ATOM     26  F   UNL     1      -2.136   0.556   2.180  0.00  0.00    -0.203 F 
BRANCH  20  32
ATOM     27  C   UNL     1      -0.018   1.503   0.010  0.00  0.00    +0.086 C 
ATOM     28  C   UNL     1       0.002  -0.004   0.002  0.00  0.00    +0.111 A 
ATOM     29  N   UNL     1       0.008  -0.760  -1.062  0.00  0.00    -0.241 NA
ATOM     30  C   UNL     1       0.027  -2.049  -0.691  0.00  0.00    +0.131 A 
ATOM     31  C   UNL     1       0.033  -2.099   0.655  0.00  0.00    +0.112 A 
ATOM     32  N   UNL     1       0.023  -0.803   1.100  0.00  0.00    -0.301 N 
ENDBRANCH  20  32
ENDBRANCH  19  23
ENDBRANCH   1  19
TORSDOF 4
