REMARK  Name = ZINC16363476
REMARK  2 active torsions:
REMARK  status: ('A' for Active; 'I' for Inactive)
REMARK    1  A    between atoms: C_1  and  C_2
REMARK    2  A    between atoms: N_15  and  C_16
REMARK                            x       y       z     vdW  Elec       q    Type
REMARK                         _______ _______ _______ _____ _____    ______ ____
ROOT
ATOM      1  C   UNL     1       3.933   7.123   0.866  0.00  0.00    +0.088 C 
ATOM      2  C   UNL     1       3.780   5.907  -0.010  0.00  0.00    +0.137 A 
ATOM      3  N   UNL     1       4.749   5.198  -0.526  0.00  0.00    -0.134 NA
ATOM      4  N   UNL     1       4.269   4.228  -1.224  0.00  0.00    -0.129 NA
ATOM      5  C   UNL     1       2.959   4.267  -1.190  0.00  0.00    +0.173 A 
ATOM      6  N   UNL     1       2.605   5.345  -0.410  0.00  0.00    -0.250 N 
ATOM      7  C   UNL     1       1.284   5.634  -0.195  0.00  0.00    +0.208 A 
ATOM      8  N   UNL     1       0.313   4.922  -0.704  0.00  0.00    -0.215 NA
ATOM      9  C   UNL     1       0.546   3.839  -1.487  0.00  0.00    +0.078 A 
ATOM     10  C   UNL     1       1.879   3.459  -1.768  0.00  0.00    +0.045 A 
ATOM     11  C   UNL     1       2.132   2.350  -2.570  0.00  0.00    +0.014 A 
ATOM     12  C   UNL     1       1.078   1.627  -3.087  0.00  0.00    +0.001 A 
ATOM     13  C   UNL     1      -0.231   2.000  -2.818  0.00  0.00    +0.002 A 
ATOM     14  C   UNL     1      -0.504   3.090  -2.022  0.00  0.00    +0.028 A 
ATOM     15  N   UNL     1       0.965   6.717   0.589  0.00  0.00    -0.282 N 
ATOM     16  H   UNL     1       1.668   7.223   1.026  0.00  0.00    +0.155 HD
ENDROOT
BRANCH  15  17
ATOM     17  C   UNL     1      -0.374   7.090   0.757  0.00  0.00    +0.069 A 
ATOM     18  C   UNL     1      -1.350   6.119   0.933  0.00  0.00    +0.029 A 
ATOM     19  C   UNL     1      -2.671   6.489   1.099  0.00  0.00    +0.040 A 
ATOM     20  C   UNL     1      -3.023   7.828   1.091  0.00  0.00    +0.126 A 
ATOM     21  C   UNL     1      -2.053   8.800   0.915  0.00  0.00    +0.078 A 
ATOM     22  C   UNL     1      -0.728   8.435   0.754  0.00  0.00    +0.147 A 
ATOM     23  F   UNL     1       0.219   9.384   0.589  0.00  0.00    -0.203 F 
ATOM     24  F   UNL     1      -4.315   8.186   1.253  0.00  0.00    -0.205 F 
ENDBRANCH  15  17
TORSDOF 1
