REMARK  Name = ZINC37069430
REMARK  7 active torsions:
REMARK  status: ('A' for Active; 'I' for Inactive)
REMARK    1  A    between atoms: C_4  and  N_19
REMARK    2  A    between atoms: C_5  and  C_7
REMARK    3  A    between atoms: C_7  and  N_8
REMARK    4  A    between atoms: N_8  and  C_9
REMARK    5  A    between atoms: C_13  and  O_15
REMARK    6  A    between atoms: O_15  and  C_16
REMARK    7  A    between atoms: C_16  and  C_17
REMARK                            x       y       z     vdW  Elec       q    Type
REMARK                         _______ _______ _______ _____ _____    ______ ____
ROOT
ATOM      1  N   UNL     1       1.490  -2.679   1.334  0.00  0.00    -0.340 N 
ATOM      2  H   UNL     1       1.617  -2.051   2.063  0.00  0.00    +0.146 HD
ENDROOT
BRANCH   1   3
ATOM      3  C   UNL     1       1.555  -4.052   1.577  0.00  0.00    +0.031 A 
ATOM      4  C   UNL     1       1.379  -4.953   0.533  0.00  0.00    +0.023 A 
ATOM      5  C   UNL     1       1.444  -6.311   0.774  0.00  0.00    +0.005 A 
ATOM      6  C   UNL     1       1.685  -6.779   2.052  0.00  0.00    +0.046 A 
ATOM      7  C   UNL     1       1.862  -5.885   3.098  0.00  0.00    +0.124 A 
ATOM      8  C   UNL     1       1.802  -4.520   2.861  0.00  0.00    +0.068 A 
BRANCH   7   9
ATOM      9  O   UNL     1       2.098  -6.346   4.354  0.00  0.00    -0.477 OA
BRANCH   9  10
ATOM     10  C   UNL     1       2.152  -7.764   4.526  0.00  0.00    +0.346 C 
BRANCH  10  11
ATOM     11  C   UNL     1       2.415  -8.078   5.939  0.00  0.00    +0.104 C 
ATOM     12  N   UNL     1       2.618  -8.320   7.030  0.00  0.00    -0.193 NA
ENDBRANCH  10  11
ENDBRANCH   9  10
ENDBRANCH   7   9
ENDBRANCH   1   3
BRANCH   1  13
ATOM     13  C   UNL     1       1.229  -2.186  -0.020  0.00  0.00    +0.139 C 
BRANCH  13  18
ATOM     14  C   UNL     1      -0.017   1.378   0.010  0.00  0.00    +0.000 A 
ATOM     15  C   UNL     1       1.171   2.085   0.002  0.00  0.00    +0.002 A 
ATOM     16  C   UNL     1       2.377   1.411  -0.013  0.00  0.00    +0.033 A 
ATOM     17  C   UNL     1       2.396   0.028  -0.020  0.00  0.00    +0.131 A 
ATOM     18  C   UNL     1       1.209  -0.679  -0.012  0.00  0.00    -0.000 A 
ATOM     19  C   UNL     1       0.002  -0.004   0.002  0.00  0.00    +0.007 A 
BRANCH  17  20
ATOM     20  N   UNL     1       3.688  -0.694  -0.037  0.00  0.00    +0.057 N 
ATOM     21  O   UNL     1       4.726  -0.076  -0.045  0.00  0.00    -0.126 OA
ATOM     22  O   UNL     1       3.704  -1.903  -0.043  0.00  0.00    -0.126 OA
ENDBRANCH  17  20
ENDBRANCH  13  18
ENDBRANCH   1  13
TORSDOF 7
