REMARK  Name = ZINC63686263
REMARK  9 active torsions:
REMARK  status: ('A' for Active; 'I' for Inactive)
REMARK    1  A    between atoms: C_1  and  C_2
REMARK    2  A    between atoms: C_8  and  C_11
REMARK    3  A    between atoms: C_11  and  C_12
REMARK    4  A    between atoms: C_12  and  N_13
REMARK    5  A    between atoms: C_14  and  C_16
REMARK    6  A    between atoms: C_16  and  C_17
REMARK    7  A    between atoms: C_17  and  C_18
REMARK    8  A    between atoms: C_22  and  C_25
REMARK    9  A    between atoms: N_27  and  C_28
REMARK                            x       y       z     vdW  Elec       q    Type
REMARK                         _______ _______ _______ _____ _____    ______ ____
ROOT
ATOM      1  C   UNL     1      -2.503  -2.368   7.784  0.00  0.00    +0.098 C 
ENDROOT
BRANCH   1   3
ATOM      2  N   UNL     1      -1.335  -2.644   5.622  0.00  0.00    -0.315 N 
ATOM      3  C   UNL     1      -2.499  -2.637   6.301  0.00  0.00    +0.213 C 
ATOM      4  O   UNL     1      -3.542  -2.847   5.720  0.00  0.00    -0.276 OA
ATOM      5  H   UNL     1      -0.500  -2.476   6.087  0.00  0.00    +0.149 HD
BRANCH   2   6
ATOM      6  C   UNL     1      -1.330  -2.905   4.180  0.00  0.00    +0.108 C 
BRANCH   6   7
ATOM      7  C   UNL     1       0.107  -2.856   3.658  0.00  0.00    +0.052 C 
BRANCH   7  15
ATOM      8  C   UNL     1       0.062   1.428   0.005  0.00  0.00    +0.044 C 
ATOM      9  C   UNL     1       0.079  -0.079   0.005  0.00  0.00    -0.050 A 
ATOM     10  C   UNL     1       0.088  -0.761  -1.220  0.00  0.00    +0.005 A 
ATOM     11  C   UNL     1       0.103  -2.108  -1.304  0.00  0.00    +0.026 A 
ATOM     12  C   UNL     1       0.112  -2.902  -0.124  0.00  0.00    +0.043 A 
ATOM     13  N   UNL     1       0.126  -4.201   0.054  0.00  0.00    -0.380 N 
ATOM     14  C   UNL     1       0.128  -4.476   1.495  0.00  0.00    +0.144 C 
ATOM     15  C   UNL     1       0.112  -3.124   2.175  0.00  0.00    -0.040 C 
ATOM     16  C   UNL     1       0.103  -2.206   1.182  0.00  0.00    -0.001 A 
ATOM     17  C   UNL     1       0.092  -0.738   1.186  0.00  0.00    +0.013 A 
ATOM     18  H   UNL     1       0.133  -4.869  -0.649  0.00  0.00    +0.160 HD
ENDBRANCH   7  15
ENDBRANCH   6   7
ENDBRANCH   2   6
ENDBRANCH   1   3
BRANCH   1  19
ATOM     19  C   UNL     1      -3.941  -2.417   8.307  0.00  0.00    +0.040 C 
BRANCH  19  20
ATOM     20  C   UNL     1      -3.946  -2.145   9.812  0.00  0.00    +0.129 C 
ATOM     21  N   UNL     1      -5.320  -2.283  10.388  0.00  0.00    -0.242 NA
ATOM     22  N   UNL     1      -5.237  -2.527  11.823  0.00  0.00    -0.234 NA
ATOM     23  C   UNL     1      -4.282  -3.625  12.143  0.00  0.00    +0.214 C 
ATOM     24  S   UNL     1      -3.090  -3.489  10.743  0.00  0.00    -0.112 S 
ATOM     25  H   UNL     1      -5.879  -1.466  10.192  0.00  0.00    +0.142 HD
ATOM     26  H   UNL     1      -4.997  -1.683  12.320  0.00  0.00    +0.142 HD
BRANCH  23  27
ATOM     27  C   UNL     1      -3.597  -3.378  13.463  0.00  0.00    +0.246 C 
ATOM     28  O   UNL     1      -3.856  -4.075  14.421  0.00  0.00    -0.273 OA
ATOM     29  N   UNL     1      -2.696  -2.382  13.578  0.00  0.00    -0.283 N 
ATOM     30  H   UNL     1      -2.438  -1.868  12.797  0.00  0.00    +0.155 HD
BRANCH  29  31
ATOM     31  C   UNL     1      -2.131  -2.090  14.825  0.00  0.00    +0.033 A 
ATOM     32  C   UNL     1      -1.836  -0.777  15.165  0.00  0.00    +0.023 A 
ATOM     33  C   UNL     1      -1.279  -0.492  16.396  0.00  0.00    +0.002 A 
ATOM     34  C   UNL     1      -1.015  -1.514  17.290  0.00  0.00    +0.000 A 
ATOM     35  C   UNL     1      -1.307  -2.823  16.954  0.00  0.00    +0.002 A 
ATOM     36  C   UNL     1      -1.870  -3.113  15.727  0.00  0.00    +0.023 A 
ENDBRANCH  29  31
ENDBRANCH  23  27
ENDBRANCH  19  20
ENDBRANCH   1  19
TORSDOF 8
