REMARK  Name = ZINC58000589
REMARK  4 active torsions:
REMARK  status: ('A' for Active; 'I' for Inactive)
REMARK    1  A    between atoms: C_5  and  C_6
REMARK    2  A    between atoms: C_6  and  N_7
REMARK    3  A    between atoms: N_7  and  C_8
REMARK    4  A    between atoms: C_13  and  N_14
REMARK                            x       y       z     vdW  Elec       q    Type
REMARK                         _______ _______ _______ _____ _____    ______ ____
ROOT
ATOM      1  C   UNL     1      -2.768  -1.974  -1.658  0.00  0.00    +0.060 A 
ATOM      2  C   UNL     1      -3.467  -2.533  -0.600  0.00  0.00    +0.053 A 
ATOM      3  C   UNL     1      -4.759  -3.011  -0.807  0.00  0.00    +0.080 A 
ATOM      4  C   UNL     1      -5.334  -2.918  -2.096  0.00  0.00    +0.067 A 
ATOM      5  C   UNL     1      -4.612  -2.352  -3.147  0.00  0.00    +0.050 A 
ATOM      6  C   UNL     1      -3.349  -1.882  -2.925  0.00  0.00    +0.148 A 
ATOM      7  C   UNL     1      -6.697  -3.432  -2.281  0.00  0.00    +0.259 A 
ATOM      8  O   UNL     1      -7.250  -3.383  -3.365  0.00  0.00    -0.267 OA
ATOM      9  N   UNL     1      -7.315  -3.964  -1.201  0.00  0.00    -0.313 N 
ATOM     10  H   UNL     1      -8.215  -4.313  -1.287  0.00  0.00    +0.170 HD
ATOM     11  C   UNL     1      -6.686  -4.013   0.003  0.00  0.00    +0.199 A 
ATOM     12  N   UNL     1      -5.482  -3.567   0.198  0.00  0.00    -0.237 NA
ENDROOT
BRANCH   6  13
ATOM     13  N   UNL     1      -2.586  -1.276  -4.039  0.00  0.00    +0.058 N 
ATOM     14  O   UNL     1      -1.874  -0.321  -3.834  0.00  0.00    -0.126 OA
ATOM     15  O   UNL     1      -2.675  -1.736  -5.153  0.00  0.00    -0.126 OA
ENDBRANCH   6  13
BRANCH   1  16
ATOM     16  N   UNL     1      -1.478  -1.495  -1.456  0.00  0.00    -0.338 N 
ATOM     17  H   UNL     1      -0.953  -1.182  -2.209  0.00  0.00    +0.146 HD
BRANCH  16  18
ATOM     18  C   UNL     1      -0.912  -1.463  -0.105  0.00  0.00    +0.137 C 
BRANCH  18  23
ATOM     19  C   UNL     1       0.705   0.454  -0.029  0.00  0.00    +0.013 A 
ATOM     20  C   UNL     1       1.976   0.924  -0.082  0.00  0.00    +0.045 A 
ATOM     21  S   UNL     1       2.914  -0.576  -0.321  0.00  0.00    -0.105 S 
ATOM     22  C   UNL     1       1.549  -1.727  -0.335  0.00  0.00    +0.050 A 
ATOM     23  C   UNL     1       0.486  -0.904  -0.159  0.00  0.00    -0.023 A 
ENDBRANCH  18  23
ENDBRANCH  16  18
ENDBRANCH   1  16
TORSDOF 4
