REMARK  Name = ZINC05509942
REMARK  5 active torsions:
REMARK  status: ('A' for Active; 'I' for Inactive)
REMARK    1  A    between atoms: C_1  and  N_2
REMARK    2  A    between atoms: N_2  and  C_3
REMARK    3  A    between atoms: C_6  and  O_9
REMARK    4  A    between atoms: C_10  and  C_12
REMARK    5  A    between atoms: C_17  and  O_18
REMARK                            x       y       z     vdW  Elec       q    Type
REMARK                         _______ _______ _______ _____ _____    ______ ____
ROOT
ATOM      1  C   UNL     1      -0.989   3.054   1.313  0.00  0.00    +0.138 C 
ATOM      2  N   UNL     1      -1.083   1.736   0.679  0.00  0.00    -0.270 N 
ATOM      3  C   UNL     1       0.019   1.154   0.168  0.00  0.00    +0.254 C 
ATOM      4  O   UNL     1      -0.077   0.120  -0.465  0.00  0.00    -0.270 OA
ENDROOT
BRANCH   2   5
ATOM      5  C   UNL     1      -2.319   1.082   0.605  0.00  0.00    +0.036 A 
ATOM      6  C   UNL     1      -2.385  -0.229   0.150  0.00  0.00    +0.027 A 
ATOM      7  C   UNL     1      -3.603  -0.875   0.081  0.00  0.00    +0.047 A 
ATOM      8  C   UNL     1      -4.763  -0.212   0.457  0.00  0.00    +0.117 A 
ATOM      9  C   UNL     1      -4.698   1.099   0.906  0.00  0.00    +0.047 A 
ATOM     10  C   UNL     1      -3.480   1.745   0.980  0.00  0.00    +0.027 A 
BRANCH   8  11
ATOM     11  O   UNL     1      -5.963  -0.847   0.384  0.00  0.00    -0.507 OA
ATOM     12  H   UNL     1      -6.413  -0.742  -0.466  0.00  0.00    +0.292 HD
ENDBRANCH   8  11
ENDBRANCH   2   5
BRANCH   3  13
ATOM     13  C   UNL     1       1.342   1.775   0.369  0.00  0.00    +0.079 A 
ATOM     14  C   UNL     1       1.464   3.166   0.427  0.00  0.00    +0.017 A 
ATOM     15  C   UNL     1       2.702   3.739   0.621  0.00  0.00    +0.001 A 
ATOM     16  C   UNL     1       3.829   2.944   0.748  0.00  0.00    +0.004 A 
ATOM     17  C   UNL     1       3.723   1.568   0.687  0.00  0.00    +0.046 A 
ATOM     18  C   UNL     1       2.485   0.974   0.498  0.00  0.00    +0.129 A 
BRANCH  18  19
ATOM     19  O   UNL     1       2.380  -0.377   0.437  0.00  0.00    -0.506 OA
ATOM     20  H   UNL     1       2.469  -0.739  -0.456  0.00  0.00    +0.292 HD
ENDBRANCH  18  19
ENDBRANCH   3  13
TORSDOF 4
