REMARK  Name = ZINC20804160
REMARK  7 active torsions:
REMARK  status: ('A' for Active; 'I' for Inactive)
REMARK    1  A    between atoms: C_1  and  C_2
REMARK    2  A    between atoms: C_4  and  C_21
REMARK    3  A    between atoms: C_6  and  C_14
REMARK    4  A    between atoms: C_17  and  O_20
REMARK    5  A    between atoms: N_23  and  C_24
REMARK    6  A    between atoms: C_29  and  O_30
REMARK    7  A    between atoms: O_30  and  C_31
REMARK                            x       y       z     vdW  Elec       q    Type
REMARK                         _______ _______ _______ _____ _____    ______ ____
ROOT
ATOM      1  C   UNL     1       2.699   6.169  -2.415  0.00  0.00    +0.028 C 
ATOM      2  C   UNL     1       2.041   5.637  -1.140  0.00  0.00    +0.084 C 
ATOM      3  C   UNL     1       1.827   4.124  -1.265  0.00  0.00    +0.124 C 
ATOM      4  C   UNL     1       1.118   3.596  -0.012  0.00  0.00    +0.154 C 
ATOM      5  N   UNL     1       1.812   4.102   1.172  0.00  0.00    -0.225 N 
ATOM      6  C   UNL     1       2.648   5.169   1.169  0.00  0.00    +0.214 A 
ATOM      7  N   UNL     1       3.091   5.339   2.385  0.00  0.00    -0.202 NA
ATOM      8  C   UNL     1       2.564   4.407   3.187  0.00  0.00    +0.247 A 
ATOM      9  N   UNL     1       1.776   3.632   2.485  0.00  0.00    -0.156 NA
ATOM     10  N   UNL     1       2.921   5.894   0.017  0.00  0.00    -0.310 N 
ATOM     11  H   UNL     1       3.737   6.627  -0.066  0.00  0.00    +0.149 HD
ENDROOT
BRANCH   4  12
ATOM     12  C   UNL     1       1.150   2.089  -0.010  0.00  0.00    -0.022 A 
ATOM     13  C   UNL     1      -0.033   1.374  -0.007  0.00  0.00    +0.009 A 
ATOM     14  C   UNL     1      -0.006  -0.007  -0.006  0.00  0.00    +0.046 A 
ATOM     15  C   UNL     1       1.209  -0.676  -0.009  0.00  0.00    +0.117 A 
ATOM     16  C   UNL     1       2.395   0.044  -0.011  0.00  0.00    +0.046 A 
ATOM     17  C   UNL     1       2.363   1.425  -0.012  0.00  0.00    +0.009 A 
BRANCH  15  18
ATOM     18  O   UNL     1       1.238  -2.035  -0.008  0.00  0.00    -0.507 OA
ATOM     19  H   UNL     1       2.202  -2.565  -0.010  0.00  0.00    +0.292 HD
ENDBRANCH  15  18
ENDBRANCH   4  12
BRANCH   3  20
ATOM     20  C   UNL     1       0.981   3.836  -2.478  0.00  0.00    +0.225 C 
ATOM     21  O   UNL     1      -0.219   3.703  -2.363  0.00  0.00    -0.275 OA
ATOM     22  N   UNL     1       1.558   3.726  -3.691  0.00  0.00    -0.282 N 
ATOM     23  H   UNL     1       2.654   3.755  -3.784  0.00  0.00    +0.155 HD
BRANCH  22  24
ATOM     24  C   UNL     1       0.762   3.574  -4.835  0.00  0.00    +0.076 A 
ATOM     25  C   UNL     1      -0.546   4.034  -4.837  0.00  0.00    +0.027 A 
ATOM     26  C   UNL     1      -1.328   3.889  -5.968  0.00  0.00    +0.002 A 
ATOM     27  C   UNL     1      -0.812   3.276  -7.095  0.00  0.00    +0.004 A 
ATOM     28  C   UNL     1       0.490   2.810  -7.098  0.00  0.00    +0.047 A 
ATOM     29  C   UNL     1       1.282   2.957  -5.970  0.00  0.00    +0.141 A 
BRANCH  29  30
ATOM     30  O   UNL     1       2.562   2.499  -5.972  0.00  0.00    -0.493 OA
ATOM     31  C   UNL     1       3.026   1.876  -7.171  0.00  0.00    +0.277 C 
ENDBRANCH  29  30
ENDBRANCH  22  24
ENDBRANCH   3  20
TORSDOF 5
