REMARK  Name = ZINC67511094
REMARK  12 active torsions:
REMARK  status: ('A' for Active; 'I' for Inactive)
REMARK    1  A    between atoms: C_1  and  C_2
REMARK    2  A    between atoms: N_4  and  C_5
REMARK    3  A    between atoms: C_5  and  C_6
REMARK    4  A    between atoms: C_6  and  C_7
REMARK    5  A    between atoms: C_7  and  C_8
REMARK    6  A    between atoms: C_8  and  C_9
REMARK    7  A    between atoms: C_9  and  C_10
REMARK    8  A    between atoms: C_16  and  C_19
REMARK    9  A    between atoms: C_22  and  C_25
REMARK   10  A    between atoms: C_25  and  C_26
REMARK   11  A    between atoms: C_25  and  C_27
REMARK   12  A    between atoms: C_25  and  C_28
REMARK                            x       y       z     vdW  Elec       q    Type
REMARK                         _______ _______ _______ _____ _____    ______ ____
ROOT
ATOM      1  C   UNL     1       0.041  -6.695  -5.508  0.00  0.00    +0.219 C 
ATOM      2  O   UNL     1       0.021  -5.902  -6.425  0.00  0.00    -0.275 OA
ATOM      3  N   UNL     1       0.057  -8.019  -5.761  0.00  0.00    -0.253 N 
ATOM      4  C   UNL     1       0.050  -8.478  -7.082  0.00  0.00    +0.241 A 
ATOM      5  N   UNL     1       0.064  -9.758  -7.457  0.00  0.00    -0.194 NA
ATOM      6  H   UNL     1       0.017  -8.318 -10.198  0.00  0.00    +0.191 HD
ATOM      7  C   UNL     1       0.052  -9.836  -8.772  0.00  0.00    +0.158 A 
ATOM      8  N   UNL     1       0.030  -8.577  -9.264  0.00  0.00    -0.257 N 
ATOM      9  N   UNL     1       0.024  -7.718  -8.152  0.00  0.00    -0.136 NA
ATOM     10  H   UNL     1       0.072  -8.653  -5.027  0.00  0.00    +0.158 HD
ENDROOT
BRANCH   7  11
ATOM     11  C   UNL     1       0.062 -11.082  -9.571  0.00  0.00    +0.019 A 
ATOM     12  C   UNL     1       0.053 -11.021 -10.964  0.00  0.00    +0.012 A 
ATOM     13  C   UNL     1       0.062 -12.186 -11.703  0.00  0.00    +0.005 A 
ATOM     14  C   UNL     1       0.079 -13.413 -11.064  0.00  0.00    -0.042 A 
ATOM     15  C   UNL     1       0.088 -13.480  -9.682  0.00  0.00    +0.005 A 
ATOM     16  C   UNL     1       0.085 -12.322  -8.933  0.00  0.00    +0.012 A 
BRANCH  14  17
ATOM     17  C   UNL     1       0.089 -14.682 -11.877  0.00  0.00    -0.013 C 
ATOM     18  C   UNL     1       1.334 -14.709 -12.767  0.00  0.00    +0.015 C 
ATOM     19  C   UNL     1       0.108 -15.890 -10.938  0.00  0.00    +0.015 C 
ATOM     20  C   UNL     1      -1.165 -14.737 -12.752  0.00  0.00    +0.015 C 
ENDBRANCH  14  17
ENDBRANCH   7  11
BRANCH   1  21
ATOM     21  C   UNL     1       0.048  -6.200  -4.084  0.00  0.00    +0.096 C 
BRANCH  21  22
ATOM     22  C   UNL     1       0.027  -4.671  -4.076  0.00  0.00    +0.009 C 
BRANCH  22  23
ATOM     23  C   UNL     1       0.034  -4.168  -2.631  0.00  0.00    +0.002 C 
BRANCH  23  24
ATOM     24  C   UNL     1       0.013  -2.639  -2.622  0.00  0.00    +0.019 C 
BRANCH  24  25
ATOM     25  C   UNL     1       0.020  -2.136  -1.177  0.00  0.00    +0.104 C 
BRANCH  25  29
ATOM     26  C   UNL     1      -0.018   1.503   0.010  0.00  0.00    +0.109 C 
ATOM     27  C   UNL     1       0.002  -0.004   0.002  0.00  0.00    +0.210 C 
ATOM     28  O   UNL     1       0.020  -0.616   1.049  0.00  0.00    -0.276 OA
ATOM     29  N   UNL     1       0.000  -0.672  -1.169  0.00  0.00    -0.316 N 
ATOM     30  H   UNL     1      -0.015  -0.182  -2.006  0.00  0.00    +0.149 HD
ENDBRANCH  25  29
ENDBRANCH  24  25
ENDBRANCH  23  24
ENDBRANCH  22  23
ENDBRANCH  21  22
ENDBRANCH   1  21
TORSDOF 8
