REMARK  Name = ZINC00421477
REMARK  6 active torsions:
REMARK  status: ('A' for Active; 'I' for Inactive)
REMARK    1  A    between atoms: C_1  and  C_2
REMARK    2  A    between atoms: C_4  and  C_29
REMARK    3  A    between atoms: C_7  and  C_14
REMARK    4  A    between atoms: C_17  and  C_28
REMARK    5  A    between atoms: C_23  and  N_27
REMARK    6  A    between atoms: C_24  and  C_25
REMARK                            x       y       z     vdW  Elec       q    Type
REMARK                         _______ _______ _______ _____ _____    ______ ____
ROOT
ATOM      1  C   UNL     1       1.108   3.603   0.011  0.00  0.00    +0.107 C 
ATOM      2  C   UNL     1       0.361   4.071   1.233  0.00  0.00    +0.049 A 
ATOM      3  C   UNL     1       0.763   4.072   2.562  0.00  0.00    +0.068 A 
ATOM      4  N   UNL     1      -0.214   4.571   3.283  0.00  0.00    -0.176 NA
ATOM      5  N   UNL     1      -1.272   4.905   2.424  0.00  0.00    -0.246 N 
ATOM      6  H   UNL     1      -2.148   5.305   2.696  0.00  0.00    +0.192 HD
ATOM      7  C   UNL     1      -0.901   4.593   1.172  0.00  0.00    +0.222 A 
ATOM      8  O   UNL     1      -1.580   4.731   0.006  0.00  0.00    -0.423 OA
ATOM      9  C   UNL     1      -0.884   4.598  -1.141  0.00  0.00    +0.200 C 
ATOM     10  C   UNL     1       0.364   4.086  -1.209  0.00  0.00    +0.098 C 
ATOM     11  C   UNL     1       2.088   3.583   3.086  0.00  0.00    +0.068 C 
ENDROOT
BRANCH   1  18
ATOM     12  C   UNL     1       2.438  -4.262  -0.046  0.00  0.00    +0.044 C 
ATOM     13  C   UNL     1       2.419  -2.755  -0.037  0.00  0.00    -0.048 A 
ATOM     14  C   UNL     1       3.617  -2.053  -0.045  0.00  0.00    +0.007 A 
ATOM     15  C   UNL     1       3.622  -0.687  -0.037  0.00  0.00    -0.041 A 
ATOM     16  C   UNL     1       2.410   0.011  -0.021  0.00  0.00    +0.002 A 
ATOM     17  C   UNL     1       2.380   1.475  -0.012  0.00  0.00    +0.020 A 
ATOM     18  C   UNL     1       1.175   2.097   0.002  0.00  0.00    +0.030 A 
ATOM     19  C   UNL     1      -0.016   1.340   0.009  0.00  0.00    +0.253 A 
ATOM     20  O   UNL     1      -1.088   1.920   0.018  0.00  0.00    -0.268 OA
ATOM     21  N   UNL     1       0.002  -0.004   0.002  0.00  0.00    -0.322 N 
ATOM     22  H   UNL     1      -0.861  -0.509   0.007  0.00  0.00    +0.169 HD
ATOM     23  C   UNL     1       1.194  -0.697  -0.013  0.00  0.00    +0.050 A 
ATOM     24  C   UNL     1       1.213  -2.088  -0.021  0.00  0.00    +0.029 A 
ATOM     25  C   UNL     1       4.928   0.065  -0.045  0.00  0.00    +0.044 C 
ENDBRANCH   1  18
BRANCH   9  26
ATOM     26  N   UNL     1      -1.480   5.006  -2.309  0.00  0.00    -0.328 N 
ATOM     27  H   UNL     1      -1.005   4.923  -3.151  0.00  0.00    +0.145 HD
ATOM     28  H   UNL     1      -2.376   5.378  -2.293  0.00  0.00    +0.145 HD
ENDBRANCH   9  26
BRANCH  10  29
ATOM     29  C   UNL     1       1.005   3.999  -2.487  0.00  0.00    +0.101 C 
ATOM     30  N   UNL     1       1.514   3.929  -3.500  0.00  0.00    -0.191 NA
ENDBRANCH  10  29
TORSDOF 3
