REMARK  Name = ZINC59942018
REMARK  8 active torsions:
REMARK  status: ('A' for Active; 'I' for Inactive)
REMARK    1  A    between atoms: C_2  and  C_3
REMARK    2  A    between atoms: C_3  and  N_4
REMARK    3  A    between atoms: C_5  and  N_29
REMARK    4  A    between atoms: C_10  and  S_11
REMARK    5  A    between atoms: S_11  and  C_12
REMARK    6  A    between atoms: C_12  and  C_13
REMARK    7  A    between atoms: N_15  and  C_16
REMARK    8  A    between atoms: C_17  and  C_27
REMARK                            x       y       z     vdW  Elec       q    Type
REMARK                         _______ _______ _______ _____ _____    ______ ____
ROOT
ATOM      1  C   UNL     1      -0.780  -5.747  -1.621  0.00  0.00    +0.228 C 
ATOM      2  O   UNL     1      -0.862  -5.046  -2.608  0.00  0.00    -0.275 OA
ATOM      3  N   UNL     1      -1.202  -7.026  -1.665  0.00  0.00    -0.278 N 
ATOM      4  H   UNL     1      -1.137  -7.586  -0.875  0.00  0.00    +0.155 HD
ENDROOT
BRANCH   3   5
ATOM      5  C   UNL     1      -1.731  -7.542  -2.840  0.00  0.00    +0.090 A 
ATOM      6  C   UNL     1      -2.214  -8.813  -3.068  0.00  0.00    +0.084 A 
ATOM      7  C   UNL     1      -2.724  -9.128  -4.407  0.00  0.00    -0.018 A 
ATOM      8  C   UNL     1      -2.617  -8.095  -5.262  0.00  0.00    -0.004 A 
ATOM      9  S   UNL     1      -1.938  -6.762  -4.310  0.00  0.00    -0.077 S 
ATOM     10  C   UNL     1      -2.938  -8.063  -6.729  0.00  0.00    +0.043 C 
ATOM     11  C   UNL     1      -1.766  -8.735  -7.467  0.00  0.00    +0.005 C 
ATOM     12  C   UNL     1      -1.545 -10.121  -6.851  0.00  0.00    +0.000 C 
ATOM     13  C   UNL     1      -2.827 -10.888  -7.101  0.00  0.00    +0.000 C 
ATOM     14  C   UNL     1      -3.913 -10.618  -6.075  0.00  0.00    +0.005 C 
ATOM     15  C   UNL     1      -3.350 -10.495  -4.664  0.00  0.00    +0.037 C 
BRANCH   6  16
ATOM     16  C   UNL     1      -2.218  -9.797  -2.027  0.00  0.00    +0.102 C 
ATOM     17  N   UNL     1      -2.222 -10.578  -1.202  0.00  0.00    -0.191 NA
ENDBRANCH   6  16
ENDBRANCH   3   5
BRANCH   1  18
ATOM     18  C   UNL     1      -0.206  -5.186  -0.345  0.00  0.00    +0.173 C 
BRANCH  18  19
ATOM     19  S   UNL     1       0.267  -3.454  -0.605  0.00  0.00    -0.078 S 
BRANCH  19  26
ATOM     20  N   UNL     1       1.367  -1.676   1.111  0.00  0.00    -0.305 N 
ATOM     21  C   UNL     1       1.867  -1.265   2.320  0.00  0.00    +0.104 A 
ATOM     22  C   UNL     1       1.906  -2.151   3.358  0.00  0.00    +0.113 A 
ATOM     23  C   UNL     1       1.429  -3.461   3.152  0.00  0.00    +0.276 A 
ATOM     24  O   UNL     1       1.453  -4.273   4.066  0.00  0.00    -0.266 OA
ATOM     25  N   UNL     1       0.950  -3.813   1.949  0.00  0.00    -0.185 NA
ATOM     26  C   UNL     1       0.912  -2.950   0.956  0.00  0.00    +0.175 A 
BRANCH  21  27
ATOM     27  N   UNL     1       2.324   0.022   2.484  0.00  0.00    -0.344 N 
ATOM     28  H   UNL     1       2.294   0.646   1.742  0.00  0.00    +0.144 HD
ATOM     29  H   UNL     1       2.676   0.306   3.342  0.00  0.00    +0.144 HD
ENDBRANCH  21  27
BRANCH  20  30
ATOM     30  C   UNL     1       1.317  -0.740  -0.015  0.00  0.00    +0.152 C 
BRANCH  30  32
ATOM     31  C   UNL     1      -0.016   1.306   0.009  0.00  0.00    +0.005 C 
ATOM     32  C   UNL     1       0.002  -0.004   0.002  0.00  0.00    -0.013 C 
ENDBRANCH  30  32
ENDBRANCH  20  30
ENDBRANCH  19  26
ENDBRANCH  18  19
ENDBRANCH   1  18
TORSDOF 8
