REMARK  Name = ZINC08588085
REMARK  9 active torsions:
REMARK  status: ('A' for Active; 'I' for Inactive)
REMARK    1  A    between atoms: C_1  and  C_2
REMARK    2  A    between atoms: C_5  and  C_8
REMARK    3  A    between atoms: C_8  and  N_9
REMARK    4  A    between atoms: C_10  and  C_12
REMARK    5  A    between atoms: N_14  and  C_15
REMARK    6  A    between atoms: C_15  and  C_16
REMARK    7  A    between atoms: C_16  and  C_18
REMARK    8  A    between atoms: C_16  and  N_24
REMARK    9  A    between atoms: N_27  and  C_30
REMARK                            x       y       z     vdW  Elec       q    Type
REMARK                         _______ _______ _______ _____ _____    ______ ____
ROOT
ATOM      1  C   UNL     1       4.904  -9.863  -0.143  0.00  0.00    -0.019 C 
ENDROOT
BRANCH   1   2
ATOM      2  N   UNL     1       4.211 -10.355  -1.341  0.00  0.00    +0.387 N 
ATOM      3  C   UNL     1       2.824  -9.873  -1.335  0.00  0.00    -0.059 C 
ATOM      4  C   UNL     1       2.134 -10.289  -2.638  0.00  0.00    +0.086 C 
ATOM      5  N   UNL     1       2.270 -11.746  -2.794  0.00  0.00    -0.331 N 
ATOM      6  C   UNL     1       3.610 -12.335  -2.652  0.00  0.00    +0.086 C 
ATOM      7  C   UNL     1       4.231 -11.823  -1.348  0.00  0.00    -0.059 C 
ATOM      8  H   UNL     1       4.680 -10.009  -2.165  0.00  0.00    -0.081 HD
BRANCH   5   9
ATOM      9  C   UNL     1       1.157 -12.547  -3.069  0.00  0.00    +0.065 A 
ATOM     10  C   UNL     1       0.795 -12.807  -4.384  0.00  0.00    +0.026 A 
ATOM     11  C   UNL     1      -0.304 -13.599  -4.652  0.00  0.00    +0.002 A 
ATOM     12  C   UNL     1      -1.045 -14.133  -3.614  0.00  0.00    +0.003 A 
ATOM     13  C   UNL     1      -0.688 -13.877  -2.303  0.00  0.00    +0.040 A 
ATOM     14  C   UNL     1       0.415 -13.090  -2.026  0.00  0.00    +0.144 A 
ATOM     15  F   UNL     1       0.767 -12.845  -0.745  0.00  0.00    -0.204 F 
ENDBRANCH   5   9
ENDBRANCH   1   2
BRANCH   1  16
ATOM     16  C   UNL     1       6.310 -10.403  -0.118  0.00  0.00    -0.041 A 
ATOM     17  C   UNL     1       6.876 -10.833   1.072  0.00  0.00    +0.005 A 
ATOM     18  C   UNL     1       8.173 -11.323   1.047  0.00  0.00    +0.020 A 
ATOM     19  C   UNL     1       8.853 -11.366  -0.155  0.00  0.00    +0.111 A 
ATOM     20  N   UNL     1       8.283 -10.948  -1.268  0.00  0.00    -0.263 NA
ATOM     21  C   UNL     1       7.050 -10.482  -1.283  0.00  0.00    +0.112 A 
ENDBRANCH   1  16
BRANCH   1  22
ATOM     22  C   UNL     1       4.945  -8.333  -0.170  0.00  0.00    +0.094 C 
BRANCH  22  25
ATOM     23  C   UNL     1       5.792  -6.522   1.223  0.00  0.00    +0.299 C 
ATOM     24  O   UNL     1       5.505  -5.745   0.336  0.00  0.00    -0.265 OA
ATOM     25  N   UNL     1       5.553  -7.840   1.068  0.00  0.00    -0.309 N 
ATOM     26  H   UNL     1       5.783  -8.461   1.777  0.00  0.00    +0.149 HD
BRANCH  23  28
ATOM     27  N   UNL     1       6.652  -4.701   2.640  0.00  0.00    -0.303 N 
ATOM     28  C   UNL     1       6.412  -6.019   2.486  0.00  0.00    +0.299 C 
ATOM     29  O   UNL     1       6.700  -6.796   3.372  0.00  0.00    -0.265 OA
ATOM     30  H   UNL     1       6.422  -4.080   1.932  0.00  0.00    +0.149 HD
BRANCH  27  31
ATOM     31  C   UNL     1       7.259  -4.207   3.878  0.00  0.00    +0.140 C 
BRANCH  31  36
ATOM     32  C   UNL     1       7.872   1.530   3.572  0.00  0.00    +0.044 C 
ATOM     33  C   UNL     1       7.713   0.034   3.652  0.00  0.00    -0.050 A 
ATOM     34  C   UNL     1       6.550  -0.510   4.165  0.00  0.00    +0.003 A 
ATOM     35  C   UNL     1       6.404  -1.883   4.239  0.00  0.00    +0.005 A 
ATOM     36  C   UNL     1       7.419  -2.711   3.798  0.00  0.00    -0.030 A 
ATOM     37  C   UNL     1       8.581  -2.167   3.284  0.00  0.00    +0.005 A 
ATOM     38  C   UNL     1       8.726  -0.794   3.207  0.00  0.00    +0.003 A 
ENDBRANCH  31  36
ENDBRANCH  27  31
ENDBRANCH  23  28
ENDBRANCH  22  25
ENDBRANCH   1  22
TORSDOF 8
