REMARK  Name = ZINC49121811
REMARK  6 active torsions:
REMARK  status: ('A' for Active; 'I' for Inactive)
REMARK    1  A    between atoms: C_1  and  C_2
REMARK    2  A    between atoms: C_2  and  C_3
REMARK    3  A    between atoms: C_9  and  N_11
REMARK    4  A    between atoms: C_12  and  C_22
REMARK    5  A    between atoms: C_13  and  C_21
REMARK    6  A    between atoms: C_19  and  N_20
REMARK                            x       y       z     vdW  Elec       q    Type
REMARK                         _______ _______ _______ _____ _____    ______ ____
ROOT
ATOM      1  N   UNL     1      -0.741  -2.444   1.374  0.00  0.00    -0.326 N 
ATOM      2  C   UNL     1       0.392  -3.213   1.449  0.00  0.00    +0.021 A 
ATOM      3  C   UNL     1       0.745  -3.378   2.735  0.00  0.00    -0.017 A 
ATOM      4  C   UNL     1      -0.240  -2.657   3.539  0.00  0.00    +0.062 A 
ATOM      5  C   UNL     1      -1.148  -2.085   2.629  0.00  0.00    +0.146 A 
ATOM      6  N   UNL     1      -2.158  -1.360   3.108  0.00  0.00    -0.218 NA
ATOM      7  C   UNL     1      -2.301  -1.180   4.403  0.00  0.00    +0.225 A 
ATOM      8  N   UNL     1      -1.471  -1.696   5.291  0.00  0.00    -0.220 NA
ATOM      9  C   UNL     1      -0.437  -2.441   4.912  0.00  0.00    +0.129 A 
ATOM     10  C   UNL     1       1.929  -4.156   3.248  0.00  0.00    +0.046 C 
ATOM     11  C   UNL     1       1.129  -3.788   0.268  0.00  0.00    +0.064 C 
ENDROOT
BRANCH   1  17
ATOM     12  C   UNL     1      -1.433  -0.534   0.013  0.00  0.00    +0.012 C 
ATOM     13  C   UNL     1      -2.135  -0.131  -1.286  0.00  0.00    +0.005 C 
ATOM     14  C   UNL     1      -3.571  -0.661  -1.275  0.00  0.00    +0.000 C 
ATOM     15  C   UNL     1      -3.551  -2.186  -1.157  0.00  0.00    +0.002 C 
ATOM     16  C   UNL     1      -2.849  -2.589   0.141  0.00  0.00    +0.025 C 
ATOM     17  C   UNL     1      -1.413  -2.059   0.130  0.00  0.00    +0.092 C 
BRANCH  12  19
ATOM     18  C   UNL     1      -0.019   1.526   0.010  0.00  0.00    +0.004 C 
ATOM     19  C   UNL     1       0.002  -0.004   0.002  0.00  0.00    +0.002 C 
ENDBRANCH  12  19
ENDBRANCH   1  17
BRANCH   9  20
ATOM     20  N   UNL     1       0.431  -2.979   5.845  0.00  0.00    -0.343 N 
ATOM     21  H   UNL     1       1.187  -3.512   5.554  0.00  0.00    +0.144 HD
ATOM     22  H   UNL     1       0.283  -2.822   6.791  0.00  0.00    +0.144 HD
ENDBRANCH   9  20
TORSDOF 3
