REMARK  Name = ZINC05165439
REMARK  6 active torsions:
REMARK  status: ('A' for Active; 'I' for Inactive)
REMARK    1  A    between atoms: C_1  and  C_2
REMARK    2  A    between atoms: C_3  and  C_20
REMARK    3  A    between atoms: C_9  and  S_13
REMARK    4  A    between atoms: S_13  and  C_14
REMARK    5  A    between atoms: C_14  and  C_16
REMARK    6  A    between atoms: C_14  and  C_17
REMARK                            x       y       z     vdW  Elec       q    Type
REMARK                         _______ _______ _______ _____ _____    ______ ____
ROOT
ATOM      1  C   UNL     1      -8.522  -4.661   0.168  0.00  0.00    +0.052 C 
ATOM      2  C   UNL     1      -7.730  -3.384   0.284  0.00  0.00    -0.003 A 
ATOM      3  C   UNL     1      -8.159  -2.166   0.690  0.00  0.00    +0.007 A 
ATOM      4  C   UNL     1      -7.205  -1.062   0.725  0.00  0.00    +0.080 A 
ATOM      5  C   UNL     1      -7.413   0.298   1.112  0.00  0.00    +0.261 A 
ATOM      6  O   UNL     1      -8.513   0.674   1.478  0.00  0.00    -0.267 OA
ATOM      7  N   UNL     1      -6.379   1.158   1.066  0.00  0.00    -0.301 N 
ATOM      8  H   UNL     1      -6.521   2.111   1.336  0.00  0.00    +0.171 HD
ATOM      9  C   UNL     1      -5.141   0.755   0.658  0.00  0.00    +0.171 A 
ATOM     10  N   UNL     1      -4.923  -0.491   0.291  0.00  0.00    -0.216 NA
ATOM     11  C   UNL     1      -5.900  -1.391   0.318  0.00  0.00    +0.117 A 
ATOM     12  S   UNL     1      -6.006  -3.116  -0.081  0.00  0.00    -0.073 S 
ENDROOT
BRANCH   3  13
ATOM     13  C   UNL     1      -9.570  -1.958   1.093  0.00  0.00    -0.016 A 
ATOM     14  C   UNL     1      -9.879  -1.628   2.412  0.00  0.00    +0.011 A 
ATOM     15  C   UNL     1     -11.194  -1.430   2.781  0.00  0.00    +0.039 A 
ATOM     16  C   UNL     1     -12.207  -1.569   1.846  0.00  0.00    +0.123 A 
ATOM     17  C   UNL     1     -11.905  -1.902   0.535  0.00  0.00    +0.039 A 
ATOM     18  C   UNL     1     -10.592  -2.096   0.156  0.00  0.00    +0.011 A 
ATOM     19  F   UNL     1     -13.493  -1.379   2.213  0.00  0.00    -0.205 F 
ENDBRANCH   3  13
BRANCH   9  20
ATOM     20  S   UNL     1      -3.818   1.918   0.614  0.00  0.00    -0.075 S 
BRANCH  20  21
ATOM     21  C   UNL     1      -2.482   0.853   0.018  0.00  0.00    +0.137 C 
ATOM     22  C   UNL     1      -2.799   0.384  -1.403  0.00  0.00    +0.029 C 
BRANCH  21  23
ATOM     23  C   UNL     1      -1.187   1.624   0.017  0.00  0.00    +0.224 C 
ATOM     24  O   UNL     1      -1.204   2.837   0.023  0.00  0.00    -0.275 OA
ATOM     25  N   UNL     1      -0.011   0.966   0.007  0.00  0.00    -0.328 N 
ATOM     26  H   UNL     1       0.002  -0.004   0.002  0.00  0.00    +0.145 HD
ATOM     27  H   UNL     1       0.822   1.462   0.002  0.00  0.00    +0.145 HD
ENDBRANCH  21  23
ENDBRANCH  20  21
ENDBRANCH   9  20
TORSDOF 4
