REMARK  Name = ZINC01463193
REMARK  9 active torsions:
REMARK  status: ('A' for Active; 'I' for Inactive)
REMARK    1  A    between atoms: C_1  and  O_2
REMARK    2  A    between atoms: O_2  and  C_3
REMARK    3  A    between atoms: C_6  and  C_11
REMARK    4  A    between atoms: C_8  and  O_9
REMARK    5  A    between atoms: O_9  and  C_10
REMARK    6  A    between atoms: C_12  and  C_21
REMARK    7  A    between atoms: C_21  and  C_23
REMARK    8  A    between atoms: C_21  and  C_27
REMARK    9  A    between atoms: C_23  and  N_24
REMARK                            x       y       z     vdW  Elec       q    Type
REMARK                         _______ _______ _______ _____ _____    ______ ____
ROOT
ATOM      1  C   UNL     1      -0.916   1.755  -0.237  0.00  0.00    +0.051 A 
ATOM      2  C   UNL     1      -0.635   3.068  -0.045  0.00  0.00    -0.005 A 
ATOM      3  C   UNL     1       0.810   3.170   0.154  0.00  0.00    +0.004 A 
ATOM      4  C   UNL     1       1.681   4.238   0.388  0.00  0.00    +0.010 A 
ATOM      5  C   UNL     1       3.019   4.002   0.535  0.00  0.00    +0.001 A 
ATOM      6  C   UNL     1       3.520   2.709   0.455  0.00  0.00    +0.002 A 
ATOM      7  C   UNL     1       2.679   1.642   0.225  0.00  0.00    +0.026 A 
ATOM      8  C   UNL     1       1.313   1.858   0.072  0.00  0.00    +0.047 A 
ATOM      9  N   UNL     1       0.245   1.020  -0.163  0.00  0.00    -0.354 N 
ATOM     10  H   UNL     1       0.303   0.057  -0.264  0.00  0.00    +0.166 HD
ENDROOT
BRANCH   1  14
ATOM     11  C   UNL     1      -4.792   0.157  -0.949  0.00  0.00    +0.162 A 
ATOM     12  C   UNL     1      -4.350   1.254  -1.674  0.00  0.00    +0.050 A 
ATOM     13  C   UNL     1      -3.095   1.778  -1.441  0.00  0.00    +0.014 A 
ATOM     14  C   UNL     1      -2.263   1.198  -0.483  0.00  0.00    +0.002 A 
ATOM     15  C   UNL     1      -2.708   0.094   0.246  0.00  0.00    +0.059 A 
ATOM     16  C   UNL     1      -3.968  -0.424   0.012  0.00  0.00    +0.162 A 
BRANCH  11  18
ATOM     17  C   UNL     1      -6.823   0.291  -2.179  0.00  0.00    +0.277 C 
ATOM     18  O   UNL     1      -6.031  -0.353  -1.178  0.00  0.00    -0.491 OA
ENDBRANCH  11  18
BRANCH  16  19
ATOM     19  O   UNL     1      -4.404  -1.499   0.721  0.00  0.00    -0.491 OA
ATOM     20  C   UNL     1      -3.507  -2.044   1.691  0.00  0.00    +0.277 C 
ENDBRANCH  16  19
ENDBRANCH   1  14
BRANCH   2  21
ATOM     21  C   UNL     1      -1.623   4.205  -0.045  0.00  0.00    +0.078 C 
BRANCH  21  22
ATOM     22  C   UNL     1      -2.484   4.123   1.189  0.00  0.00    -0.038 A 
ATOM     23  C   UNL     1      -1.913   4.264   2.440  0.00  0.00    +0.004 A 
ATOM     24  C   UNL     1      -2.702   4.193   3.573  0.00  0.00    +0.000 A 
ATOM     25  C   UNL     1      -4.062   3.973   3.454  0.00  0.00    +0.000 A 
ATOM     26  C   UNL     1      -4.632   3.827   2.204  0.00  0.00    +0.000 A 
ATOM     27  C   UNL     1      -3.843   3.902   1.071  0.00  0.00    +0.004 A 
ENDBRANCH  21  22
BRANCH  21  28
ATOM     28  C   UNL     1      -0.869   5.536  -0.054  0.00  0.00    +0.224 C 
BRANCH  28  29
ATOM     29  N   UNL     1      -0.141   5.678  -1.317  0.00  0.00    +0.023 N 
ATOM     30  O   UNL     1      -0.679   5.373  -2.367  0.00  0.00    -0.132 OA
ATOM     31  O   UNL     1       1.001   6.099  -1.319  0.00  0.00    -0.132 OA
ENDBRANCH  28  29
ENDBRANCH  21  28
ENDBRANCH   2  21
TORSDOF 7
