REMARK  Name = ZINC42603023
REMARK  5 active torsions:
REMARK  status: ('A' for Active; 'I' for Inactive)
REMARK    1  A    between atoms: C_1  and  C_2
REMARK    2  A    between atoms: C_8  and  N_10
REMARK    3  A    between atoms: N_10  and  C_11
REMARK    4  A    between atoms: N_10  and  C_12
REMARK    5  A    between atoms: C_17  and  N_18
REMARK                            x       y       z     vdW  Elec       q    Type
REMARK                         _______ _______ _______ _____ _____    ______ ____
ROOT
ATOM      1  C   UNL     1       0.522   0.662   3.325  0.00  0.00    +0.054 A 
ATOM      2  C   UNL     1       0.364   2.028   3.146  0.00  0.00    +0.074 A 
ATOM      3  C   UNL     1       0.858   2.915   4.091  0.00  0.00    +0.164 A 
ATOM      4  C   UNL     1       1.511   2.436   5.220  0.00  0.00    +0.164 A 
ATOM      5  C   UNL     1       1.671   1.069   5.400  0.00  0.00    +0.074 A 
ATOM      6  C   UNL     1       1.173   0.181   4.459  0.00  0.00    +0.050 A 
ATOM      7  O   UNL     1       1.995   3.293   6.161  0.00  0.00    -0.485 OA
ATOM      8  C   UNL     1       2.147   4.661   5.769  0.00  0.00    +0.270 C 
ATOM      9  C   UNL     1       0.869   5.097   5.040  0.00  0.00    +0.270 C 
ATOM     10  O   UNL     1       0.697   4.254   3.896  0.00  0.00    -0.485 OA
ENDROOT
BRANCH   6  11
ATOM     11  N   UNL     1       1.331  -1.200   4.646  0.00  0.00    -0.356 N 
ATOM     12  H   UNL     1       0.986  -1.821   3.985  0.00  0.00    +0.142 HD
ATOM     13  H   UNL     1       1.785  -1.534   5.435  0.00  0.00    +0.142 HD
ENDBRANCH   6  11
BRANCH   1  14
ATOM     14  N   UNL     1       0.021  -0.234   2.370  0.00  0.00    -0.328 N 
ATOM     15  C   UNL     1      -1.341  -0.758   2.500  0.00  0.00    +0.129 C 
BRANCH  14  22
ATOM     16  C   UNL     1       2.778  -1.011   2.800  0.00  0.00    +0.009 C 
ATOM     17  C   UNL     1       2.319  -0.288   1.533  0.00  0.00    +0.006 C 
ATOM     18  C   UNL     1       2.442   1.224   1.735  0.00  0.00    +0.005 C 
ATOM     19  C   UNL     1       1.983   1.947   0.467  0.00  0.00    +0.000 C 
ATOM     20  C   UNL     1       0.524   1.589   0.176  0.00  0.00    +0.002 C 
ATOM     21  C   UNL     1       0.401   0.077  -0.026  0.00  0.00    +0.023 C 
ATOM     22  C   UNL     1       0.860  -0.646   1.241  0.00  0.00    +0.076 C 
ENDBRANCH  14  22
ENDBRANCH   1  14
TORSDOF 3
