REMARK  Name = ZINC39934495
REMARK  5 active torsions:
REMARK  status: ('A' for Active; 'I' for Inactive)
REMARK    1  A    between atoms: C_8  and  C_13
REMARK    2  A    between atoms: N_15  and  C_16
REMARK    3  A    between atoms: C_19  and  N_22
REMARK    4  A    between atoms: N_22  and  S_23
REMARK    5  A    between atoms: S_23  and  C_26
REMARK                            x       y       z     vdW  Elec       q    Type
REMARK                         _______ _______ _______ _____ _____    ______ ____
ROOT
ATOM      1  C   UNL     1       3.538  -5.384   2.345  0.00  0.00    +0.034 A 
ATOM      2  C   UNL     1       2.521  -5.473   3.286  0.00  0.00    +0.025 A 
ATOM      3  C   UNL     1       2.673  -6.287   4.392  0.00  0.00    +0.026 A 
ATOM      4  C   UNL     1       3.843  -7.016   4.562  0.00  0.00    +0.048 A 
ATOM      5  C   UNL     1       4.860  -6.926   3.620  0.00  0.00    +0.026 A 
ATOM      6  C   UNL     1       4.705  -6.117   2.512  0.00  0.00    +0.025 A 
ENDROOT
BRANCH   1   9
ATOM      7  C   UNL     1       3.897  -4.934   0.034  0.00  0.00    +0.233 C 
ATOM      8  O   UNL     1       4.566  -5.943  -0.046  0.00  0.00    -0.274 OA
ATOM      9  N   UNL     1       3.383  -4.559   1.223  0.00  0.00    -0.285 N 
ATOM     10  H   UNL     1       2.906  -3.718   1.301  0.00  0.00    +0.155 HD
BRANCH   7  18
ATOM     11  C   UNL     1       3.901  -6.016  -5.684  0.00  0.00    +0.001 A 
ATOM     12  C   UNL     1       2.512  -5.907  -5.753  0.00  0.00    +0.002 A 
ATOM     13  C   UNL     1       1.764  -5.406  -4.735  0.00  0.00    +0.024 A 
ATOM     14  C   UNL     1       2.377  -4.967  -3.547  0.00  0.00    +0.040 A 
ATOM     15  N   UNL     1       1.634  -4.476  -2.555  0.00  0.00    -0.284 N 
ATOM     16  C   UNL     1       2.145  -4.046  -1.414  0.00  0.00    +0.233 C 
ATOM     17  O   UNL     1       1.416  -3.609  -0.545  0.00  0.00    -0.274 OA
ATOM     18  C   UNL     1       3.640  -4.101  -1.194  0.00  0.00    +0.184 C 
ATOM     19  C   UNL     1       4.490  -4.658  -2.319  0.00  0.00    +0.004 C 
ATOM     20  C   UNL     1       3.844  -5.069  -3.447  0.00  0.00    -0.007 A 
ATOM     21  C   UNL     1       4.587  -5.619  -4.581  0.00  0.00    +0.009 A 
ATOM     22  H   UNL     1       0.673  -4.433  -2.677  0.00  0.00    +0.155 HD
ENDBRANCH   7  18
ENDBRANCH   1   9
BRANCH   4  23
ATOM     23  N   UNL     1       3.997  -7.839   5.682  0.00  0.00    -0.216 N 
ATOM     24  H   UNL     1       3.755  -7.511   6.562  0.00  0.00    +0.174 HD
BRANCH  23  25
ATOM     25  S   UNL     1       4.595  -9.374   5.505  0.00  0.00    +0.072 S 
ATOM     26  O   UNL     1       5.790  -9.259   4.746  0.00  0.00    -0.150 OA
ATOM     27  O   UNL     1       4.565  -9.972   6.794  0.00  0.00    -0.150 OA
BRANCH  25  28
ATOM     28  C   UNL     1       3.448 -10.267   4.509  0.00  0.00    +0.112 A 
ATOM     29  C   UNL     1       2.347 -10.865   5.094  0.00  0.00    +0.032 A 
ATOM     30  C   UNL     1       1.443 -11.568   4.318  0.00  0.00    +0.051 A 
ATOM     31  C   UNL     1       1.645 -11.670   2.952  0.00  0.00    +0.162 A 
ATOM     32  C   UNL     1       2.750 -11.070   2.365  0.00  0.00    +0.164 A 
ATOM     33  C   UNL     1       3.650 -10.364   3.144  0.00  0.00    +0.078 A 
ATOM     34  O   UNL     1       2.939 -11.176   1.018  0.00  0.00    -0.488 OA
ATOM     35  C   UNL     1       3.259 -12.481   0.532  0.00  0.00    +0.232 C 
ATOM     36  C   UNL     1       1.996 -13.298   0.307  0.00  0.00    +0.082 C 
ATOM     37  C   UNL     1       1.246 -13.575   1.601  0.00  0.00    +0.232 C 
ATOM     38  O   UNL     1       0.760 -12.360   2.175  0.00  0.00    -0.488 OA
ENDBRANCH  25  28
ENDBRANCH  23  25
ENDBRANCH   4  23
TORSDOF 5
