REMARK  Name = ZINC08045530
REMARK  8 active torsions:
REMARK  status: ('A' for Active; 'I' for Inactive)
REMARK    1  A    between atoms: C_1  and  C_2
REMARK    2  A    between atoms: C_3  and  C_28
REMARK    3  A    between atoms: C_11  and  C_13
REMARK    4  A    between atoms: C_13  and  C_14
REMARK    5  A    between atoms: N_16  and  N_17
REMARK    6  A    between atoms: C_20  and  C_27
REMARK    7  A    between atoms: C_23  and  C_25
REMARK    8  A    between atoms: C_23  and  C_26
REMARK                            x       y       z     vdW  Elec       q    Type
REMARK                         _______ _______ _______ _____ _____    ______ ____
ROOT
ATOM      1  C   UNL     1      -6.492   3.092   5.180  0.00  0.00    +0.171 C 
ENDROOT
BRANCH   1  12
ATOM      2  C   UNL     1     -12.650   5.738   5.019  0.00  0.00    +0.045 C 
ATOM      3  C   UNL     1     -11.609   5.303   4.019  0.00  0.00    -0.026 A 
ATOM      4  C   UNL     1     -11.842   5.418   2.702  0.00  0.00    -0.008 A 
ATOM      5  S   UNL     1     -10.348   4.785   1.962  0.00  0.00    -0.073 S 
ATOM      6  C   UNL     1      -9.456   4.385   3.443  0.00  0.00    +0.116 A 
ATOM      7  C   UNL     1     -10.344   4.754   4.470  0.00  0.00    +0.075 A 
ATOM      8  C   UNL     1      -9.871   4.536   5.805  0.00  0.00    +0.260 A 
ATOM      9  O   UNL     1     -10.567   4.824   6.763  0.00  0.00    -0.267 OA
ATOM     10  N   UNL     1      -8.646   4.007   5.984  0.00  0.00    -0.310 N 
ATOM     11  H   UNL     1      -8.310   3.853   6.913  0.00  0.00    +0.170 HD
ATOM     12  C   UNL     1      -7.856   3.680   4.929  0.00  0.00    +0.120 A 
ATOM     13  N   UNL     1      -8.257   3.872   3.700  0.00  0.00    -0.226 NA
ATOM     14  C   UNL     1     -13.071   5.954   2.014  0.00  0.00    +0.052 C 
ENDBRANCH   1  12
BRANCH   1  15
ATOM     15  C   UNL     1      -5.814   2.816   3.862  0.00  0.00    +0.239 C 
ATOM     16  O   UNL     1      -6.383   3.071   2.822  0.00  0.00    -0.274 OA
ATOM     17  N   UNL     1      -4.576   2.284   3.840  0.00  0.00    -0.207 N 
ATOM     18  H   UNL     1      -4.121   2.079   4.672  0.00  0.00    +0.177 HD
BRANCH  17  19
ATOM     19  N   UNL     1      -3.946   2.027   2.615  0.00  0.00    -0.189 NA
ATOM     20  C   UNL     1      -2.733   1.620   2.593  0.00  0.00    +0.038 C 
ATOM     21  C   UNL     1      -2.080   1.198   1.295  0.00  0.00    +0.055 C 
ATOM     22  C   UNL     1      -0.748   1.941   1.155  0.00  0.00    -0.008 C 
ATOM     23  C   UNL     1       0.106   1.693   2.399  0.00  0.00    +0.010 C 
ATOM     24  C   UNL     1      -0.588   2.280   3.630  0.00  0.00    -0.029 C 
ATOM     25  C   UNL     1      -1.914   1.549   3.863  0.00  0.00    +0.059 C 
ATOM     26  C   UNL     1       0.312   2.107   4.854  0.00  0.00    +0.011 C 
ATOM     27  C   UNL     1      -0.859   3.768   3.401  0.00  0.00    +0.011 C 
ATOM     28  C   UNL     1      -0.006   1.431  -0.083  0.00  0.00    +0.008 C 
ENDBRANCH  17  19
ENDBRANCH   1  15
TORSDOF 3
