REMARK  Name = ZINC52123094
REMARK  5 active torsions:
REMARK  status: ('A' for Active; 'I' for Inactive)
REMARK    1  A    between atoms: C_1  and  C_2
REMARK    2  A    between atoms: C_2  and  C_3
REMARK    3  A    between atoms: C_2  and  C_4
REMARK    4  A    between atoms: C_4  and  C_6
REMARK    5  A    between atoms: C_4  and  N_11
REMARK                            x       y       z     vdW  Elec       q    Type
REMARK                         _______ _______ _______ _____ _____    ______ ____
ROOT
ATOM      1  N   UNL     1      -2.352  -0.011  -0.998  0.00  0.00    -0.304 N 
ATOM      2  C   UNL     1      -2.336  -0.305  -2.352  0.00  0.00    +0.073 A 
ATOM      3  C   UNL     1      -1.540  -1.113  -3.150  0.00  0.00    +0.066 A 
ATOM      4  C   UNL     1      -1.788  -1.195  -4.507  0.00  0.00    +0.125 A 
ATOM      5  C   UNL     1      -2.828  -0.473  -5.076  0.00  0.00    +0.040 A 
ATOM      6  C   UNL     1      -3.627   0.334  -4.296  0.00  0.00    +0.033 A 
ATOM      7  C   UNL     1      -3.390   0.426  -2.923  0.00  0.00    +0.091 A 
ATOM      8  N   UNL     1      -3.988   1.118  -1.917  0.00  0.00    -0.215 NA
ATOM      9  C   UNL     1      -3.384   0.858  -0.785  0.00  0.00    +0.195 A 
ATOM     10  N   UNL     1      -3.734   1.387   0.441  0.00  0.00    -0.329 N 
ATOM     11  F   UNL     1      -1.012  -1.982  -5.284  0.00  0.00    -0.205 F 
ATOM     12  H   UNL     1      -3.188   1.205   1.221  0.00  0.00    +0.145 HD
ATOM     13  H   UNL     1      -4.527   1.940   0.521  0.00  0.00    +0.145 HD
ENDROOT
BRANCH   1  14
ATOM     14  C   UNL     1      -1.437  -0.539   0.017  0.00  0.00    +0.130 C 
BRANCH  14  15
ATOM     15  C   UNL     1      -1.652  -2.023   0.163  0.00  0.00    +0.013 A 
ATOM     16  C   UNL     1      -2.140  -2.715   1.222  0.00  0.00    +0.013 A 
ATOM     17  C   UNL     1      -2.251  -4.090   1.131  0.00  0.00    +0.008 A 
ATOM     18  C   UNL     1      -1.867  -4.706  -0.013  0.00  0.00    +0.045 A 
ATOM     19  S   UNL     1      -1.335  -3.327  -1.015  0.00  0.00    -0.100 S 
ENDBRANCH  14  15
BRANCH  14  21
ATOM     20  C   UNL     1       0.225   1.235  -0.560  0.00  0.00    +0.009 C 
ATOM     21  C   UNL     1       0.007  -0.272  -0.411  0.00  0.00    +0.011 C 
ATOM     22  C   UNL     1       0.963  -0.824   0.649  0.00  0.00    +0.009 C 
ENDBRANCH  14  21
ENDBRANCH   1  14
TORSDOF 3
