REMARK  Name = ZINC05352311
REMARK  10 active torsions:
REMARK  status: ('A' for Active; 'I' for Inactive)
REMARK    1  A    between atoms: C_1  and  C_2
REMARK    2  A    between atoms: C_7  and  C_8
REMARK    3  A    between atoms: C_17  and  C_19
REMARK    4  A    between atoms: C_19  and  C_20
REMARK    5  A    between atoms: C_20  and  C_21
REMARK    6  A    between atoms: C_20  and  C_22
REMARK    7  A    between atoms: N_25  and  C_28
REMARK    8  A    between atoms: C_28  and  C_29
REMARK    9  A    between atoms: C_29  and  O_30
REMARK   10  A    between atoms: O_30  and  C_31
REMARK                            x       y       z     vdW  Elec       q    Type
REMARK                         _______ _______ _______ _____ _____    ______ ____
ROOT
ATOM      1  C   UNL     1       3.855   2.753   5.113  0.00  0.00    +0.044 C 
ATOM      2  C   UNL     1       3.200   2.433   3.794  0.00  0.00    -0.046 A 
ATOM      3  C   UNL     1       2.741   1.153   3.546  0.00  0.00    +0.004 A 
ATOM      4  C   UNL     1       2.138   0.860   2.335  0.00  0.00    +0.005 A 
ATOM      5  C   UNL     1       1.996   1.842   1.380  0.00  0.00    -0.027 A 
ATOM      6  C   UNL     1       2.456   3.134   1.618  0.00  0.00    +0.039 A 
ATOM      7  C   UNL     1       3.061   3.420   2.840  0.00  0.00    -0.026 A 
ATOM      8  C   UNL     1       3.565   4.812   3.120  0.00  0.00    +0.046 C 
ATOM      9  N   UNL     1       2.206   3.947   0.511  0.00  0.00    -0.286 N 
ATOM     10  C   UNL     1       1.591   3.277  -0.483  0.00  0.00    +0.211 C 
ATOM     11  O   UNL     1       1.253   3.726  -1.558  0.00  0.00    -0.277 OA
ATOM     12  C   UNL     1       1.406   1.864  -0.001  0.00  0.00    +0.050 C 
ATOM     13  C   UNL     1       2.104   0.861  -0.928  0.00  0.00    +0.088 C 
ATOM     14  C   UNL     1       1.168  -0.380  -0.936  0.00  0.00    +0.073 C 
ATOM     15  C   UNL     1       0.002  -0.004   0.002  0.00  0.00    -0.057 C 
ATOM     16  C   UNL     1       0.667  -0.431  -2.361  0.00  0.00    +0.224 C 
ATOM     17  O   UNL     1      -0.108  -1.252  -2.803  0.00  0.00    -0.275 OA
ATOM     18  N   UNL     1       1.213   0.572  -3.060  0.00  0.00    -0.240 N 
ATOM     19  C   UNL     1       2.037   1.356  -2.355  0.00  0.00    +0.225 C 
ATOM     20  O   UNL     1       2.637   2.314  -2.793  0.00  0.00    -0.275 OA
ATOM     21  H   UNL     1       2.448   4.885   0.463  0.00  0.00    +0.155 HD
ATOM     22  N   UNL     1       0.011   1.460   0.010  0.00  0.00    +0.394 N 
ATOM     23  H   UNL     1      -0.470   1.823  -0.822  0.00  0.00    -0.083 HD
ATOM     24  H   UNL     1      -0.454   1.813   0.855  0.00  0.00    -0.083 HD
ENDROOT
BRANCH  15  25
ATOM     25  C   UNL     1      -1.318  -0.551  -0.544  0.00  0.00    -0.012 C 
BRANCH  25  26
ATOM     26  C   UNL     1      -2.452  -0.209   0.424  0.00  0.00    -0.019 C 
ATOM     27  C   UNL     1      -3.788  -0.645  -0.180  0.00  0.00    +0.007 C 
ATOM     28  C   UNL     1      -2.228  -0.940   1.750  0.00  0.00    +0.007 C 
ENDBRANCH  25  26
ENDBRANCH  15  25
BRANCH  18  29
ATOM     29  C   UNL     1       0.930   0.793  -4.480  0.00  0.00    +0.144 C 
BRANCH  29  30
ATOM     30  C   UNL     1      -0.279   1.720  -4.622  0.00  0.00    +0.179 C 
BRANCH  30  31
ATOM     31  O   UNL     1       0.044   3.008  -4.095  0.00  0.00    -0.381 OA
ATOM     32  C   UNL     1      -1.023   3.955  -4.179  0.00  0.00    +0.194 C 
ENDBRANCH  30  31
ENDBRANCH  29  30
ENDBRANCH  18  29
TORSDOF 5
