REMARK  Name = ZINC64198057
REMARK  6 active torsions:
REMARK  status: ('A' for Active; 'I' for Inactive)
REMARK    1  A    between atoms: C_1  and  O_2
REMARK    2  A    between atoms: O_2  and  C_3
REMARK    3  A    between atoms: C_10  and  C_18
REMARK    4  A    between atoms: C_20  and  O_36
REMARK    5  A    between atoms: C_23  and  O_35
REMARK    6  A    between atoms: N_25  and  C_28
REMARK                            x       y       z     vdW  Elec       q    Type
REMARK                         _______ _______ _______ _____ _____    ______ ____
ROOT
ATOM      1  C   UNL     1      -4.637  -4.200  -2.354  0.00  0.00    +0.138 C 
ATOM      2  C   UNL     1      -5.467  -2.914  -2.418  0.00  0.00    +0.199 C 
ATOM      3  N   UNL     1      -5.431  -2.404  -3.798  0.00  0.00    -0.250 NA
ATOM      4  C   UNL     1      -6.178  -3.295  -4.693  0.00  0.00    +0.287 C 
ATOM      5  N   UNL     1      -5.720  -4.672  -4.548  0.00  0.00    -0.230 N 
ATOM      6  C   UNL     1      -5.034  -5.108  -3.486  0.00  0.00    +0.231 C 
ATOM      7  O   UNL     1      -4.720  -6.279  -3.433  0.00  0.00    -0.275 OA
ATOM      8  H   UNL     1      -5.789  -1.462  -3.845  0.00  0.00    +0.128 HD
ENDROOT
BRANCH   1  15
ATOM      9  C   UNL     1      -1.068  -0.748  -0.023  0.00  0.00    +0.121 A 
ATOM     10  C   UNL     1      -2.220   0.058   0.008  0.00  0.00    +0.047 A 
ATOM     11  C   UNL     1      -3.466  -0.460   0.036  0.00  0.00    +0.029 A 
ATOM     12  C   UNL     1      -3.654  -1.913   0.035  0.00  0.00    +0.043 A 
ATOM     13  N   UNL     1      -4.735  -2.658   0.036  0.00  0.00    -0.376 N 
ATOM     14  C   UNL     1      -4.333  -4.057   0.126  0.00  0.00    +0.124 C 
ATOM     15  C   UNL     1      -4.890  -4.905  -1.021  0.00  0.00    +0.096 C 
ATOM     16  N   UNL     1      -4.204  -6.207  -1.010  0.00  0.00    -0.310 NA
ATOM     17  C   UNL     1      -2.780  -6.113  -1.343  0.00  0.00    +0.085 C 
ATOM     18  C   UNL     1      -2.034  -5.321  -0.254  0.00  0.00    +0.048 C 
ATOM     19  C   UNL     1      -2.819  -4.050  -0.017  0.00  0.00    -0.036 C 
ATOM     20  C   UNL     1      -2.439  -2.767  -0.007  0.00  0.00    +0.003 A 
ATOM     21  C   UNL     1      -1.131  -2.100  -0.037  0.00  0.00    +0.055 A 
ATOM     22  H   UNL     1      -4.339  -6.679  -0.128  0.00  0.00    +0.122 HD
ATOM     23  H   UNL     1      -5.648  -2.332  -0.014  0.00  0.00    +0.160 HD
BRANCH   9  25
ATOM     24  C   UNL     1       0.172   1.281  -0.030  0.00  0.00    +0.277 C 
ATOM     25  O   UNL     1       0.151  -0.148  -0.046  0.00  0.00    -0.495 OA
ENDBRANCH   9  25
ENDBRANCH   1  15
BRANCH   5  26
ATOM     26  C   UNL     1      -6.013  -5.582  -5.570  0.00  0.00    +0.058 A 
ATOM     27  C   UNL     1      -5.125  -5.754  -6.624  0.00  0.00    +0.025 A 
ATOM     28  C   UNL     1      -5.417  -6.653  -7.631  0.00  0.00    +0.002 A 
ATOM     29  C   UNL     1      -6.591  -7.382  -7.591  0.00  0.00    +0.002 A 
ATOM     30  C   UNL     1      -7.478  -7.215  -6.543  0.00  0.00    +0.022 A 
ATOM     31  C   UNL     1      -7.189  -6.320  -5.529  0.00  0.00    +0.062 A 
ATOM     32 CL   UNL     1      -8.299  -6.114  -4.210  0.00  0.00    -0.082 Cl
ENDBRANCH   5  26
BRANCH   4  33
ATOM     33  O   UNL     1      -7.569  -3.226  -4.373  0.00  0.00    -0.361 OA
ATOM     34  H   UNL     1      -7.950  -2.342  -4.464  0.00  0.00    +0.213 HD
ENDBRANCH   4  33
BRANCH   2  35
ATOM     35  O   UNL     1      -6.817  -3.195  -2.040  0.00  0.00    -0.376 OA
ATOM     36  H   UNL     1      -7.399  -2.423  -2.058  0.00  0.00    +0.211 HD
ENDBRANCH   2  35
TORSDOF 5
