REMARK  Name = ZINC03127212
REMARK  8 active torsions:
REMARK  status: ('A' for Active; 'I' for Inactive)
REMARK    1  A    between atoms: C_1  and  C_2
REMARK    2  A    between atoms: C_4  and  O_24
REMARK    3  A    between atoms: C_6  and  O_23
REMARK    4  A    between atoms: C_7  and  C_8
REMARK    5  A    between atoms: N_9  and  N_10
REMARK    6  A    between atoms: C_11  and  C_13
REMARK    7  A    between atoms: C_13  and  O_14
REMARK    8  A    between atoms: O_14  and  C_15
REMARK                            x       y       z     vdW  Elec       q    Type
REMARK                         _______ _______ _______ _____ _____    ______ ____
ROOT
ATOM      1  N   UNL     1       3.909  -2.193  -0.049  0.00  0.00    -0.204 N 
ATOM      2  C   UNL     1       3.713  -0.860  -0.040  0.00  0.00    +0.270 C 
ATOM      3  O   UNL     1       4.664  -0.107  -0.044  0.00  0.00    -0.270 OA
ATOM      4  H   UNL     1       3.148  -2.795  -0.045  0.00  0.00    +0.177 HD
ENDROOT
BRANCH   1   6
ATOM      5  C   UNL     1       5.400  -3.994  -0.074  0.00  0.00    +0.142 C 
ATOM      6  N   UNL     1       5.211  -2.710  -0.065  0.00  0.00    -0.188 NA
BRANCH   5  13
ATOM      7  C   UNL     1       5.797  -6.857  -0.083  0.00  0.00    +0.044 C 
ATOM      8  C   UNL     1       6.976  -5.919  -0.095  0.00  0.00    -0.035 A 
ATOM      9  C   UNL     1       8.258  -6.423  -0.116  0.00  0.00    +0.049 A 
ATOM     10  C   UNL     1       9.348  -5.561  -0.121  0.00  0.00    +0.121 A 
ATOM     11  C   UNL     1       9.154  -4.187  -0.111  0.00  0.00    +0.091 A 
ATOM     12  C   UNL     1       7.871  -3.669  -0.096  0.00  0.00    +0.129 A 
ATOM     13  C   UNL     1       6.769  -4.537  -0.090  0.00  0.00    +0.039 A 
BRANCH  12  14
ATOM     14  O   UNL     1       7.679  -2.325  -0.087  0.00  0.00    -0.506 OA
ATOM     15  H   UNL     1       7.632  -1.940   0.799  0.00  0.00    +0.292 HD
ENDBRANCH  12  14
BRANCH  10  16
ATOM     16  O   UNL     1      10.610  -6.065  -0.136  0.00  0.00    -0.507 OA
ATOM     17  H   UNL     1      10.983  -6.216   0.743  0.00  0.00    +0.292 HD
ENDBRANCH  10  16
ENDBRANCH   5  13
ENDBRANCH   1   6
BRANCH   2  18
ATOM     18  C   UNL     1       2.312  -0.304  -0.023  0.00  0.00    +0.326 C 
BRANCH  18  19
ATOM     19  O   UNL     1       2.366   1.123  -0.015  0.00  0.00    -0.481 OA
BRANCH  19  20
ATOM     20  C   UNL     1       1.179   1.786   0.000  0.00  0.00    +0.140 A 
ATOM     21  C   UNL     1      -0.013   1.076   0.008  0.00  0.00    +0.048 A 
ATOM     22  C   UNL     1      -1.218   1.751   0.017  0.00  0.00    +0.023 A 
ATOM     23  C   UNL     1      -1.238   3.134   0.031  0.00  0.00    +0.043 A 
ATOM     24  C   UNL     1      -0.051   3.845   0.023  0.00  0.00    +0.043 A 
ATOM     25  C   UNL     1       1.157   3.174   0.008  0.00  0.00    +0.084 A 
ATOM     26 CL   UNL     1       2.647   4.066  -0.002  0.00  0.00    -0.080 Cl
ATOM     27 CL   UNL     1      -2.754   3.979   0.049  0.00  0.00    -0.083 Cl
ENDBRANCH  19  20
ENDBRANCH  18  19
ENDBRANCH   2  18
TORSDOF 7
