REMARK  Name = ZINC27261014
REMARK  10 active torsions:
REMARK  status: ('A' for Active; 'I' for Inactive)
REMARK    1  A    between atoms: C_1  and  C_2
REMARK    2  A    between atoms: C_7  and  N_12
REMARK    3  A    between atoms: C_9  and  C_11
REMARK    4  A    between atoms: N_12  and  C_13
REMARK    5  A    between atoms: C_13  and  N_15
REMARK    6  A    between atoms: N_15  and  N_16
REMARK    7  A    between atoms: C_17  and  C_19
REMARK    8  A    between atoms: C_23  and  S_25
REMARK    9  A    between atoms: S_25  and  N_28
REMARK   10  A    between atoms: N_28  and  C_29
REMARK                            x       y       z     vdW  Elec       q    Type
REMARK                         _______ _______ _______ _____ _____    ______ ____
ROOT
ATOM      1  N   UNL     1      -0.828   5.766   1.271  0.00  0.00    -0.231 N 
ATOM      2  C   UNL     1      -0.846   7.113   1.278  0.00  0.00    +0.260 C 
ATOM      3  O   UNL     1       0.104   7.731   1.717  0.00  0.00    -0.269 OA
ATOM      4  H   UNL     1      -1.687   5.206   0.873  0.00  0.00    +0.173 HD
ENDROOT
BRANCH   2   5
ATOM      5  C   UNL     1      -2.021   7.839   0.752  0.00  0.00    +0.040 A 
ATOM      6  C   UNL     1      -3.114   7.132   0.247  0.00  0.00    +0.013 A 
ATOM      7  C   UNL     1      -4.208   7.816  -0.242  0.00  0.00    +0.003 A 
ATOM      8  C   UNL     1      -4.224   9.200  -0.232  0.00  0.00    +0.028 A 
ATOM      9  C   UNL     1      -3.144   9.906   0.267  0.00  0.00    +0.106 A 
ATOM     10  C   UNL     1      -2.046   9.235   0.764  0.00  0.00    +0.041 A 
BRANCH   9  11
ATOM     11  S   UNL     1      -3.174  11.668   0.274  0.00  0.00    +0.058 S 
ATOM     12  O   UNL     1      -1.820  12.098   0.289  0.00  0.00    -0.153 OA
ATOM     13  O   UNL     1      -4.087  12.063  -0.740  0.00  0.00    -0.153 OA
BRANCH  11  14
ATOM     14  N   UNL     1      -3.837  12.140   1.717  0.00  0.00    -0.193 NA
ATOM     15  C   UNL     1      -3.139  11.851   2.972  0.00  0.00    +0.127 C 
ATOM     16  H   UNL     1      -4.869  12.520   1.736  0.00  0.00    +0.148 HD
ENDBRANCH  11  14
ENDBRANCH   9  11
ENDBRANCH   2   5
BRANCH   1  17
ATOM     17  N   UNL     1       0.286   5.077   1.769  0.00  0.00    -0.246 N 
ATOM     18  H   UNL     1       1.146   5.637   2.167  0.00  0.00    +0.172 HD
BRANCH  17  19
ATOM     19  C   UNL     1       0.305   3.730   1.762  0.00  0.00    +0.147 C 
ATOM     20  S   UNL     1       1.666   2.889   2.371  0.00  0.00    -0.017 S 
BRANCH  19  21
ATOM     21  N   UNL     1      -0.749   3.044   1.275  0.00  0.00    -0.322 N 
ATOM     22  H   UNL     1      -1.623   3.584   0.884  0.00  0.00    +0.148 HD
BRANCH  21  28
ATOM     23  C   UNL     1      -4.340   1.027   0.049  0.00  0.00    +0.008 C 
ATOM     24  C   UNL     1      -2.904   1.556   0.038  0.00  0.00    -0.009 C 
ATOM     25  C   UNL     1      -2.188   1.063  -1.221  0.00  0.00    +0.003 C 
ATOM     26  C   UNL     1      -0.753   1.593  -1.232  0.00  0.00    +0.002 C 
ATOM     27  C   UNL     1      -0.013   1.086   0.008  0.00  0.00    +0.022 C 
ATOM     28  C   UNL     1      -0.729   1.579   1.267  0.00  0.00    +0.075 C 
ATOM     29  C   UNL     1      -2.164   1.050   1.278  0.00  0.00    +0.009 C 
ATOM     30  C   UNL     1      -2.880   1.543   2.537  0.00  0.00    +0.009 C 
ENDBRANCH  21  28
ENDBRANCH  19  21
ENDBRANCH  17  19
ENDBRANCH   1  17
TORSDOF 7
