REMARK  Name = ZINC14551937
REMARK  9 active torsions:
REMARK  status: ('A' for Active; 'I' for Inactive)
REMARK    1  A    between atoms: C_1  and  C_2
REMARK    2  A    between atoms: C_2  and  C_3
REMARK    3  A    between atoms: C_2  and  C_4
REMARK    4  A    between atoms: C_2  and  N_5
REMARK    5  A    between atoms: N_5  and  S_6
REMARK    6  A    between atoms: S_6  and  C_9
REMARK    7  A    between atoms: C_22  and  C_25
REMARK    8  A    between atoms: C_28  and  S_31
REMARK    9  A    between atoms: S_31  and  C_32
REMARK                            x       y       z     vdW  Elec       q    Type
REMARK                         _______ _______ _______ _____ _____    ______ ____
ROOT
ATOM      1  C   UNL     1      -3.395  -1.384  -1.824  0.00  0.00    +0.106 A 
ATOM      2  C   UNL     1      -3.756  -2.714  -1.946  0.00  0.00    +0.030 A 
ATOM      3  C   UNL     1      -2.805  -3.652  -2.139  0.00  0.00    +0.025 A 
ATOM      4  C   UNL     1      -1.457  -3.316  -2.151  0.00  0.00    +0.031 A 
ATOM      5  C   UNL     1      -1.084  -1.988  -1.986  0.00  0.00    -0.018 A 
ATOM      6  C   UNL     1      -2.060  -1.026  -1.845  0.00  0.00    +0.034 A 
ATOM      7  C   UNL     1       0.359  -1.661  -2.000  0.00  0.00    +0.049 C 
ATOM      8  C   UNL     1       0.858  -0.332  -2.438  0.00  0.00    -0.023 C 
ATOM      9  C   UNL     1       2.055  -0.489  -2.989  0.00  0.00    -0.030 C 
ATOM     10  C   UNL     1       2.439  -1.970  -2.991  0.00  0.00    +0.033 C 
ATOM     11  C   UNL     1       1.062  -2.647  -2.980  0.00  0.00    +0.029 C 
ATOM     12  C   UNL     1       0.946  -4.014  -2.331  0.00  0.00    +0.105 C 
ATOM     13  N   UNL     1      -0.500  -4.325  -2.315  0.00  0.00    -0.336 N 
ATOM     14  H   UNL     1      -0.791  -5.245  -2.421  0.00  0.00    +0.147 HD
ENDROOT
BRANCH  12  15
ATOM     15  C   UNL     1       1.691  -5.042  -3.144  0.00  0.00    -0.027 A 
ATOM     16  C   UNL     1       1.106  -5.582  -4.275  0.00  0.00    +0.006 A 
ATOM     17  C   UNL     1       1.788  -6.520  -5.025  0.00  0.00    +0.015 A 
ATOM     18  C   UNL     1       3.058  -6.928  -4.636  0.00  0.00    +0.008 A 
ATOM     19  C   UNL     1       3.640  -6.387  -3.496  0.00  0.00    +0.015 A 
ATOM     20  C   UNL     1       2.955  -5.446  -2.754  0.00  0.00    +0.006 A 
BRANCH  18  21
ATOM     21  S   UNL     1       3.929  -8.129  -5.587  0.00  0.00    -0.129 S 
ATOM     22  C   UNL     1       2.791  -8.526  -6.942  0.00  0.00    +0.090 C 
ENDBRANCH  18  21
ENDBRANCH  12  15
BRANCH   1  23
ATOM     23  S   UNL     1      -4.637  -0.147  -1.645  0.00  0.00    +0.059 S 
ATOM     24  O   UNL     1      -5.846  -0.826  -1.335  0.00  0.00    -0.153 OA
ATOM     25  O   UNL     1      -4.090   0.858  -0.801  0.00  0.00    -0.153 OA
BRANCH  23  26
ATOM     26  N   UNL     1      -4.853   0.550  -3.131  0.00  0.00    -0.185 NA
ATOM     27  H   UNL     1      -4.596   1.474  -3.276  0.00  0.00    +0.149 HD
BRANCH  26  29
ATOM     28  C   UNL     1      -6.886  -0.571  -3.900  0.00  0.00    +0.029 C 
ATOM     29  C   UNL     1      -5.431  -0.230  -4.228  0.00  0.00    +0.032 C 
ATOM     30  C   UNL     1      -5.378   0.589  -5.519  0.00  0.00    +0.029 C 
ATOM     31  C   UNL     1      -4.634  -1.522  -4.412  0.00  0.00    +0.029 C 
ENDBRANCH  26  29
ENDBRANCH  23  26
ENDBRANCH   1  23
TORSDOF 5
