REMARK  Name = ZINC47163264
REMARK  4 active torsions:
REMARK  status: ('A' for Active; 'I' for Inactive)
REMARK    1  A    between atoms: C_6  and  C_7
REMARK    2  A    between atoms: N_9  and  C_10
REMARK    3  A    between atoms: C_10  and  C_11
REMARK    4  A    between atoms: C_11  and  N_12
REMARK                            x       y       z     vdW  Elec       q    Type
REMARK                         _______ _______ _______ _____ _____    ______ ____
ROOT
ATOM      1  C   UNL     1       1.286  -0.730  -0.014  0.00  0.00    +0.246 C 
ATOM      2  O   UNL     1       1.297  -1.946  -0.021  0.00  0.00    -0.270 OA
ATOM      3  N   UNL     1       2.447  -0.045  -0.022  0.00  0.00    -0.310 N 
ATOM      4  H   UNL     1       2.438   0.925  -0.016  0.00  0.00    +0.149 HD
ENDROOT
BRANCH   1  10
ATOM      5  C   UNL     1      -0.017   1.412   0.010  0.00  0.00    +0.020 A 
ATOM      6  C   UNL     1      -1.215   2.055   0.019  0.00  0.00    +0.071 A 
ATOM      7  C   UNL     1      -2.405   1.304   0.021  0.00  0.00    +0.249 A 
ATOM      8  N   UNL     1      -2.364  -0.041   0.013  0.00  0.00    -0.328 N 
ATOM      9  C   UNL     1      -1.190  -0.700   0.004  0.00  0.00    +0.099 A 
ATOM     10  C   UNL     1       0.002  -0.004   0.002  0.00  0.00    +0.053 A 
ATOM     11  O   UNL     1      -3.482   1.876   0.029  0.00  0.00    -0.268 OA
ATOM     12  H   UNL     1      -3.193  -0.544   0.015  0.00  0.00    +0.168 HD
ENDBRANCH   1  10
BRANCH   3  13
ATOM     13  C   UNL     1       3.722  -0.766  -0.038  0.00  0.00    +0.123 C 
BRANCH  13  14
ATOM     14  C   UNL     1       4.876   0.239  -0.043  0.00  0.00    +0.121 C 
BRANCH  14  15
ATOM     15  N   UNL     1       6.151  -0.482  -0.059  0.00  0.00    -0.326 N 
ATOM     16  C   UNL     1       7.349   0.224  -0.067  0.00  0.00    +0.137 A 
ATOM     17  C   UNL     1       8.558  -0.467  -0.088  0.00  0.00    +0.082 A 
ATOM     18  C   UNL     1       9.742   0.248  -0.095  0.00  0.00    +0.045 A 
ATOM     19  C   UNL     1       9.678   1.637  -0.082  0.00  0.00    +0.061 A 
ATOM     20  C   UNL     1       8.444   2.256  -0.061  0.00  0.00    +0.133 A 
ATOM     21  N   UNL     1       7.330   1.548  -0.060  0.00  0.00    -0.238 NA
ATOM     22 CL   UNL     1      11.134   2.582  -0.089  0.00  0.00    -0.082 Cl
ATOM     23 CL   UNL     1       8.578  -2.203  -0.104  0.00  0.00    -0.080 Cl
ATOM     24  H   UNL     1       6.160  -1.452  -0.065  0.00  0.00    +0.148 HD
ENDBRANCH  14  15
ENDBRANCH  13  14
ENDBRANCH   3  13
TORSDOF 4
