REMARK  Name = ZINC56793497
REMARK  7 active torsions:
REMARK  status: ('A' for Active; 'I' for Inactive)
REMARK    1  A    between atoms: C_1  and  C_2
REMARK    2  A    between atoms: C_5  and  N_10
REMARK    3  A    between atoms: C_6  and  O_8
REMARK    4  A    between atoms: O_8  and  C_9
REMARK    5  A    between atoms: N_13  and  C_14
REMARK    6  A    between atoms: C_14  and  C_15
REMARK    7  A    between atoms: N_17  and  C_18
REMARK                            x       y       z     vdW  Elec       q    Type
REMARK                         _______ _______ _______ _____ _____    ______ ____
ROOT
ATOM      1  N   UNL     1       0.025  -4.173  -0.030  0.00  0.00    -0.266 N 
ATOM      2  C   UNL     1      -0.071  -4.839  -1.198  0.00  0.00    +0.304 C 
ATOM      3  O   UNL     1      -0.093  -4.226  -2.248  0.00  0.00    -0.252 OA
ATOM      4  N   UNL     1      -0.144  -6.185  -1.202  0.00  0.00    -0.291 N 
ATOM      5  H   UNL     1       0.124  -4.662   0.801  0.00  0.00    +0.156 HD
ATOM      6  H   UNL     1      -0.126  -6.674  -0.364  0.00  0.00    +0.151 HD
ENDROOT
BRANCH   1  11
ATOM      7  C   UNL     1      -0.149   1.503   0.019  0.00  0.00    +0.044 C 
ATOM      8  C   UNL     1      -0.102  -0.003   0.008  0.00  0.00    -0.047 A 
ATOM      9  C   UNL     1      -0.688  -0.704  -1.030  0.00  0.00    +0.005 A 
ATOM     10  C   UNL     1      -0.647  -2.085  -1.045  0.00  0.00    +0.027 A 
ATOM     11  C   UNL     1      -0.017  -2.772  -0.018  0.00  0.00    +0.077 A 
ATOM     12  C   UNL     1       0.574  -2.065   1.027  0.00  0.00    +0.141 A 
ATOM     13  C   UNL     1       0.534  -0.680   1.032  0.00  0.00    +0.051 A 
BRANCH  12  14
ATOM     14  O   UNL     1       1.193  -2.732   2.037  0.00  0.00    -0.493 OA
ATOM     15  C   UNL     1       1.777  -1.942   3.075  0.00  0.00    +0.277 C 
ENDBRANCH  12  14
ENDBRANCH   1  11
BRANCH   4  16
ATOM     16  C   UNL     1      -0.249  -6.909  -2.471  0.00  0.00    +0.202 C 
BRANCH  16  17
ATOM     17  C   UNL     1      -0.314  -8.390  -2.200  0.00  0.00    +0.234 C 
ATOM     18  O   UNL     1      -0.277  -8.800  -1.060  0.00  0.00    -0.274 OA
ATOM     19  N   UNL     1      -0.414  -9.259  -3.226  0.00  0.00    -0.282 N 
ATOM     20  H   UNL     1      -0.363  -8.938  -4.140  0.00  0.00    +0.155 HD
BRANCH  19  21
ATOM     21  C   UNL     1      -0.593 -10.625  -2.972  0.00  0.00    +0.072 A 
ATOM     22  C   UNL     1      -1.168 -11.041  -1.779  0.00  0.00    +0.029 A 
ATOM     23  C   UNL     1      -1.343 -12.388  -1.528  0.00  0.00    +0.043 A 
ATOM     24  C   UNL     1      -0.947 -13.326  -2.466  0.00  0.00    +0.161 A 
ATOM     25  C   UNL     1      -0.372 -12.916  -3.659  0.00  0.00    +0.195 A 
ATOM     26  C   UNL     1      -0.200 -11.566  -3.916  0.00  0.00    +0.182 A 
ATOM     27  F   UNL     1       0.355 -11.164  -5.081  0.00  0.00    -0.200 F 
ATOM     28  F   UNL     1       0.015 -13.832  -4.573  0.00  0.00    -0.199 F 
ATOM     29  F   UNL     1      -1.119 -14.643  -2.219  0.00  0.00    -0.202 F 
ENDBRANCH  19  21
ENDBRANCH  16  17
ENDBRANCH   4  16
TORSDOF 5
