REMARK  Name = ZINC39664875
REMARK  9 active torsions:
REMARK  status: ('A' for Active; 'I' for Inactive)
REMARK    1  A    between atoms: C_1  and  N_2
REMARK    2  A    between atoms: N_2  and  C_3
REMARK    3  A    between atoms: N_2  and  C_4
REMARK    4  A    between atoms: C_4  and  C_5
REMARK    5  A    between atoms: C_5  and  C_7
REMARK    6  A    between atoms: C_5  and  N_13
REMARK    7  A    between atoms: C_14  and  C_16
REMARK    8  A    between atoms: C_27  and  C_29
REMARK    9  A    between atoms: C_32  and  C_34
REMARK                            x       y       z     vdW  Elec       q    Type
REMARK                         _______ _______ _______ _____ _____    ______ ____
ROOT
ATOM      1  C   UNL     1       1.416  -2.634  -2.485  0.00  0.00    +0.100 C 
ATOM      2  C   UNL     1       0.900  -3.957  -3.093  0.00  0.00    +0.121 C 
ATOM      3  N   UNL     1       2.099  -4.582  -3.701  0.00  0.00    -0.294 N 
ATOM      4  C   UNL     1       3.189  -4.303  -2.736  0.00  0.00    +0.115 C 
ATOM      5  C   UNL     1       2.918  -2.865  -2.251  0.00  0.00    -0.004 C 
ATOM      6  C   UNL     1       3.247  -2.739  -0.766  0.00  0.00    -0.010 C 
ATOM      7  C   UNL     1       4.755  -2.915  -0.566  0.00  0.00    -0.082 C 
ATOM      8  N   UNL     1       5.476  -1.895  -1.336  0.00  0.00    +0.379 N 
ATOM      9  C   UNL     1       5.227  -2.082  -2.771  0.00  0.00    -0.082 C 
ATOM     10  C   UNL     1       3.739  -1.870  -3.065  0.00  0.00    -0.010 C 
ATOM     11  C   UNL     1       2.179  -5.251  -4.868  0.00  0.00    +0.282 C 
ATOM     12  O   UNL     1       3.246  -5.710  -5.234  0.00  0.00    -0.267 OA
ATOM     13  H   UNL     1       5.158  -0.978  -1.058  0.00  0.00    -0.086 HD
ATOM     14  H   UNL     1       6.465  -1.974  -1.155  0.00  0.00    -0.086 HD
ENDROOT
BRANCH  11  15
ATOM     15  C   UNL     1       0.984  -5.427  -5.696  0.00  0.00    +0.190 A 
ATOM     16  C   UNL     1       0.925  -6.091  -6.902  0.00  0.00    +0.055 A 
ATOM     17  C   UNL     1      -0.401  -6.015  -7.340  0.00  0.00    +0.050 A 
ATOM     18  C   UNL     1      -1.096  -5.315  -6.396  0.00  0.00    +0.136 A 
ATOM     19  O   UNL     1      -0.254  -4.971  -5.408  0.00  0.00    -0.450 OA
BRANCH  18  20
ATOM     20  C   UNL     1      -2.537  -4.995  -6.450  0.00  0.00    +0.017 A 
ATOM     21  C   UNL     1      -3.311  -5.421  -7.531  0.00  0.00    +0.011 A 
ATOM     22  C   UNL     1      -4.656  -5.119  -7.574  0.00  0.00    +0.001 A 
ATOM     23  C   UNL     1      -5.239  -4.394  -6.550  0.00  0.00    +0.000 A 
ATOM     24  C   UNL     1      -4.478  -3.968  -5.476  0.00  0.00    +0.001 A 
ATOM     25  C   UNL     1      -3.133  -4.269  -5.417  0.00  0.00    +0.011 A 
ENDBRANCH  18  20
ENDBRANCH  11  15
BRANCH   1  27
ATOM     26  N   UNL     1       0.645  -3.307  -0.233  0.00  0.00    -0.310 N 
ATOM     27  C   UNL     1       0.719  -2.350  -1.179  0.00  0.00    +0.219 C 
ATOM     28  O   UNL     1       0.225  -1.260  -0.980  0.00  0.00    -0.275 OA
ATOM     29  H   UNL     1       1.086  -4.160  -0.370  0.00  0.00    +0.149 HD
BRANCH  26  30
ATOM     30  C   UNL     1      -0.103  -3.059   1.002  0.00  0.00    +0.087 C 
BRANCH  30  31
ATOM     31  C   UNL     1       0.676  -3.593   2.177  0.00  0.00    -0.029 A 
ATOM     32  C   UNL     1       1.351  -4.795   2.070  0.00  0.00    +0.005 A 
ATOM     33  C   UNL     1       2.066  -5.285   3.147  0.00  0.00    +0.000 A 
ATOM     34  C   UNL     1       2.106  -4.572   4.331  0.00  0.00    +0.000 A 
ATOM     35  C   UNL     1       1.432  -3.370   4.438  0.00  0.00    +0.000 A 
ATOM     36  C   UNL     1       0.721  -2.878   3.359  0.00  0.00    +0.005 A 
ENDBRANCH  30  31
BRANCH  30  37
ATOM     37  C   UNL     1      -1.459  -3.763   0.928  0.00  0.00    -0.052 C 
BRANCH  37  39
ATOM     38  C   UNL     1      -3.424  -4.067  -0.415  0.00  0.00    -0.097 C 
ATOM     39  N   UNL     1      -2.205  -3.268  -0.237  0.00  0.00    +0.377 N 
ATOM     40  C   UNL     1      -2.569  -1.861  -0.023  0.00  0.00    -0.097 C 
ATOM     41  H   UNL     1      -1.629  -3.344  -1.062  0.00  0.00    -0.083 HD
ENDBRANCH  37  39
ENDBRANCH  30  37
ENDBRANCH  26  30
ENDBRANCH   1  27
TORSDOF 7
