REMARK  Name = ZINC04730002
REMARK  8 active torsions:
REMARK  status: ('A' for Active; 'I' for Inactive)
REMARK    1  A    between atoms: C_1  and  C_2
REMARK    2  A    between atoms: C_2  and  C_3
REMARK    3  A    between atoms: C_2  and  C_4
REMARK    4  A    between atoms: C_6  and  C_18
REMARK    5  A    between atoms: C_9  and  C_11
REMARK    6  A    between atoms: C_22  and  O_25
REMARK    7  A    between atoms: C_23  and  O_24
REMARK    8  A    between atoms: O_25  and  C_26
REMARK                            x       y       z     vdW  Elec       q    Type
REMARK                         _______ _______ _______ _____ _____    ______ ____
ROOT
ATOM      1  C   UNL     1       2.396   1.667  -0.002  0.00  0.00    +0.053 C 
ATOM      2  C   UNL     1       1.403  -0.498   0.376  0.00  0.00    -0.028 C 
ATOM      3  C   UNL     1       0.002  -0.004   0.002  0.00  0.00    +0.044 C 
ATOM      4  C   UNL     1      -0.018   1.499   0.010  0.00  0.00    +0.040 C 
ATOM      5  N   UNL     1       1.044   2.213   0.004  0.00  0.00    -0.303 NA
ATOM      6  N   UNL     1       2.388   0.258  -0.421  0.00  0.00    +0.399 N 
ATOM      7  H   UNL     1       3.322  -0.145  -0.280  0.00  0.00    -0.082 HD
ATOM      8  H   UNL     1       2.138   0.200  -1.415  0.00  0.00    -0.082 HD
ENDROOT
BRANCH   4   9
ATOM      9  C   UNL     1      -1.325   2.184   0.020  0.00  0.00    -0.004 A 
ATOM     10  C   UNL     1      -2.507   1.440   0.016  0.00  0.00    +0.011 A 
ATOM     11  C   UNL     1      -3.725   2.087   0.029  0.00  0.00    +0.020 A 
ATOM     12  C   UNL     1      -3.778   3.471   0.037  0.00  0.00    +0.041 A 
ATOM     13  C   UNL     1      -2.610   4.214   0.037  0.00  0.00    +0.020 A 
ATOM     14  C   UNL     1      -1.385   3.580   0.028  0.00  0.00    +0.011 A 
ATOM     15 CL   UNL     1      -5.316   4.277   0.048  0.00  0.00    -0.084 Cl
ENDBRANCH   4   9
BRANCH   2  16
ATOM     16  C   UNL     1       1.524  -1.968   0.066  0.00  0.00    -0.016 A 
ATOM     17  C   UNL     1       2.157  -2.381  -1.092  0.00  0.00    +0.006 A 
ATOM     18  C   UNL     1       2.270  -3.728  -1.379  0.00  0.00    +0.004 A 
ATOM     19  C   UNL     1       1.750  -4.669  -0.509  0.00  0.00    +0.049 A 
ATOM     20  C   UNL     1       1.114  -4.262   0.652  0.00  0.00    +0.161 A 
ATOM     21  C   UNL     1       1.005  -2.906   0.944  0.00  0.00    +0.160 A 
BRANCH  21  22
ATOM     22  O   UNL     1       0.387  -2.502   2.086  0.00  0.00    -0.503 OA
ATOM     23  H   UNL     1      -0.565  -2.358   1.988  0.00  0.00    +0.292 HD
ENDBRANCH  21  22
BRANCH  20  24
ATOM     24  O   UNL     1       0.603  -5.187   1.508  0.00  0.00    -0.491 OA
ATOM     25  C   UNL     1       0.757  -6.561   1.147  0.00  0.00    +0.277 C 
ENDBRANCH  20  24
ENDBRANCH   2  16
BRANCH   1  27
ATOM     26  C   UNL     1       4.417   1.228   1.401  0.00  0.00    +0.007 C 
ATOM     27  C   UNL     1       2.986   1.772   1.406  0.00  0.00    -0.010 C 
ATOM     28  C   UNL     1       3.000   3.238   1.845  0.00  0.00    +0.007 C 
ENDBRANCH   1  27
TORSDOF 5
