REMARK  Name = ZINC49806661
REMARK  7 active torsions:
REMARK  status: ('A' for Active; 'I' for Inactive)
REMARK    1  A    between atoms: C_1  and  C_2
REMARK    2  A    between atoms: C_2  and  C_4
REMARK    3  A    between atoms: C_2  and  C_15
REMARK    4  A    between atoms: C_4  and  C_5
REMARK    5  A    between atoms: C_5  and  C_7
REMARK    6  A    between atoms: C_5  and  O_14
REMARK    7  A    between atoms: C_10  and  O_13
REMARK                            x       y       z     vdW  Elec       q    Type
REMARK                         _______ _______ _______ _____ _____    ______ ____
ROOT
ATOM      1  C   UNL     1      -2.167   0.082   1.238  0.00  0.00    +0.146 C 
ENDROOT
BRANCH   1   2
ATOM      2  C   UNL     1      -3.542  -0.529   1.331  0.00  0.00    -0.019 A 
ATOM      3  C   UNL     1      -4.582  -0.007   0.585  0.00  0.00    +0.010 A 
ATOM      4  C   UNL     1      -5.842  -0.565   0.669  0.00  0.00    +0.046 A 
ATOM      5  C   UNL     1      -6.064  -1.652   1.502  0.00  0.00    +0.117 A 
ATOM      6  C   UNL     1      -5.019  -2.175   2.249  0.00  0.00    +0.046 A 
ATOM      7  C   UNL     1      -3.759  -1.616   2.158  0.00  0.00    +0.010 A 
BRANCH   5   8
ATOM      8  O   UNL     1      -7.304  -2.203   1.586  0.00  0.00    -0.507 OA
ATOM      9  H   UNL     1      -7.463  -2.912   0.948  0.00  0.00    +0.292 HD
ENDBRANCH   5   8
ENDBRANCH   1   2
BRANCH   1  10
ATOM     10  O   UNL     1      -2.282   1.506   1.185  0.00  0.00    -0.387 OA
ATOM     11  H   UNL     1      -2.791   1.832   0.431  0.00  0.00    +0.210 HD
ENDBRANCH   1  10
BRANCH   1  12
ATOM     12  C   UNL     1      -1.470  -0.420  -0.027  0.00  0.00    +0.054 C 
BRANCH  12  14
ATOM     13  C   UNL     1       0.612  -0.265  -1.400  0.00  0.00    +0.023 C 
ATOM     14  C   UNL     1      -0.040   0.123  -0.072  0.00  0.00    +0.091 C 
BRANCH  14  15
ATOM     15  C   UNL     1       0.736  -0.448   1.041  0.00  0.00    +0.066 C 
ATOM     16  N   UNL     1       1.335  -0.888   1.900  0.00  0.00    -0.196 NA
ENDBRANCH  14  15
ENDBRANCH  12  14
ENDBRANCH   1  12
TORSDOF 6
