REMARK  Name = ZINC40739534
REMARK  6 active torsions:
REMARK  status: ('A' for Active; 'I' for Inactive)
REMARK    1  A    between atoms: C_1  and  C_2
REMARK    2  A    between atoms: C_6  and  N_21
REMARK    3  A    between atoms: C_7  and  N_8
REMARK    4  A    between atoms: C_9  and  C_11
REMARK    5  A    between atoms: C_11  and  N_12
REMARK    6  A    between atoms: C_16  and  C_20
REMARK                            x       y       z     vdW  Elec       q    Type
REMARK                         _______ _______ _______ _____ _____    ______ ____
ROOT
ATOM      1  N   UNL     1      -0.250  -0.084   2.445  0.00  0.00    -0.282 N 
ATOM      2  C   UNL     1      -0.469  -0.797   3.567  0.00  0.00    +0.235 C 
ATOM      3  O   UNL     1      -0.639  -1.996   3.501  0.00  0.00    -0.274 OA
ATOM      4  H   UNL     1      -0.171   0.881   2.491  0.00  0.00    +0.155 HD
ENDROOT
BRANCH   1  11
ATOM      5  C   UNL     1       1.671  -2.167   2.196  0.00  0.00    +0.046 C 
ATOM      6  C   UNL     1       0.786  -1.759   1.046  0.00  0.00    -0.027 A 
ATOM      7  C   UNL     1       0.892  -2.407  -0.171  0.00  0.00    +0.005 A 
ATOM      8  C   UNL     1       0.083  -2.036  -1.229  0.00  0.00    +0.002 A 
ATOM      9  C   UNL     1      -0.838  -1.016  -1.076  0.00  0.00    +0.024 A 
ATOM     10  C   UNL     1      -0.951  -0.361   0.141  0.00  0.00    +0.046 A 
ATOM     11  C   UNL     1      -0.137  -0.738   1.210  0.00  0.00    +0.057 A 
BRANCH  10  12
ATOM     12  N   UNL     1      -1.881   0.672   0.299  0.00  0.00    -0.357 N 
ATOM     13  H   UNL     1      -2.519   0.862  -0.407  0.00  0.00    +0.142 HD
ATOM     14  H   UNL     1      -1.888   1.198   1.113  0.00  0.00    +0.142 HD
ENDBRANCH  10  12
ENDBRANCH   1  11
BRANCH   2  15
ATOM     15  C   UNL     1      -0.503  -0.104   4.905  0.00  0.00    +0.212 C 
BRANCH  15  16
ATOM     16  N   UNL     1      -0.756  -1.090   5.959  0.00  0.00    -0.233 N 
ATOM     17  C   UNL     1      -1.989  -1.418   6.364  0.00  0.00    +0.223 C 
ATOM     18  O   UNL     1      -3.019  -0.956   5.923  0.00  0.00    -0.275 OA
ATOM     19  C   UNL     1      -1.893  -2.458   7.459  0.00  0.00    +0.109 C 
ATOM     20  C   UNL     1      -0.374  -2.676   7.619  0.00  0.00    +0.081 C 
ATOM     21  C   UNL     1       0.228  -1.740   6.593  0.00  0.00    +0.225 C 
ATOM     22  O   UNL     1       1.413  -1.600   6.381  0.00  0.00    -0.275 OA
ATOM     23  C   UNL     1       0.077  -2.301   9.032  0.00  0.00    +0.017 C 
ENDBRANCH  15  16
ENDBRANCH   2  15
TORSDOF 4
