REMARK  Name = ZINC35289983
REMARK  9 active torsions:
REMARK  status: ('A' for Active; 'I' for Inactive)
REMARK    1  A    between atoms: C_1  and  C_2
REMARK    2  A    between atoms: C_7  and  N_8
REMARK    3  A    between atoms: C_9  and  C_32
REMARK    4  A    between atoms: C_17  and  C_23
REMARK    5  A    between atoms: C_28  and  C_31
REMARK    6  A    between atoms: N_34  and  C_35
REMARK    7  A    between atoms: C_35  and  C_36
REMARK    8  A    between atoms: C_35  and  C_37
REMARK    9  A    between atoms: C_35  and  C_38
REMARK                            x       y       z     vdW  Elec       q    Type
REMARK                         _______ _______ _______ _____ _____    ______ ____
ROOT
ATOM      1  N   UNL     1      -0.271  -0.343   2.433  0.00  0.00    -0.256 N 
ATOM      2  C   UNL     1      -1.455   0.191   3.177  0.00  0.00    +0.203 C 
ATOM      3  C   UNL     1      -0.919   1.474   3.732  0.00  0.00    +0.127 C 
ATOM      4  C   UNL     1      -0.716   2.537   2.668  0.00  0.00    +0.009 C 
ATOM      5  C   UNL     1      -0.252   3.601   3.307  0.00  0.00    +0.004 C 
ATOM      6  C   UNL     1      -0.115   3.158   4.769  0.00  0.00    +0.155 C 
ATOM      7  O   UNL     1      -1.249   2.202   4.891  0.00  0.00    -0.358 OA
ATOM      8  C   UNL     1       1.142   2.206   4.710  0.00  0.00    +0.123 C 
ATOM      9  C   UNL     1       0.497   0.927   4.176  0.00  0.00    +0.128 C 
ATOM     10  C   UNL     1       0.883   0.177   2.969  0.00  0.00    +0.228 C 
ATOM     11  O   UNL     1       2.006   0.045   2.530  0.00  0.00    -0.275 OA
ENDROOT
BRANCH   8  12
ATOM     12  C   UNL     1       2.185   2.744   3.764  0.00  0.00    +0.225 C 
ATOM     13  O   UNL     1       2.512   2.098   2.791  0.00  0.00    -0.275 OA
ATOM     14  N   UNL     1       2.754   3.942   3.999  0.00  0.00    -0.267 N 
ATOM     15  C   UNL     1       3.719   4.440   3.124  0.00  0.00    +0.168 A 
ATOM     16  C   UNL     1       4.190   3.802   1.954  0.00  0.00    +0.091 A 
ATOM     17  C   UNL     1       5.113   4.598   1.387  0.00  0.00    +0.136 A 
ATOM     18  O   UNL     1       5.239   5.699   2.144  0.00  0.00    -0.358 OA
ATOM     19  N   UNL     1       4.345   5.584   3.236  0.00  0.00    -0.063 NA
ATOM     20  C   UNL     1       5.873   4.305   0.119  0.00  0.00    +0.089 C 
ATOM     21  H   UNL     1       2.493   4.459   4.777  0.00  0.00    +0.156 HD
ENDBRANCH   8  12
BRANCH   1  28
ATOM     22  C   UNL     1      -0.469  -3.122   3.011  0.00  0.00    +0.045 C 
ATOM     23  C   UNL     1      -0.426  -2.603   1.597  0.00  0.00    -0.029 A 
ATOM     24  C   UNL     1      -0.490  -3.484   0.535  0.00  0.00    +0.005 A 
ATOM     25  C   UNL     1      -0.451  -3.009  -0.763  0.00  0.00    +0.000 A 
ATOM     26  C   UNL     1      -0.349  -1.651  -1.002  0.00  0.00    +0.002 A 
ATOM     27  C   UNL     1      -0.286  -0.764   0.055  0.00  0.00    +0.024 A 
ATOM     28  C   UNL     1      -0.330  -1.238   1.360  0.00  0.00    +0.040 A 
ENDBRANCH   1  28
BRANCH   2  29
ATOM     29  C   UNL     1      -2.608   0.447   2.241  0.00  0.00    +0.238 C 
ATOM     30  O   UNL     1      -2.397   0.701   1.074  0.00  0.00    -0.274 OA
ATOM     31  N   UNL     1      -3.874   0.396   2.702  0.00  0.00    -0.309 N 
ATOM     32  H   UNL     1      -4.042   0.193   3.635  0.00  0.00    +0.149 HD
BRANCH  31  33
ATOM     33  C   UNL     1      -4.995   0.645   1.792  0.00  0.00    +0.026 C 
ATOM     34  C   UNL     1      -4.971  -0.383   0.659  0.00  0.00    +0.031 C 
ATOM     35  C   UNL     1      -6.312   0.527   2.561  0.00  0.00    +0.031 C 
ATOM     36  C   UNL     1      -4.872   2.053   1.206  0.00  0.00    +0.031 C 
ENDBRANCH  31  33
ENDBRANCH   2  29
TORSDOF 4
