REMARK  Name = ZINC08488070
REMARK  5 active torsions:
REMARK  status: ('A' for Active; 'I' for Inactive)
REMARK    1  A    between atoms: C_5  and  C_7
REMARK    2  A    between atoms: C_9  and  C_12
REMARK    3  A    between atoms: C_12  and  S_13
REMARK    4  A    between atoms: S_13  and  C_14
REMARK    5  A    between atoms: C_18  and  N_20
REMARK                            x       y       z     vdW  Elec       q    Type
REMARK                         _______ _______ _______ _____ _____    ______ ____
ROOT
ATOM      1  C   UNL     1      -0.378  -5.412  -0.032  0.00  0.00    +0.176 C 
ENDROOT
BRANCH   1   4
ATOM      2  C   UNL     1       1.246  -2.166  -0.022  0.00  0.00    +0.203 A 
ATOM      3  N   UNL     1       0.167  -2.970  -0.021  0.00  0.00    -0.191 NA
ATOM      4  C   UNL     1       0.541  -4.217  -0.030  0.00  0.00    +0.238 A 
ATOM      5  O   UNL     1       1.879  -4.260  -0.037  0.00  0.00    -0.337 OA
ATOM      6  N   UNL     1       2.323  -2.911  -0.037  0.00  0.00    -0.056 NA
BRANCH   2  11
ATOM      7  C   UNL     1      -0.017   1.376   0.010  0.00  0.00    +0.001 A 
ATOM      8  C   UNL     1       1.170   2.087   0.002  0.00  0.00    +0.001 A 
ATOM      9  C   UNL     1       2.382   1.421  -0.013  0.00  0.00    +0.021 A 
ATOM     10  C   UNL     1       2.413   0.039  -0.021  0.00  0.00    +0.052 A 
ATOM     11  C   UNL     1       1.219  -0.682  -0.013  0.00  0.00    +0.041 A 
ATOM     12  C   UNL     1       0.002  -0.004   0.002  0.00  0.00    +0.013 A 
ATOM     13 CL   UNL     1       3.934  -0.797  -0.041  0.00  0.00    -0.083 Cl
ENDBRANCH   2  11
ENDBRANCH   1   4
BRANCH   1  14
ATOM     14  S   UNL     1      -0.756  -5.881  -1.742  0.00  0.00    -0.076 S 
BRANCH  14  15
ATOM     15  C   UNL     1      -1.825  -7.272  -1.576  0.00  0.00    +0.192 A 
ATOM     16  N   UNL     1      -2.147  -7.698  -0.363  0.00  0.00    -0.207 NA
ATOM     17  C   UNL     1      -2.952  -8.745  -0.200  0.00  0.00    +0.122 A 
ATOM     18  C   UNL     1      -3.456  -9.394  -1.323  0.00  0.00    +0.086 A 
ATOM     19  C   UNL     1      -3.095  -8.919  -2.580  0.00  0.00    +0.122 A 
ATOM     20  N   UNL     1      -2.290  -7.863  -2.668  0.00  0.00    -0.207 NA
ATOM     21  N   UNL     1      -3.283  -9.184   1.073  0.00  0.00    -0.343 N 
ATOM     22  H   UNL     1      -2.928  -8.727   1.851  0.00  0.00    +0.144 HD
ATOM     23  H   UNL     1      -3.870  -9.948   1.185  0.00  0.00    +0.144 HD
BRANCH  19  24
ATOM     24  N   UNL     1      -3.573  -9.534  -3.727  0.00  0.00    -0.343 N 
ATOM     25  H   UNL     1      -4.162 -10.302  -3.656  0.00  0.00    +0.144 HD
ATOM     26  H   UNL     1      -3.317  -9.198  -4.600  0.00  0.00    +0.144 HD
ENDBRANCH  19  24
ENDBRANCH  14  15
ENDBRANCH   1  14
TORSDOF 5
