REMARK  Name = ZINC42593934
REMARK  11 active torsions:
REMARK  status: ('A' for Active; 'I' for Inactive)
REMARK    1  A    between atoms: C_1  and  C_2
REMARK    2  A    between atoms: C_2  and  C_4
REMARK    3  A    between atoms: C_2  and  N_8
REMARK    4  A    between atoms: C_4  and  C_5
REMARK    5  A    between atoms: C_5  and  C_6
REMARK    6  A    between atoms: C_5  and  C_7
REMARK    7  A    between atoms: N_8  and  C_9
REMARK    8  A    between atoms: N_8  and  S_10
REMARK    9  A    between atoms: S_10  and  C_13
REMARK   10  A    between atoms: C_14  and  N_21
REMARK   11  A    between atoms: N_21  and  N_22
REMARK                            x       y       z     vdW  Elec       q    Type
REMARK                         _______ _______ _______ _____ _____    ______ ____
ROOT
ATOM      1  C   UNL     1       3.346  -0.411   1.357  0.00  0.00    +0.222 A 
ATOM      2  C   UNL     1       3.931   0.361   0.419  0.00  0.00    +0.179 A 
ATOM      3  N   UNL     1       4.890   1.093   1.012  0.00  0.00    -0.203 NA
ATOM      4  C   UNL     1       4.921   0.802   2.282  0.00  0.00    +0.181 A 
ATOM      5  N   UNL     1       3.970  -0.138   2.578  0.00  0.00    -0.276 N 
ATOM      6  C   UNL     1       3.879  -0.542   3.892  0.00  0.00    +0.102 A 
ATOM      7  C   UNL     1       4.685  -0.030   4.821  0.00  0.00    +0.067 A 
ATOM      8  S   UNL     1       5.681   1.101   3.861  0.00  0.00    -0.058 S 
ENDROOT
BRANCH   1   9
ATOM      9  S   UNL     1       2.029  -1.552   1.094  0.00  0.00    +0.080 S 
ATOM     10  O   UNL     1       2.100  -2.503   2.147  0.00  0.00    -0.151 OA
ATOM     11  O   UNL     1       2.084  -1.926  -0.276  0.00  0.00    -0.151 OA
BRANCH   9  12
ATOM     12  N   UNL     1       0.612  -0.721   1.301  0.00  0.00    -0.175 NA
ATOM     13  C   UNL     1      -0.007  -0.647   2.627  0.00  0.00    +0.132 C 
BRANCH  12  15
ATOM     14  C   UNL     1      -0.004   1.456   0.371  0.00  0.00    +0.026 C 
ATOM     15  C   UNL     1      -0.022  -0.059   0.159  0.00  0.00    +0.077 C 
BRANCH  15  16
ATOM     16  C   UNL     1      -1.470  -0.538   0.031  0.00  0.00    +0.023 C 
BRANCH  16  17
ATOM     17  C   UNL     1      -1.486  -2.039  -0.268  0.00  0.00    -0.016 C 
ATOM     18  C   UNL     1      -2.928  -2.549  -0.240  0.00  0.00    +0.007 C 
ATOM     19  C   UNL     1      -0.883  -2.289  -1.652  0.00  0.00    +0.007 C 
ENDBRANCH  16  17
ENDBRANCH  15  16
ENDBRANCH  12  15
ENDBRANCH   9  12
ENDBRANCH   1   9
BRANCH   2  20
ATOM     20  N   UNL     1       3.595   0.396  -0.943  0.00  0.00    -0.265 N 
ATOM     21  H   UNL     1       2.885  -0.171  -1.282  0.00  0.00    +0.168 HD
BRANCH  20  22
ATOM     22  N   UNL     1       4.269   1.228  -1.792  0.00  0.00    -0.255 NA
ATOM     23  H   UNL     1       3.919   1.143  -2.735  0.00  0.00    +0.140 HD
ATOM     24  H   UNL     1       4.223   2.184  -1.473  0.00  0.00    +0.140 HD
ENDBRANCH  20  22
ENDBRANCH   2  20
TORSDOF 7
