REMARK  Name = ZINC22710772
REMARK  10 active torsions:
REMARK  status: ('A' for Active; 'I' for Inactive)
REMARK    1  A    between atoms: C_1  and  C_2
REMARK    2  A    between atoms: C_3  and  C_7
REMARK    3  A    between atoms: C_10  and  S_13
REMARK    4  A    between atoms: N_11  and  N_12
REMARK    5  A    between atoms: S_13  and  C_14
REMARK    6  A    between atoms: C_14  and  C_16
REMARK    7  A    between atoms: C_14  and  C_17
REMARK    8  A    between atoms: N_19  and  C_20
REMARK    9  A    between atoms: C_20  and  C_22
REMARK   10  A    between atoms: C_20  and  C_23
REMARK                            x       y       z     vdW  Elec       q    Type
REMARK                         _______ _______ _______ _____ _____    ______ ____
ROOT
ATOM      1  S   UNL     1       1.685   1.712  -0.005  0.00  0.00    -0.072 S 
ENDROOT
BRANCH   1   5
ATOM      2  C   UNL     1       3.585   0.182  -3.057  0.00  0.00    +0.185 A 
ATOM      3  N   UNL     1       2.389  -0.347  -3.167  0.00  0.00    -0.127 NA
ATOM      4  N   UNL     1       1.637   0.067  -2.210  0.00  0.00    -0.121 NA
ATOM      5  C   UNL     1       2.303   0.892  -1.437  0.00  0.00    +0.209 A 
ATOM      6  N   UNL     1       3.568   0.992  -1.946  0.00  0.00    -0.224 N 
BRANCH   2   9
ATOM      7  C   UNL     1       3.620  -1.675  -5.583  0.00  0.00    +0.087 C 
ATOM      8  C   UNL     1       4.768  -0.852  -5.057  0.00  0.00    +0.112 A 
ATOM      9  C   UNL     1       4.734  -0.051  -3.959  0.00  0.00    +0.061 A 
ATOM     10  C   UNL     1       6.078   0.531  -3.849  0.00  0.00    +0.053 A 
ATOM     11  C   UNL     1       6.782   0.035  -4.881  0.00  0.00    +0.196 A 
ATOM     12  O   UNL     1       5.994  -0.783  -5.595  0.00  0.00    -0.467 OA
ENDBRANCH   2   9
BRANCH   6  13
ATOM     13  N   UNL     1       4.600   1.739  -1.454  0.00  0.00    -0.295 N 
ATOM     14  H   UNL     1       4.455   2.349  -0.550  0.00  0.00    +0.163 HD
ATOM     15  H   UNL     1       5.576   1.732  -1.961  0.00  0.00    +0.163 HD
ENDBRANCH   6  13
ENDBRANCH   1   5
BRANCH   1  16
ATOM     16  C   UNL     1      -0.013   1.086   0.008  0.00  0.00    +0.137 C 
ATOM     17  C   UNL     1      -0.753   1.593  -1.232  0.00  0.00    +0.029 C 
BRANCH  16  18
ATOM     18  C   UNL     1      -0.718   1.572   1.248  0.00  0.00    +0.227 C 
ATOM     19  O   UNL     1      -0.347   2.587   1.798  0.00  0.00    -0.275 OA
ATOM     20  N   UNL     1      -1.761   0.878   1.746  0.00  0.00    -0.308 N 
ATOM     21  H   UNL     1      -2.097  -0.043   1.247  0.00  0.00    +0.149 HD
BRANCH  20  22
ATOM     22  C   UNL     1      -2.447   1.351   2.951  0.00  0.00    +0.100 C 
ATOM     23  C   UNL     1      -3.507   2.383   2.563  0.00  0.00    +0.033 C 
BRANCH  22  24
ATOM     24  C   UNL     1      -3.108   0.186   3.642  0.00  0.00    -0.027 A 
ATOM     25  C   UNL     1      -3.743  -0.790   2.896  0.00  0.00    +0.008 A 
ATOM     26  C   UNL     1      -4.345  -1.861   3.528  0.00  0.00    +0.038 A 
ATOM     27  C   UNL     1      -4.322  -1.951   4.910  0.00  0.00    +0.123 A 
ATOM     28  C   UNL     1      -3.691  -0.970   5.656  0.00  0.00    +0.038 A 
ATOM     29  C   UNL     1      -3.084   0.097   5.021  0.00  0.00    +0.008 A 
ATOM     30  F   UNL     1      -4.915  -2.995   5.529  0.00  0.00    -0.205 F 
ENDBRANCH  22  24
ENDBRANCH  20  22
ENDBRANCH  16  18
ENDBRANCH   1  16
TORSDOF 7
