REMARK  Name = ZINC64163823
REMARK  8 active torsions:
REMARK  status: ('A' for Active; 'I' for Inactive)
REMARK    1  A    between atoms: C_1  and  C_2
REMARK    2  A    between atoms: C_2  and  C_3
REMARK    3  A    between atoms: C_3  and  C_5
REMARK    4  A    between atoms: C_3  and  N_6
REMARK    5  A    between atoms: C_7  and  O_32
REMARK    6  A    between atoms: C_9  and  C_15
REMARK    7  A    between atoms: N_29  and  C_30
REMARK    8  A    between atoms: C_30  and  C_31
REMARK                            x       y       z     vdW  Elec       q    Type
REMARK                         _______ _______ _______ _____ _____    ______ ____
ROOT
ATOM      1  C   UNL     1       4.825   2.036  -3.140  0.00  0.00    +0.118 C 
ATOM      2  C   UNL     1       4.194   3.430  -3.106  0.00  0.00    +0.128 C 
ATOM      3  C   UNL     1       4.803   4.203  -4.270  0.00  0.00    -0.035 C 
ATOM      4  C   UNL     1       5.303   5.319  -3.758  0.00  0.00    -0.001 A 
ATOM      5  C   UNL     1       5.933   6.491  -4.387  0.00  0.00    +0.010 A 
ATOM      6  C   UNL     1       6.351   7.472  -3.544  0.00  0.00    +0.001 A 
ATOM      7  C   UNL     1       6.208   7.405  -2.155  0.00  0.00    +0.002 A 
ATOM      8  C   UNL     1       5.636   6.368  -1.492  0.00  0.00    +0.026 A 
ATOM      9  C   UNL     1       5.151   5.278  -2.271  0.00  0.00    +0.043 A 
ATOM     10  N   UNL     1       4.536   4.173  -1.895  0.00  0.00    -0.376 N 
ATOM     11  C   UNL     1       4.846   3.629  -5.665  0.00  0.00    +0.049 C 
ATOM     12  C   UNL     1       5.383   2.193  -5.524  0.00  0.00    +0.089 C 
ATOM     13  N   UNL     1       4.636   1.475  -4.487  0.00  0.00    -0.293 NA
ATOM     14  H   UNL     1       4.347   3.895  -0.985  0.00  0.00    +0.160 HD
ENDROOT
BRANCH   1  17
ATOM     15  N   UNL     1       2.125  -0.091  -1.209  0.00  0.00    -0.253 N 
ATOM     16  C   UNL     1       2.693   0.780  -2.251  0.00  0.00    +0.240 C 
ATOM     17  C   UNL     1       4.156   1.150  -2.122  0.00  0.00    +0.058 C 
ATOM     18  C   UNL     1       4.831   0.669  -1.083  0.00  0.00    +0.249 C 
ATOM     19  N   UNL     1       4.219  -0.147  -0.145  0.00  0.00    -0.236 N 
ATOM     20  C   UNL     1       2.928  -0.501  -0.207  0.00  0.00    +0.311 C 
ATOM     21  O   UNL     1       2.470  -1.217   0.662  0.00  0.00    -0.252 OA
ATOM     22  O   UNL     1       6.144   0.982  -0.939  0.00  0.00    -0.270 OA
ATOM     23  H   UNL     1       4.751  -0.475   0.597  0.00  0.00    +0.159 HD
BRANCH  15  24
ATOM     24  C   UNL     1       0.718  -0.497  -1.257  0.00  0.00    +0.077 C 
ATOM     25  C   UNL     1       0.630  -2.023  -1.329  0.00  0.00    +0.028 C 
BRANCH  24  27
ATOM     26  C   UNL     1      -0.019   1.526   0.010  0.00  0.00    +0.006 C 
ATOM     27  C   UNL     1       0.002  -0.004   0.002  0.00  0.00    +0.019 C 
ENDBRANCH  24  27
ENDBRANCH  15  24
BRANCH  16  28
ATOM     28  O   UNL     1       1.935   1.991  -2.273  0.00  0.00    -0.370 OA
ATOM     29  H   UNL     1       0.996   1.864  -2.468  0.00  0.00    +0.212 HD
ENDBRANCH  16  28
ENDBRANCH   1  17
BRANCH  13  30
ATOM     30  C   UNL     1       4.953   0.040  -4.509  0.00  0.00    +0.082 C 
ATOM     31  C   UNL     1       4.511  -0.559  -5.845  0.00  0.00    +0.020 C 
ENDBRANCH  13  30
TORSDOF 5
