REMARK  Name = ZINC35021041
REMARK  7 active torsions:
REMARK  status: ('A' for Active; 'I' for Inactive)
REMARK    1  A    between atoms: C_1  and  C_2
REMARK    2  A    between atoms: C_10  and  C_20
REMARK    3  A    between atoms: C_11  and  N_12
REMARK    4  A    between atoms: N_13  and  C_14
REMARK    5  A    between atoms: N_22  and  C_23
REMARK    6  A    between atoms: C_23  and  C_24
REMARK    7  A    between atoms: C_24  and  C_25
REMARK                            x       y       z     vdW  Elec       q    Type
REMARK                         _______ _______ _______ _____ _____    ______ ____
ROOT
ATOM      1  C   UNL     1      -0.140   1.328  -0.468  0.00  0.00    +0.045 C 
ATOM      2  C   UNL     1      -0.094  -0.175  -0.372  0.00  0.00    -0.034 A 
ATOM      3  C   UNL     1      -0.081  -0.952  -1.540  0.00  0.00    +0.008 A 
ATOM      4  C   UNL     1      -0.038  -2.309  -1.446  0.00  0.00    +0.047 A 
ATOM      5  C   UNL     1      -0.009  -2.920  -0.175  0.00  0.00    +0.143 A 
ATOM      6  N   UNL     1       0.032  -4.247  -0.109  0.00  0.00    -0.211 NA
ATOM      7  C   UNL     1       0.061  -4.901   1.054  0.00  0.00    +0.154 A 
ATOM      8  C   UNL     1       0.049  -4.155   2.263  0.00  0.00    +0.083 A 
ATOM      9  C   UNL     1       0.080  -4.817   3.488  0.00  0.00    +0.033 A 
ATOM     10  C   UNL     1       0.123  -6.214   3.481  0.00  0.00    +0.076 A 
ATOM     11  C   UNL     1       0.133  -6.899   2.248  0.00  0.00    +0.115 A 
ATOM     12  N   UNL     1       0.102  -6.242   1.095  0.00  0.00    -0.281 N 
ATOM     13  C   UNL     1       0.004  -2.694   2.177  0.00  0.00    +0.268 A 
ATOM     14  O   UNL     1      -0.009  -2.006   3.182  0.00  0.00    -0.267 OA
ATOM     15  N   UNL     1      -0.023  -2.134   0.946  0.00  0.00    -0.267 N 
ATOM     16  C   UNL     1      -0.061  -0.773   0.839  0.00  0.00    +0.099 A 
ENDROOT
BRANCH  12  17
ATOM     17  C   UNL     1       0.114  -6.951  -0.086  0.00  0.00    +0.050 A 
ATOM     18  C   UNL     1      -0.986  -6.904  -0.942  0.00  0.00    +0.026 A 
ATOM     19  C   UNL     1      -0.968  -7.617  -2.123  0.00  0.00    +0.002 A 
ATOM     20  C   UNL     1       0.137  -8.378  -2.458  0.00  0.00    +0.000 A 
ATOM     21  C   UNL     1       1.231  -8.429  -1.613  0.00  0.00    +0.002 A 
ATOM     22  C   UNL     1       1.227  -7.715  -0.432  0.00  0.00    +0.026 A 
ENDBRANCH  12  17
BRANCH  10  23
ATOM     23  C   UNL     1       0.157  -6.963   4.747  0.00  0.00    +0.247 C 
ATOM     24  O   UNL     1       0.085  -8.177   4.738  0.00  0.00    -0.270 OA
ATOM     25  N   UNL     1       0.268  -6.304   5.918  0.00  0.00    -0.311 N 
ATOM     26  H   UNL     1       0.325  -5.335   5.925  0.00  0.00    +0.149 HD
BRANCH  25  27
ATOM     27  C   UNL     1       0.302  -7.049   7.178  0.00  0.00    +0.109 C 
BRANCH  27  28
ATOM     28  C   UNL     1       0.432  -6.070   8.347  0.00  0.00    +0.054 C 
BRANCH  28  29
ATOM     29  C   UNL     1       0.467  -6.837   9.643  0.00  0.00    -0.046 A 
ATOM     30  C   UNL     1      -0.710  -7.123  10.309  0.00  0.00    +0.004 A 
ATOM     31  C   UNL     1      -0.678  -7.827  11.498  0.00  0.00    +0.000 A 
ATOM     32  C   UNL     1       0.532  -8.244  12.022  0.00  0.00    +0.000 A 
ATOM     33  C   UNL     1       1.709  -7.958  11.356  0.00  0.00    +0.000 A 
ATOM     34  C   UNL     1       1.676  -7.258  10.164  0.00  0.00    +0.004 A 
ENDBRANCH  28  29
ENDBRANCH  27  28
ENDBRANCH  25  27
ENDBRANCH  10  23
BRANCH  11  35
ATOM     35  N   UNL     1       0.175  -8.276   2.240  0.00  0.00    -0.344 N 
ATOM     36  H   UNL     1       0.118  -8.768   3.074  0.00  0.00    +0.144 HD
ATOM     37  H   UNL     1       0.262  -8.754   1.400  0.00  0.00    +0.144 HD
ENDBRANCH  11  35
TORSDOF 6
