REMARK  Name = ZINC38546949
REMARK  6 active torsions:
REMARK  status: ('A' for Active; 'I' for Inactive)
REMARK    1  A    between atoms: C_1  and  C_2
REMARK    2  A    between atoms: C_4  and  C_15
REMARK    3  A    between atoms: C_5  and  N_7
REMARK    4  A    between atoms: C_8  and  C_10
REMARK    5  A    between atoms: C_15  and  C_17
REMARK    6  A    between atoms: C_15  and  N_24
REMARK                            x       y       z     vdW  Elec       q    Type
REMARK                         _______ _______ _______ _____ _____    ______ ____
ROOT
ATOM      1  C   UNL     1      -1.862  -3.233  -0.120  0.00  0.00    +0.136 C 
ENDROOT
BRANCH   1   2
ATOM      2  N   UNL     1      -3.142  -2.822  -0.704  0.00  0.00    -0.320 N 
ATOM      3  C   UNL     1      -3.932  -3.751  -1.370  0.00  0.00    +0.097 A 
ATOM      4  C   UNL     1      -3.506  -5.071  -1.474  0.00  0.00    +0.041 A 
ATOM      5  C   UNL     1      -4.302  -5.985  -2.139  0.00  0.00    +0.005 A 
ATOM      6  C   UNL     1      -5.504  -5.546  -2.681  0.00  0.00    +0.018 A 
ATOM      7  C   UNL     1      -5.865  -4.221  -2.540  0.00  0.00    +0.084 A 
ATOM      8  N   UNL     1      -5.087  -3.373  -1.895  0.00  0.00    -0.350 N 
ATOM      9  H   UNL     1      -3.437  -1.901  -0.625  0.00  0.00    +0.148 HD
ATOM     10  H   UNL     1      -5.367  -2.448  -1.807  0.00  0.00    +0.166 HD
ENDBRANCH   1   2
BRANCH   1  11
ATOM     11  C   UNL     1      -2.098  -3.804   1.255  0.00  0.00    -0.004 A 
ATOM     12  C   UNL     1      -3.206  -3.415   1.984  0.00  0.00    +0.007 A 
ATOM     13  C   UNL     1      -3.422  -3.938   3.245  0.00  0.00    +0.000 A 
ATOM     14  C   UNL     1      -2.530  -4.850   3.778  0.00  0.00    +0.001 A 
ATOM     15  C   UNL     1      -1.422  -5.239   3.050  0.00  0.00    +0.020 A 
ATOM     16  C   UNL     1      -1.208  -4.721   1.785  0.00  0.00    +0.046 A 
ATOM     17 CL   UNL     1       0.180  -5.214   0.867  0.00  0.00    -0.083 Cl
ENDBRANCH   1  11
BRANCH   1  21
ATOM     18  C   UNL     1       0.487   0.485   2.447  0.00  0.00    +0.051 C 
ATOM     19  C   UNL     1       0.096  -0.349   1.254  0.00  0.00    -0.011 A 
ATOM     20  C   UNL     1      -0.732  -1.420   1.199  0.00  0.00    +0.018 A 
ATOM     21  C   UNL     1      -0.949  -2.039  -0.019  0.00  0.00    +0.006 A 
ATOM     22  C   UNL     1      -0.322  -1.549  -1.125  0.00  0.00    +0.078 A 
ATOM     23  S   UNL     1       0.597  -0.175  -0.450  0.00  0.00    -0.078 S 
BRANCH  22  24
ATOM     24  N   UNL     1      -0.386  -2.001  -2.445  0.00  0.00    -0.273 N 
ATOM     25  C   UNL     1       0.400  -1.444  -3.387  0.00  0.00    +0.284 C 
ATOM     26  O   UNL     1       1.166  -0.546  -3.087  0.00  0.00    -0.266 OA
ATOM     27  H   UNL     1      -0.996  -2.717  -2.683  0.00  0.00    +0.156 HD
BRANCH  25  28
ATOM     28  C   UNL     1       0.333  -1.918  -4.772  0.00  0.00    +0.189 A 
ATOM     29  C   UNL     1       1.074  -1.447  -5.819  0.00  0.00    +0.054 A 
ATOM     30  C   UNL     1       0.688  -2.183  -6.950  0.00  0.00    +0.042 A 
ATOM     31  C   UNL     1      -0.259  -3.060  -6.550  0.00  0.00    +0.196 A 
ATOM     32  O   UNL     1      -0.467  -2.901  -5.236  0.00  0.00    -0.458 OA
ENDBRANCH  25  28
ENDBRANCH  22  24
ENDBRANCH   1  21
TORSDOF 5
