REMARK  Name = ZINC32827953
REMARK  11 active torsions:
REMARK  status: ('A' for Active; 'I' for Inactive)
REMARK    1  A    between atoms: C_1  and  C_2
REMARK    2  A    between atoms: C_2  and  C_4
REMARK    3  A    between atoms: C_2  and  N_24
REMARK    4  A    between atoms: N_6  and  C_7
REMARK    5  A    between atoms: C_7  and  C_8
REMARK    6  A    between atoms: C_8  and  C_9
REMARK    7  A    between atoms: C_9  and  C_10
REMARK    8  A    between atoms: C_11  and  C_22
REMARK    9  A    between atoms: C_12  and  N_21
REMARK   10  A    between atoms: N_13  and  C_15
REMARK   11  A    between atoms: C_25  and  C_27
REMARK                            x       y       z     vdW  Elec       q    Type
REMARK                         _______ _______ _______ _____ _____    ______ ____
ROOT
ATOM      1  C   UNL     1      -3.667   5.065   1.490  0.00  0.00    +0.025 C 
ENDROOT
BRANCH   1   2
ATOM      2  C   UNL     1      -4.340   6.439   1.500  0.00  0.00    +0.104 C 
BRANCH   2   5
ATOM      3  C   UNL     1      -5.130   8.059   3.140  0.00  0.00    +0.233 C 
ATOM      4  O   UNL     1      -5.481   8.772   2.224  0.00  0.00    -0.274 OA
ATOM      5  N   UNL     1      -4.548   6.870   2.885  0.00  0.00    -0.314 N 
ATOM      6  H   UNL     1      -4.229   6.224   3.716  0.00  0.00    +0.149 HD
BRANCH   3   8
ATOM      7  C   UNL     1      -3.994   8.590   5.280  0.00  0.00    +0.038 C 
ATOM      8  C   UNL     1      -5.344   8.503   4.564  0.00  0.00    +0.156 C 
BRANCH   8   9
ATOM      9  N   UNL     1      -5.988   9.818   4.574  0.00  0.00    -0.300 N 
ATOM     10  C   UNL     1      -6.723  10.201   5.638  0.00  0.00    +0.251 C 
ATOM     11  O   UNL     1      -6.851   9.453   6.590  0.00  0.00    -0.270 OA
ATOM     12  H   UNL     1      -5.873  10.494   3.714  0.00  0.00    +0.150 HD
BRANCH  10  13
ATOM     13  C   UNL     1      -7.367  11.517   5.648  0.00  0.00    +0.074 A 
ATOM     14  C   UNL     1      -8.156  12.097   6.630  0.00  0.00    +0.021 A 
ATOM     15  C   UNL     1      -8.639  13.357   6.381  0.00  0.00    +0.008 A 
ATOM     16  C   UNL     1      -8.328  13.967   5.207  0.00  0.00    +0.046 A 
ATOM     17  S   UNL     1      -7.336  12.794   4.403  0.00  0.00    -0.092 S 
ENDBRANCH  10  13
ENDBRANCH   8   9
ENDBRANCH   3   8
ENDBRANCH   2   5
ENDBRANCH   1   2
BRANCH   1  18
ATOM     18  C   UNL     1      -3.449   4.615   0.044  0.00  0.00    +0.060 C 
BRANCH  18  19
ATOM     19  C   UNL     1      -2.786   3.262   0.034  0.00  0.00    +0.083 A 
ATOM     20  C   UNL     1      -1.392   3.021   0.031  0.00  0.00    +0.114 A 
ATOM     21  C   UNL     1      -1.217   1.640   0.017  0.00  0.00    +0.138 A 
ATOM     22  N   UNL     1      -2.449   1.083   0.020  0.00  0.00    -0.217 N 
ATOM     23  N   UNL     1      -3.399   2.111   0.030  0.00  0.00    -0.168 NA
BRANCH  22  24
ATOM     24  C   UNL     1      -2.728  -0.290   0.012  0.00  0.00    +0.067 A 
ATOM     25  C   UNL     1      -1.908  -1.162  -0.692  0.00  0.00    +0.028 A 
ATOM     26  C   UNL     1      -2.182  -2.516  -0.692  0.00  0.00    +0.002 A 
ATOM     27  C   UNL     1      -3.278  -3.002  -0.002  0.00  0.00    +0.000 A 
ATOM     28  C   UNL     1      -4.099  -2.135   0.695  0.00  0.00    +0.002 A 
ATOM     29  C   UNL     1      -3.827  -0.780   0.704  0.00  0.00    +0.028 A 
ENDBRANCH  22  24
BRANCH  21  30
ATOM     30  N   UNL     1      -0.011   0.966   0.007  0.00  0.00    -0.342 N 
ATOM     31  H   UNL     1       0.004  -0.134  -0.004  0.00  0.00    +0.144 HD
ATOM     32  H   UNL     1       0.934   1.529   0.011  0.00  0.00    +0.144 HD
ENDBRANCH  21  30
BRANCH  20  33
ATOM     33  C   UNL     1      -0.357   4.011   0.039  0.00  0.00    +0.104 C 
ATOM     34  N   UNL     1       0.464   4.796   0.045  0.00  0.00    -0.191 NA
ENDBRANCH  20  33
ENDBRANCH  18  19
ENDBRANCH   1  18
TORSDOF 10
