REMARK  Name = ZINC11174378
REMARK  2 active torsions:
REMARK  status: ('A' for Active; 'I' for Inactive)
REMARK    1  A    between atoms: C_1  and  C_2
REMARK    2  A    between atoms: C_18  and  C_21
REMARK                            x       y       z     vdW  Elec       q    Type
REMARK                         _______ _______ _______ _____ _____    ______ ____
ROOT
ATOM      1  C   UNL     1      -7.376   3.936  -5.422  0.00  0.00    +0.069 C 
ATOM      2  C   UNL     1      -6.154   3.285  -4.827  0.00  0.00    +0.081 A 
ATOM      3  C   UNL     1      -5.902   3.126  -3.470  0.00  0.00    +0.108 A 
ATOM      4  C   UNL     1      -4.678   2.483  -3.340  0.00  0.00    +0.177 A 
ATOM      5  N   UNL     1      -3.990   2.095  -2.250  0.00  0.00    -0.211 NA
ATOM      6  C   UNL     1      -2.824   1.494  -2.338  0.00  0.00    +0.133 A 
ATOM      7  C   UNL     1      -2.260   1.227  -3.668  0.00  0.00    +0.040 A 
ATOM      8  C   UNL     1      -1.030   0.588  -3.830  0.00  0.00    +0.013 A 
ATOM      9  C   UNL     1      -0.546   0.361  -5.088  0.00  0.00    +0.001 A 
ATOM     10  C   UNL     1      -1.267   0.760  -6.205  0.00  0.00    +0.002 A 
ATOM     11  C   UNL     1      -2.485   1.393  -6.067  0.00  0.00    +0.028 A 
ATOM     12  C   UNL     1      -2.993   1.633  -4.798  0.00  0.00    +0.078 A 
ATOM     13  N   UNL     1      -4.210   2.265  -4.607  0.00  0.00    -0.212 N 
ATOM     14  N   UNL     1      -5.154   2.777  -5.507  0.00  0.00    -0.168 NA
ATOM     15  N   UNL     1      -2.143   1.114  -1.198  0.00  0.00    -0.318 N 
ATOM     16  C   UNL     1      -1.802   2.283  -0.375  0.00  0.00    +0.087 C 
ATOM     17  C   UNL     1      -0.982   1.829   0.835  0.00  0.00    -0.062 C 
ATOM     18  C   UNL     1      -2.096  -0.319   0.786  0.00  0.00    +0.033 C 
ATOM     19  C   UNL     1      -2.917   0.135  -0.424  0.00  0.00    +0.100 C 
ATOM     20 CL   UNL     1      -6.933   3.637  -2.170  0.00  0.00    -0.078 Cl
ATOM     21  N   UNL     1      -1.758   0.851   1.619  0.00  0.00    +0.389 N 
ATOM     22  H   UNL     1      -2.624   1.292   1.951  0.00  0.00    -0.085 HD
ATOM     23  H   UNL     1      -1.201   0.543   2.425  0.00  0.00    -0.085 HD
ENDROOT
BRANCH  18  24
ATOM     24  C   UNL     1      -2.903  -1.293   1.604  0.00  0.00    +0.198 C 
ATOM     25  O   UNL     1      -3.474  -0.917   2.606  0.00  0.00    -0.278 OA
ATOM     26  N   UNL     1      -2.991  -2.583   1.223  0.00  0.00    -0.331 N 
ATOM     27  H   UNL     1      -2.535  -2.884   0.422  0.00  0.00    +0.145 HD
ATOM     28  H   UNL     1      -3.510  -3.210   1.750  0.00  0.00    +0.145 HD
ENDBRANCH  18  24
TORSDOF 1
