REMARK  Name = ZINC51688690
REMARK  4 active torsions:
REMARK  status: ('A' for Active; 'I' for Inactive)
REMARK    1  A    between atoms: C_4  and  C_11
REMARK    2  A    between atoms: C_11  and  C_12
REMARK    3  A    between atoms: C_12  and  N_13
REMARK    4  A    between atoms: C_20  and  C_23
REMARK                            x       y       z     vdW  Elec       q    Type
REMARK                         _______ _______ _______ _____ _____    ______ ____
ROOT
ATOM      1  N   UNL     1       5.371  -1.754  -1.506  0.00  0.00    -0.299 N 
ATOM      2  C   UNL     1       5.896  -2.167  -2.676  0.00  0.00    +0.302 C 
ATOM      3  O   UNL     1       5.266  -2.030  -3.707  0.00  0.00    -0.253 OA
ATOM      4  N   UNL     1       7.120  -2.732  -2.704  0.00  0.00    -0.281 N 
ATOM      5  C   UNL     1       7.850  -3.018  -1.460  0.00  0.00    +0.137 C 
ATOM      6  C   UNL     1       8.324  -4.476  -1.502  0.00  0.00    +0.180 C 
ATOM      7  O   UNL     1       9.033  -4.705  -2.721  0.00  0.00    -0.364 OA
ATOM      8  C   UNL     1       8.241  -4.535  -3.900  0.00  0.00    +0.221 C 
ATOM      9  C   UNL     1       7.761  -3.086  -3.980  0.00  0.00    +0.150 C 
ATOM     10  H   UNL     1       5.841  -1.929  -0.675  0.00  0.00    +0.150 HD
ENDROOT
BRANCH   8  11
ATOM     11  C   UNL     1       9.070  -4.862  -5.115  0.00  0.00    +0.241 C 
ATOM     12  O   UNL     1      10.249  -5.119  -4.993  0.00  0.00    -0.273 OA
ATOM     13  N   UNL     1       8.502  -4.869  -6.337  0.00  0.00    -0.327 N 
ATOM     14  H   UNL     1       7.559  -4.663  -6.434  0.00  0.00    +0.145 HD
ATOM     15  H   UNL     1       9.035  -5.080  -7.119  0.00  0.00    +0.145 HD
ENDBRANCH   8  11
BRANCH   1  16
ATOM     16  C   UNL     1       4.090  -1.043  -1.487  0.00  0.00    +0.110 C 
BRANCH  16  17
ATOM     17  C   UNL     1       3.724  -0.690  -0.045  0.00  0.00    +0.057 C 
BRANCH  17  21
ATOM     18  C   UNL     1      -0.014   1.385   0.007  0.00  0.00    +0.047 A 
ATOM     19  C   UNL     1       1.174   2.096  -0.005  0.00  0.00    +0.124 A 
ATOM     20  C   UNL     1       2.384   1.423  -0.021  0.00  0.00    +0.045 A 
ATOM     21  C   UNL     1       2.406   0.042  -0.026  0.00  0.00    -0.001 A 
ATOM     22  C   UNL     1       1.216  -0.672  -0.014  0.00  0.00    +0.132 A 
ATOM     23  C   UNL     1       0.006   0.003   0.004  0.00  0.00    +0.023 A 
ATOM     24  C   UNL     1      -1.294  -0.761   0.026  0.00  0.00    +0.202 C 
ATOM     25  O   UNL     1      -1.051  -2.119  -0.352  0.00  0.00    -0.339 OA
ATOM     26  C   UNL     1       0.047  -2.709   0.354  0.00  0.00    +0.394 C 
ATOM     27  O   UNL     1       1.249  -2.032  -0.023  0.00  0.00    -0.466 OA
ATOM     28  F   UNL     1       1.153   3.447  -0.002  0.00  0.00    -0.205 F 
ENDBRANCH  17  21
ENDBRANCH  16  17
ENDBRANCH   1  16
TORSDOF 4
