REMARK  Name = ZINC51885974
REMARK  4 active torsions:
REMARK  status: ('A' for Active; 'I' for Inactive)
REMARK    1  A    between atoms: C_5  and  S_8
REMARK    2  A    between atoms: S_8  and  N_11
REMARK    3  A    between atoms: C_14  and  C_17
REMARK    4  A    between atoms: C_17  and  O_18
REMARK                            x       y       z     vdW  Elec       q    Type
REMARK                         _______ _______ _______ _____ _____    ______ ____
ROOT
ATOM      1  S   UNL     1       1.233  -2.441  -0.022  0.00  0.00    +0.064 S 
ATOM      2  O   UNL     1      -0.012  -2.861  -0.562  0.00  0.00    -0.153 OA
ATOM      3  O   UNL     1       2.478  -2.827  -0.588  0.00  0.00    -0.153 OA
ENDROOT
BRANCH   1   8
ATOM      4  C   UNL     1      -0.017   1.379   0.010  0.00  0.00    +0.042 A 
ATOM      5  C   UNL     1       1.172   2.087   0.002  0.00  0.00    +0.044 A 
ATOM      6  C   UNL     1       2.379   1.412  -0.013  0.00  0.00    +0.042 A 
ATOM      7  C   UNL     1       2.398   0.029  -0.020  0.00  0.00    +0.070 A 
ATOM      8  C   UNL     1       1.209  -0.679  -0.012  0.00  0.00    +0.142 A 
ATOM      9  C   UNL     1       0.002  -0.004   0.002  0.00  0.00    +0.070 A 
ATOM     10 CL   UNL     1      -1.489  -0.892   0.012  0.00  0.00    -0.081 Cl
ATOM     11 CL   UNL     1       3.913  -0.819  -0.040  0.00  0.00    -0.081 Cl
ATOM     12 CL   UNL     1       1.148   3.823   0.011  0.00  0.00    -0.083 Cl
ENDBRANCH   1   8
BRANCH   1  13
ATOM     13  N   UNL     1       1.256  -2.940   1.557  0.00  0.00    -0.176 NA
ATOM     14  C   UNL     1       2.463  -3.175   2.364  0.00  0.00    +0.110 C 
ATOM     15  C   UNL     1       1.997  -3.598   3.773  0.00  0.00    +0.024 C 
ATOM     16  C   UNL     1       0.555  -3.031   3.847  0.00  0.00    +0.031 C 
ATOM     17  C   UNL     1       0.071  -3.215   2.389  0.00  0.00    +0.115 C 
BRANCH  16  18
ATOM     18  C   UNL     1      -0.304  -3.841   4.819  0.00  0.00    +0.160 C 
BRANCH  18  19
ATOM     19  O   UNL     1       0.189  -3.667   6.149  0.00  0.00    -0.395 OA
ATOM     20  H   UNL     1      -0.309  -4.153   6.820  0.00  0.00    +0.209 HD
ENDBRANCH  18  19
ENDBRANCH  16  18
ENDBRANCH   1  13
TORSDOF 4
