REMARK  Name = ZINC39664388
REMARK  9 active torsions:
REMARK  status: ('A' for Active; 'I' for Inactive)
REMARK    1  A    between atoms: C_1  and  N_2
REMARK    2  A    between atoms: N_2  and  C_3
REMARK    3  A    between atoms: N_2  and  C_4
REMARK    4  A    between atoms: C_8  and  C_10
REMARK    5  A    between atoms: C_14  and  C_23
REMARK    6  A    between atoms: N_25  and  C_26
REMARK    7  A    between atoms: C_26  and  C_27
REMARK    8  A    between atoms: C_27  and  C_29
REMARK    9  A    between atoms: C_27  and  N_35
REMARK                            x       y       z     vdW  Elec       q    Type
REMARK                         _______ _______ _______ _____ _____    ______ ____
ROOT
ATOM      1  C   UNL     1       0.096   0.030  -5.053  0.00  0.00    +0.247 C 
ATOM      2  O   UNL     1      -0.026   1.239  -5.049  0.00  0.00    -0.270 OA
ATOM      3  N   UNL     1       0.156  -0.638  -6.222  0.00  0.00    -0.296 N 
ATOM      4  C   UNL     1       0.170  -2.105  -6.430  0.00  0.00    +0.121 C 
ATOM      5  C   UNL     1      -0.717  -2.332  -7.675  0.00  0.00    +0.100 C 
ATOM      6  C   UNL     1      -0.678  -0.994  -8.432  0.00  0.00    -0.004 C 
ATOM      7  C   UNL     1       0.214  -0.071  -7.590  0.00  0.00    +0.115 C 
ATOM      8  C   UNL     1      -0.076  -1.190  -9.820  0.00  0.00    -0.010 C 
ATOM      9  C   UNL     1      -0.102   0.141 -10.576  0.00  0.00    -0.082 C 
ATOM     10  N   UNL     1      -1.486   0.618 -10.684  0.00  0.00    +0.379 N 
ATOM     11  C   UNL     1      -2.027   0.893  -9.347  0.00  0.00    -0.082 C 
ATOM     12  C   UNL     1      -2.083  -0.407  -8.540  0.00  0.00    -0.010 C 
ATOM     13  H   UNL     1      -1.508   1.464 -11.234  0.00  0.00    -0.086 HD
ATOM     14  H   UNL     1      -2.049  -0.088 -11.135  0.00  0.00    -0.086 HD
ENDROOT
BRANCH   1  19
ATOM     15  C   UNL     1      -0.284  -0.861  -1.419  0.00  0.00    +0.030 A 
ATOM     16  C   UNL     1       0.345  -2.100  -1.380  0.00  0.00    +0.023 A 
ATOM     17  C   UNL     1       0.889  -2.640  -2.530  0.00  0.00    +0.003 A 
ATOM     18  C   UNL     1       0.811  -1.953  -3.725  0.00  0.00    +0.013 A 
ATOM     19  C   UNL     1       0.181  -0.708  -3.774  0.00  0.00    +0.039 A 
ATOM     20  C   UNL     1      -0.373  -0.166  -2.615  0.00  0.00    +0.036 A 
BRANCH  15  22
ATOM     21  C   UNL     1      -1.502   0.983  -0.295  0.00  0.00    +0.129 C 
ATOM     22  N   UNL     1      -0.833  -0.320  -0.253  0.00  0.00    -0.336 N 
ATOM     23  C   UNL     1      -0.740  -1.055   1.010  0.00  0.00    +0.129 C 
ENDBRANCH  15  22
ENDBRANCH   1  19
BRANCH   5  24
ATOM     24  C   UNL     1      -2.127  -2.662  -7.260  0.00  0.00    +0.218 C 
ATOM     25  O   UNL     1      -2.606  -2.147  -6.272  0.00  0.00    -0.275 OA
ATOM     26  N   UNL     1      -2.857  -3.531  -7.988  0.00  0.00    -0.313 N 
ATOM     27  H   UNL     1      -2.474  -3.943  -8.778  0.00  0.00    +0.149 HD
BRANCH  26  28
ATOM     28  C   UNL     1      -4.229  -3.853  -7.585  0.00  0.00    +0.127 C 
BRANCH  28  29
ATOM     29  C   UNL     1      -4.828  -4.855  -8.573  0.00  0.00    +0.104 C 
BRANCH  29  30
ATOM     30  C   UNL     1      -6.277  -5.092  -8.231  0.00  0.00    -0.029 A 
ATOM     31  C   UNL     1      -6.886  -6.281  -8.587  0.00  0.00    +0.005 A 
ATOM     32  C   UNL     1      -8.214  -6.499  -8.273  0.00  0.00    +0.000 A 
ATOM     33  C   UNL     1      -8.934  -5.528  -7.603  0.00  0.00    +0.000 A 
ATOM     34  C   UNL     1      -8.325  -4.339  -7.245  0.00  0.00    +0.000 A 
ATOM     35  C   UNL     1      -6.995  -4.123  -7.555  0.00  0.00    +0.005 A 
ENDBRANCH  29  30
BRANCH  29  36
ATOM     36  N   UNL     1      -4.729  -4.318  -9.937  0.00  0.00    -0.290 NA
ATOM     37  C   UNL     1      -5.396  -3.012 -10.039  0.00  0.00    +0.113 C 
ATOM     38  C   UNL     1      -5.217  -2.463 -11.456  0.00  0.00    +0.175 C 
ATOM     39  O   UNL     1      -5.733  -3.409 -12.397  0.00  0.00    -0.377 OA
ATOM     40  C   UNL     1      -5.105  -4.692 -12.326  0.00  0.00    +0.175 C 
ATOM     41  C   UNL     1      -5.283  -5.264 -10.917  0.00  0.00    +0.113 C 
ENDBRANCH  29  36
ENDBRANCH  28  29
ENDBRANCH  26  28
ENDBRANCH   5  24
TORSDOF 7
