REMARK  Name = ZINC03521753
REMARK  6 active torsions:
REMARK  status: ('A' for Active; 'I' for Inactive)
REMARK    1  A    between atoms: C_1  and  C_2
REMARK    2  A    between atoms: C_5  and  N_8
REMARK    3  A    between atoms: C_17  and  S_18
REMARK    4  A    between atoms: S_18  and  C_19
REMARK    5  A    between atoms: C_19  and  C_21
REMARK    6  A    between atoms: C_19  and  C_22
REMARK                            x       y       z     vdW  Elec       q    Type
REMARK                         _______ _______ _______ _____ _____    ______ ____
ROOT
ATOM      1  N   UNL     1      -3.405   1.005  -2.201  0.00  0.00    -0.255 N 
ATOM      2  C   UNL     1      -4.140  -0.108  -2.383  0.00  0.00    +0.268 A 
ATOM      3  O   UNL     1      -4.613  -0.365  -3.477  0.00  0.00    -0.267 OA
ATOM      4  C   UNL     1      -4.363  -0.982  -1.273  0.00  0.00    +0.076 A 
ATOM      5  C   UNL     1      -5.127  -2.231  -1.242  0.00  0.00    -0.023 A 
ATOM      6  C   UNL     1      -5.191  -2.880  -0.062  0.00  0.00    -0.004 A 
ATOM      7  S   UNL     1      -4.253  -1.883   1.064  0.00  0.00    -0.073 S 
ATOM      8  C   UNL     1      -3.775  -0.593  -0.058  0.00  0.00    +0.117 A 
ATOM      9  N   UNL     1      -3.055   0.517   0.055  0.00  0.00    -0.215 NA
ATOM     10  C   UNL     1      -2.864   1.306  -0.983  0.00  0.00    +0.178 A 
ATOM     11  C   UNL     1      -5.903  -4.166   0.229  0.00  0.00    +0.043 C 
ATOM     12  C   UNL     1      -6.867  -4.459  -0.929  0.00  0.00    +0.005 C 
ATOM     13  C   UNL     1      -6.118  -4.273  -2.252  0.00  0.00    +0.005 C 
ATOM     14  C   UNL     1      -5.825  -2.790  -2.478  0.00  0.00    +0.037 C 
ENDROOT
BRANCH   1  19
ATOM     15  C   UNL     1      -2.522   4.502  -6.583  0.00  0.00    +0.044 C 
ATOM     16  C   UNL     1      -2.756   3.574  -5.419  0.00  0.00    -0.050 A 
ATOM     17  C   UNL     1      -1.874   2.536  -5.175  0.00  0.00    +0.005 A 
ATOM     18  C   UNL     1      -2.087   1.683  -4.110  0.00  0.00    +0.026 A 
ATOM     19  C   UNL     1      -3.187   1.869  -3.283  0.00  0.00    +0.052 A 
ATOM     20  C   UNL     1      -4.073   2.908  -3.533  0.00  0.00    +0.026 A 
ATOM     21  C   UNL     1      -3.852   3.761  -4.597  0.00  0.00    +0.005 A 
ENDBRANCH   1  19
BRANCH  10  22
ATOM     22  S   UNL     1      -1.903   2.771  -0.796  0.00  0.00    -0.075 S 
BRANCH  22  23
ATOM     23  C   UNL     1      -1.478   2.647   0.959  0.00  0.00    +0.137 C 
ATOM     24  C   UNL     1      -2.750   2.759   1.801  0.00  0.00    +0.029 C 
BRANCH  23  25
ATOM     25  C   UNL     1      -0.532   3.761   1.327  0.00  0.00    +0.233 C 
ATOM     26  O   UNL     1      -0.523   4.787   0.680  0.00  0.00    -0.274 OA
ATOM     27  N   UNL     1       0.303   3.618   2.374  0.00  0.00    -0.239 N 
ATOM     28  C   UNL     1       1.149   4.614   2.704  0.00  0.00    +0.303 C 
ATOM     29  O   UNL     1       1.158   5.642   2.055  0.00  0.00    -0.253 OA
ATOM     30  N   UNL     1       1.984   4.471   3.752  0.00  0.00    -0.313 N 
ATOM     31  H   UNL     1       0.296   2.797   2.892  0.00  0.00    +0.159 HD
ATOM     32  H   UNL     1       1.977   3.650   4.269  0.00  0.00    +0.146 HD
ATOM     33  H   UNL     1       2.593   5.188   3.988  0.00  0.00    +0.146 HD
ENDBRANCH  23  25
ENDBRANCH  22  23
ENDBRANCH  10  22
TORSDOF 4
