REMARK  Name = ZINC50441403
REMARK  6 active torsions:
REMARK  status: ('A' for Active; 'I' for Inactive)
REMARK    1  A    between atoms: C_1  and  C_2
REMARK    2  A    between atoms: C_2  and  C_4
REMARK    3  A    between atoms: C_2  and  C_17
REMARK    4  A    between atoms: C_4  and  O_5
REMARK    5  A    between atoms: O_5  and  C_6
REMARK    6  A    between atoms: C_9  and  N_13
REMARK                            x       y       z     vdW  Elec       q    Type
REMARK                         _______ _______ _______ _____ _____    ______ ____
ROOT
ATOM      1  O   UNL     1       0.010  -0.149   2.414  0.00  0.00    -0.489 OA
ENDROOT
BRANCH   1   2
ATOM      2  C   UNL     1       0.535  -0.527   3.610  0.00  0.00    +0.148 A 
ATOM      3  C   UNL     1       0.200  -1.757   4.159  0.00  0.00    +0.063 A 
ATOM      4  C   UNL     1       0.735  -2.139   5.375  0.00  0.00    +0.051 A 
ATOM      5  C   UNL     1       1.603  -1.296   6.045  0.00  0.00    +0.129 A 
ATOM      6  C   UNL     1       1.938  -0.070   5.500  0.00  0.00    +0.051 A 
ATOM      7  C   UNL     1       1.411   0.314   4.282  0.00  0.00    +0.063 A 
ATOM      8 BR   UNL     1       1.876   1.988   3.535  0.00  0.00    -0.046 Br
ATOM      9 BR   UNL     1      -0.988  -2.909   3.244  0.00  0.00    -0.046 Br
BRANCH   5  10
ATOM     10  N   UNL     1       2.174  -1.707   7.347  0.00  0.00    +0.056 N 
ATOM     11  O   UNL     1       1.881  -2.779   7.824  0.00  0.00    -0.126 OA
ATOM     12  O   UNL     1       2.933  -0.972   7.934  0.00  0.00    -0.126 OA
ENDBRANCH   5  10
ENDBRANCH   1   2
BRANCH   1  13
ATOM     13  C   UNL     1       0.742  -0.511   1.242  0.00  0.00    +0.239 C 
BRANCH  13  15
ATOM     14  C   UNL     1      -0.019   1.526   0.010  0.00  0.00    +0.019 C 
ATOM     15  C   UNL     1       0.002  -0.004   0.002  0.00  0.00    +0.084 C 
BRANCH  15  16
ATOM     16  C   UNL     1       0.707  -0.490  -1.238  0.00  0.00    +0.069 C 
ATOM     17  N   UNL     1       0.039  -0.619  -2.371  0.00  0.00    -0.390 N 
ATOM     18  N   UNL     1       1.994  -0.787  -1.192  0.00  0.00    -0.348 N 
ATOM     19  H   UNL     1      -0.906  -0.401  -2.404  0.00  0.00    +0.157 HD
ATOM     20  H   UNL     1       2.485  -0.693  -0.361  0.00  0.00    +0.143 HD
ATOM     21  H   UNL     1       2.449  -1.100  -1.990  0.00  0.00    +0.143 HD
ATOM     22  H   UNL     1       0.493  -0.932  -3.169  0.00  0.00    +0.157 HD
ENDBRANCH  15  16
ENDBRANCH  13  15
ENDBRANCH   1  13
TORSDOF 5
