REMARK  Name = ZINC16991226
REMARK  4 active torsions:
REMARK  status: ('A' for Active; 'I' for Inactive)
REMARK    1  A    between atoms: C_1  and  C_2
REMARK    2  A    between atoms: C_2  and  C_3
REMARK    3  A    between atoms: C_3  and  N_4
REMARK    4  A    between atoms: N_4  and  C_5
REMARK                            x       y       z     vdW  Elec       q    Type
REMARK                         _______ _______ _______ _____ _____    ______ ____
ROOT
ATOM      1  C   UNL     1       1.335  -2.639  -2.309  0.00  0.00    +0.127 A 
ATOM      2  C   UNL     1       1.351  -4.026  -2.323  0.00  0.00    +0.113 A 
ATOM      3  C   UNL     1       1.963  -4.681  -3.396  0.00  0.00    +0.254 A 
ATOM      4  O   UNL     1       1.996  -5.901  -3.442  0.00  0.00    -0.268 OA
ATOM      5  N   UNL     1       2.517  -3.942  -4.380  0.00  0.00    -0.295 N 
ATOM      6  H   UNL     1       2.946  -4.381  -5.131  0.00  0.00    +0.172 HD
ATOM      7  C   UNL     1       2.476  -2.583  -4.320  0.00  0.00    +0.195 A 
ATOM      8  N   UNL     1       1.897  -1.959  -3.316  0.00  0.00    -0.201 NA
ATOM      9  N   UNL     1       3.044  -1.850  -5.327  0.00  0.00    -0.329 N 
ATOM     10  H   UNL     1       3.470  -2.300  -6.074  0.00  0.00    +0.145 HD
ATOM     11  H   UNL     1       3.020  -0.881  -5.295  0.00  0.00    +0.145 HD
ENDROOT
BRANCH   1  12
ATOM     12  N   UNL     1       0.738  -1.962  -1.265  0.00  0.00    -0.329 N 
ATOM     13  H   UNL     1       0.332  -2.457  -0.536  0.00  0.00    +0.147 HD
BRANCH  12  14
ATOM     14  C   UNL     1       0.718  -0.497  -1.257  0.00  0.00    +0.102 C 
BRANCH  14  16
ATOM     15  C   UNL     1      -0.019   1.526   0.010  0.00  0.00    +0.005 C 
ATOM     16  C   UNL     1       0.002  -0.004   0.002  0.00  0.00    +0.015 C 
ENDBRANCH  14  16
ENDBRANCH  12  14
ENDBRANCH   1  12
TORSDOF 3
