REMARK  Name = ZINC40961299
REMARK  12 active torsions:
REMARK  status: ('A' for Active; 'I' for Inactive)
REMARK    1  A    between atoms: C_1  and  C_2
REMARK    2  A    between atoms: C_2  and  C_4
REMARK    3  A    between atoms: C_2  and  O_17
REMARK    4  A    between atoms: N_6  and  N_7
REMARK    5  A    between atoms: C_8  and  C_9
REMARK    6  A    between atoms: C_12  and  O_15
REMARK    7  A    between atoms: O_15  and  C_16
REMARK    8  A    between atoms: O_17  and  C_18
REMARK    9  A    between atoms: C_21  and  C_24
REMARK   10  A    between atoms: C_24  and  C_25
REMARK   11  A    between atoms: C_24  and  C_26
REMARK   12  A    between atoms: C_24  and  C_27
REMARK                            x       y       z     vdW  Elec       q    Type
REMARK                         _______ _______ _______ _____ _____    ______ ____
ROOT
ATOM      1  C   UNL     1      -1.426  -0.749  -0.046  0.00  0.00    +0.273 C 
ATOM      2  O   UNL     1      -1.835  -1.187  -1.100  0.00  0.00    -0.270 OA
ATOM      3  N   UNL     1      -2.233  -0.726   1.034  0.00  0.00    -0.204 N 
ATOM      4  H   UNL     1      -1.905  -0.376   1.877  0.00  0.00    +0.177 HD
ENDROOT
BRANCH   1   6
ATOM      5  C   UNL     1      -0.044   1.273   0.345  0.00  0.00    +0.062 C 
ATOM      6  C   UNL     1      -0.015  -0.229   0.058  0.00  0.00    +0.257 C 
BRANCH   6   7
ATOM      7  O   UNL     1       0.671  -0.465  -1.174  0.00  0.00    -0.480 OA
BRANCH   7   8
ATOM      8  C   UNL     1       2.026  -0.553  -1.118  0.00  0.00    +0.122 A 
ATOM      9  C   UNL     1       2.690  -0.309   0.075  0.00  0.00    +0.046 A 
ATOM     10  C   UNL     1       4.067  -0.400   0.129  0.00  0.00    +0.008 A 
ATOM     11  C   UNL     1       4.784  -0.733  -1.005  0.00  0.00    -0.042 A 
ATOM     12  C   UNL     1       4.125  -0.976  -2.196  0.00  0.00    +0.008 A 
ATOM     13  C   UNL     1       2.747  -0.893  -2.253  0.00  0.00    +0.046 A 
BRANCH  11  14
ATOM     14  C   UNL     1       6.287  -0.831  -0.944  0.00  0.00    -0.013 C 
ATOM     15  C   UNL     1       6.687  -1.900   0.075  0.00  0.00    +0.015 C 
ATOM     16  C   UNL     1       6.830  -1.211  -2.322  0.00  0.00    +0.015 C 
ATOM     17  C   UNL     1       6.869   0.520  -0.521  0.00  0.00    +0.015 C 
ENDBRANCH  11  14
ENDBRANCH   7   8
ENDBRANCH   6   7
ENDBRANCH   1   6
BRANCH   3  18
ATOM     18  N   UNL     1      -3.544  -1.209   0.938  0.00  0.00    -0.188 NA
ATOM     19  C   UNL     1      -4.322  -1.188   1.977  0.00  0.00    +0.138 C 
BRANCH  19  20
ATOM     20  C   UNL     1      -5.702  -1.696   1.876  0.00  0.00    -0.005 A 
ATOM     21  C   UNL     1      -6.173  -2.206   0.663  0.00  0.00    +0.013 A 
ATOM     22  C   UNL     1      -7.464  -2.681   0.574  0.00  0.00    +0.046 A 
ATOM     23  C   UNL     1      -8.296  -2.652   1.686  0.00  0.00    +0.120 A 
ATOM     24  C   UNL     1      -7.831  -2.145   2.893  0.00  0.00    +0.046 A 
ATOM     25  C   UNL     1      -6.540  -1.673   2.993  0.00  0.00    +0.013 A 
BRANCH  23  26
ATOM     26  O   UNL     1      -9.568  -3.120   1.593  0.00  0.00    -0.495 OA
ATOM     27  C   UNL     1     -10.369  -3.061   2.775  0.00  0.00    +0.277 C 
ENDBRANCH  23  26
ENDBRANCH  19  20
ENDBRANCH   3  18
TORSDOF 7
