REMARK  Name = ZINC07989652
REMARK  6 active torsions:
REMARK  status: ('A' for Active; 'I' for Inactive)
REMARK    1  A    between atoms: C_1  and  C_2
REMARK    2  A    between atoms: C_2  and  C_25
REMARK    3  A    between atoms: C_7  and  C_11
REMARK    4  A    between atoms: N_12  and  N_13
REMARK    5  A    between atoms: C_14  and  C_16
REMARK    6  A    between atoms: C_18  and  N_23
REMARK                            x       y       z     vdW  Elec       q    Type
REMARK                         _______ _______ _______ _____ _____    ______ ____
ROOT
ATOM      1  N   UNL     1      -0.016   1.344   0.009  0.00  0.00    -0.202 N 
ATOM      2  C   UNL     1       0.002  -0.004   0.002  0.00  0.00    +0.281 C 
ATOM      3  O   UNL     1       1.063  -0.598  -0.011  0.00  0.00    -0.267 OA
ATOM      4  H   UNL     1      -0.863   1.817   0.016  0.00  0.00    +0.178 HD
ENDROOT
BRANCH   2   5
ATOM      5  C   UNL     1      -1.269  -0.761   0.010  0.00  0.00    +0.125 A 
ATOM      6  C   UNL     1      -1.243  -2.153   0.002  0.00  0.00    +0.091 A 
ATOM      7  C   UNL     1      -2.450  -2.852   0.011  0.00  0.00    +0.067 A 
ATOM      8  C   UNL     1      -3.637  -2.122   0.026  0.00  0.00    +0.098 A 
ATOM      9  C   UNL     1      -3.581  -0.738   0.033  0.00  0.00    +0.128 A 
ATOM     10 CL   UNL     1      -5.056   0.178   0.053  0.00  0.00    -0.062 Cl
ATOM     11 CL   UNL     1      -5.170  -2.938   0.038  0.00  0.00    -0.079 Cl
ATOM     12 CL   UNL     1       0.269  -3.006  -0.018  0.00  0.00    -0.079 Cl
ATOM     13  N   UNL     1      -2.425  -0.026   0.031  0.00  0.00    -0.339 N 
ATOM     14  H   UNL     1      -2.417   1.001   0.045  0.00  0.00    +0.167 HD
BRANCH   7  15
ATOM     15  N   UNL     1      -2.469  -4.245   0.004  0.00  0.00    -0.356 N 
ATOM     16  H   UNL     1      -1.635  -4.742  -0.007  0.00  0.00    +0.142 HD
ATOM     17  H   UNL     1      -3.315  -4.719   0.010  0.00  0.00    +0.142 HD
ENDBRANCH   7  15
ENDBRANCH   2   5
BRANCH   1  19
ATOM     18  C   UNL     1       1.170   3.360   0.009  0.00  0.00    +0.134 C 
ATOM     19  N   UNL     1       1.187   2.061   0.002  0.00  0.00    -0.188 NA
BRANCH  18  25
ATOM     20  C   UNL     1       3.530   5.370  -2.310  0.00  0.00    +0.012 C 
ATOM     21  C   UNL     1       3.457   6.181  -1.015  0.00  0.00    -0.025 C 
ATOM     22  C   UNL     1       4.534   5.800   0.021  0.00  0.00    -0.000 C 
ATOM     23  C   UNL     1       4.893   4.312  -0.083  0.00  0.00    +0.031 C 
ATOM     24  C   UNL     1       3.612   3.488  -0.008  0.00  0.00    -0.021 C 
ATOM     25  C   UNL     1       2.430   4.111   0.001  0.00  0.00    -0.028 C 
ATOM     26  C   UNL     1       2.447   5.630   0.009  0.00  0.00    +0.026 C 
ATOM     27  C   UNL     1       3.443   6.106   1.096  0.00  0.00    +0.013 C 
ATOM     28  C   UNL     1       3.335   7.688  -1.255  0.00  0.00    +0.012 C 
ENDBRANCH  18  25
ENDBRANCH   1  19
TORSDOF 4
