REMARK  Name = ZINC21028659
REMARK  4 active torsions:
REMARK  status: ('A' for Active; 'I' for Inactive)
REMARK    1  A    between atoms: C_4  and  C_7
REMARK    2  A    between atoms: C_7  and  C_9
REMARK    3  A    between atoms: C_7  and  O_12
REMARK    4  A    between atoms: O_12  and  C_13
REMARK                            x       y       z     vdW  Elec       q    Type
REMARK                         _______ _______ _______ _____ _____    ______ ____
ROOT
ATOM      1  O   UNL     1      -1.012  -2.176   0.000  0.00  0.00    -0.473 OA
ENDROOT
BRANCH   1   2
ATOM      2  C   UNL     1      -1.006  -2.796  -1.210  0.00  0.00    +0.126 A 
ATOM      3  C   UNL     1      -1.169  -2.041  -2.364  0.00  0.00    +0.047 A 
ATOM      4  C   UNL     1      -1.156  -2.678  -3.593  0.00  0.00    +0.022 A 
ATOM      5  C   UNL     1      -0.995  -4.040  -3.649  0.00  0.00    +0.061 A 
ATOM      6  C   UNL     1      -0.835  -4.832  -2.503  0.00  0.00    +0.150 A 
ATOM      7  C   UNL     1      -0.845  -4.165  -1.271  0.00  0.00    +0.093 A 
ATOM      8  O   UNL     1      -0.689  -6.152  -2.734  0.00  0.00    -0.416 OA
ATOM      9  C   UNL     1      -0.700  -6.649  -3.982  0.00  0.00    +0.379 A 
ATOM     10  O   UNL     1      -0.582  -7.806  -4.338  0.00  0.00    -0.237 OA
ATOM     11  S   UNL     1      -0.926  -5.234  -4.962  0.00  0.00    -0.004 S 
ENDBRANCH   1   2
BRANCH   1  12
ATOM     12  C   UNL     1      -1.301  -0.777   0.011  0.00  0.00    +0.316 C 
BRANCH  12  16
ATOM     13  C   UNL     1      -2.855   0.326   3.834  0.00  0.00    +0.000 A 
ATOM     14  C   UNL     1      -3.396   0.871   2.685  0.00  0.00    +0.000 A 
ATOM     15  C   UNL     1      -2.893   0.514   1.448  0.00  0.00    +0.008 A 
ATOM     16  C   UNL     1      -1.849  -0.388   1.360  0.00  0.00    +0.004 A 
ATOM     17  C   UNL     1      -1.312  -0.937   2.509  0.00  0.00    +0.008 A 
ATOM     18  C   UNL     1      -1.812  -0.577   3.746  0.00  0.00    +0.000 A 
ENDBRANCH  12  16
BRANCH  12  19
ATOM     19  C   UNL     1      -0.038  -0.001  -0.261  0.00  0.00    +0.400 C 
ATOM     20  O   UNL     1       1.003  -0.587  -0.445  0.00  0.00    -0.242 OA
ATOM     21  O   UNL     1      -0.069   1.340  -0.298  0.00  0.00    -0.242 OA
ENDBRANCH  12  19
ENDBRANCH   1  12
TORSDOF 4
