REMARK  Name = ZINC55396461
REMARK  8 active torsions:
REMARK  status: ('A' for Active; 'I' for Inactive)
REMARK    1  A    between atoms: C_1  and  C_2
REMARK    2  A    between atoms: C_5  and  N_12
REMARK    3  A    between atoms: N_9  and  C_11
REMARK    4  A    between atoms: C_13  and  C_15
REMARK    5  A    between atoms: C_16  and  C_17
REMARK    6  A    between atoms: C_20  and  O_23
REMARK    7  A    between atoms: O_23  and  C_24
REMARK    8  A    between atoms: C_24  and  C_25
REMARK                            x       y       z     vdW  Elec       q    Type
REMARK                         _______ _______ _______ _____ _____    ______ ____
ROOT
ATOM      1  N   UNL     1      -0.001  -1.521  -4.800  0.00  0.00    -0.281 N 
ATOM      2  C   UNL     1       0.111  -2.582  -5.624  0.00  0.00    +0.241 C 
ATOM      3  O   UNL     1       0.129  -3.709  -5.165  0.00  0.00    -0.270 OA
ATOM      4  H   UNL     1      -0.092  -0.628  -5.169  0.00  0.00    +0.155 HD
ENDROOT
BRANCH   1   9
ATOM      5  C   UNL     1       2.323  -4.912  -0.878  0.00  0.00    +0.068 C 
ATOM      6  C   UNL     1       1.391  -3.783  -0.521  0.00  0.00    +0.069 A 
ATOM      7  C   UNL     1       0.750  -2.866  -1.458  0.00  0.00    +0.043 A 
ATOM      8  C   UNL     1       0.770  -2.724  -2.851  0.00  0.00    +0.038 A 
ATOM      9  C   UNL     1       0.015  -1.707  -3.412  0.00  0.00    +0.053 A 
ATOM     10  C   UNL     1      -0.730  -0.870  -2.581  0.00  0.00    +0.136 A 
ATOM     11  N   UNL     1      -0.732  -1.024  -1.276  0.00  0.00    -0.234 NA
ATOM     12  C   UNL     1      -0.027  -1.982  -0.685  0.00  0.00    +0.158 A 
ATOM     13  N   UNL     1       0.145  -2.353   0.622  0.00  0.00    -0.249 N 
ATOM     14  N   UNL     1       1.007  -3.453   0.679  0.00  0.00    -0.174 NA
ATOM     15  C   UNL     1      -0.481  -1.705   1.778  0.00  0.00    +0.174 C 
ENDBRANCH   1   9
BRANCH   2  16
ATOM     16  C   UNL     1       0.211  -2.378  -7.069  0.00  0.00    +0.068 C 
ATOM     17  C   UNL     1       0.324  -3.441  -7.894  0.00  0.00    +0.013 C 
BRANCH  17  18
ATOM     18  C   UNL     1       0.424  -3.237  -9.346  0.00  0.00    -0.025 A 
ATOM     19  C   UNL     1       0.409  -1.941  -9.875  0.00  0.00    +0.011 A 
ATOM     20  C   UNL     1       0.504  -1.755 -11.236  0.00  0.00    +0.046 A 
ATOM     21  C   UNL     1       0.614  -2.851 -12.084  0.00  0.00    +0.121 A 
ATOM     22  C   UNL     1       0.628  -4.140 -11.563  0.00  0.00    +0.046 A 
ATOM     23  C   UNL     1       0.541  -4.337 -10.203  0.00  0.00    +0.011 A 
BRANCH  21  24
ATOM     24  O   UNL     1       0.706  -2.663 -13.425  0.00  0.00    -0.483 OA
BRANCH  24  25
ATOM     25  C   UNL     1       0.817  -3.832 -14.239  0.00  0.00    +0.324 C 
BRANCH  25  26
ATOM     26  C   UNL     1       0.908  -3.429 -15.688  0.00  0.00    +0.248 C 
ATOM     27  O   UNL     1       0.882  -2.256 -15.994  0.00  0.00    -0.272 OA
ATOM     28  N   UNL     1       1.020  -4.373 -16.644  0.00  0.00    -0.327 N 
ATOM     29  H   UNL     1       1.041  -5.311 -16.399  0.00  0.00    +0.145 HD
ATOM     30  H   UNL     1       1.079  -4.113 -17.577  0.00  0.00    +0.145 HD
ENDBRANCH  25  26
ENDBRANCH  24  25
ENDBRANCH  21  24
ENDBRANCH  17  18
ENDBRANCH   2  16
TORSDOF 6
