REMARK  Name = ZINC44863472
REMARK  7 active torsions:
REMARK  status: ('A' for Active; 'I' for Inactive)
REMARK    1  A    between atoms: C_1  and  C_2
REMARK    2  A    between atoms: C_2  and  C_3
REMARK    3  A    between atoms: C_2  and  C_4
REMARK    4  A    between atoms: C_4  and  C_6
REMARK    5  A    between atoms: C_4  and  C_10
REMARK    6  A    between atoms: N_7  and  O_8
REMARK    7  A    between atoms: N_12  and  C_13
REMARK                            x       y       z     vdW  Elec       q    Type
REMARK                         _______ _______ _______ _____ _____    ______ ____
ROOT
ATOM      1  C   UNL     1      -2.118  -1.667   0.750  0.00  0.00    +0.228 C 
ATOM      2  O   UNL     1      -3.133  -2.134   0.279  0.00  0.00    -0.275 OA
ATOM      3  N   UNL     1      -1.231  -2.470   1.371  0.00  0.00    -0.285 N 
ATOM      4  H   UNL     1      -0.387  -2.111   1.683  0.00  0.00    +0.155 HD
ENDROOT
BRANCH   3   5
ATOM      5  C   UNL     1      -1.530  -3.824   1.564  0.00  0.00    +0.034 A 
ATOM      6  C   UNL     1      -2.236  -4.526   0.596  0.00  0.00    +0.023 A 
ATOM      7  C   UNL     1      -2.527  -5.861   0.792  0.00  0.00    +0.006 A 
ATOM      8  C   UNL     1      -2.118  -6.503   1.949  0.00  0.00    -0.044 A 
ATOM      9  C   UNL     1      -1.415  -5.806   2.914  0.00  0.00    -0.042 A 
ATOM     10  C   UNL     1      -1.116  -4.469   2.720  0.00  0.00    +0.027 A 
ATOM     11  C   UNL     1      -1.087  -6.725   4.072  0.00  0.00    +0.036 C 
ATOM     12  C   UNL     1      -2.037  -7.931   3.912  0.00  0.00    +0.009 C 
ATOM     13  C   UNL     1      -2.311  -7.938   2.393  0.00  0.00    +0.036 C 
ENDBRANCH   3   5
BRANCH   1  14
ATOM     14  C   UNL     1      -1.847  -0.188   0.641  0.00  0.00    +0.144 C 
BRANCH  14  15
ATOM     15  C   UNL     1      -3.147   0.568   0.729  0.00  0.00    +0.144 C 
ATOM     16  N   UNL     1      -3.766   0.916  -0.351  0.00  0.00    -0.076 NA
ATOM     17  N   UNL     1      -3.675   0.890   1.959  0.00  0.00    -0.343 N 
ATOM     18  H   UNL     1      -3.210   0.629   2.770  0.00  0.00    +0.144 HD
ATOM     19  H   UNL     1      -4.512   1.377   2.016  0.00  0.00    +0.144 HD
BRANCH  16  20
ATOM     20  O   UNL     1      -4.988   1.627  -0.268  0.00  0.00    -0.408 OA
ATOM     21  H   UNL     1      -5.376   1.842  -1.127  0.00  0.00    +0.328 HD
ENDBRANCH  16  20
ENDBRANCH  14  15
BRANCH  14  23
ATOM     22  C   UNL     1      -0.936   1.615  -0.829  0.00  0.00    +0.008 C 
ATOM     23  C   UNL     1      -1.173   0.109  -0.700  0.00  0.00    +0.002 C 
ATOM     24  C   UNL     1       0.168  -0.625  -0.771  0.00  0.00    +0.008 C 
ENDBRANCH  14  23
ENDBRANCH   1  14
TORSDOF 5
