REMARK  Name = ZINC63646899
REMARK  8 active torsions:
REMARK  status: ('A' for Active; 'I' for Inactive)
REMARK    1  A    between atoms: C_1  and  C_2
REMARK    2  A    between atoms: C_2  and  C_3
REMARK    3  A    between atoms: C_3  and  C_4
REMARK    4  A    between atoms: C_3  and  C_6
REMARK    5  A    between atoms: C_4  and  C_5
REMARK    6  A    between atoms: C_13  and  C_17
REMARK    7  A    between atoms: C_17  and  S_18
REMARK    8  A    between atoms: S_18  and  C_19
REMARK                            x       y       z     vdW  Elec       q    Type
REMARK                         _______ _______ _______ _____ _____    ______ ____
ROOT
ATOM      1  C   UNL     1      -1.399  -2.007   0.429  0.00  0.00    +0.156 C 
ATOM      2  N   UNL     1      -2.776  -2.533   0.615  0.00  0.00    -0.266 N 
ATOM      3  N   UNL     1      -2.897  -3.520   1.554  0.00  0.00    -0.206 N 
ATOM      4  C   UNL     1      -3.906  -4.442   1.597  0.00  0.00    +0.272 A 
ATOM      5  O   UNL     1      -4.758  -4.456   0.724  0.00  0.00    -0.266 OA
ATOM      6  C   UNL     1      -3.962  -5.370   2.643  0.00  0.00    +0.096 A 
ATOM      7  C   UNL     1      -2.998  -5.359   3.610  0.00  0.00    +0.060 A 
ATOM      8  N   UNL     1      -2.010  -4.470   3.525  0.00  0.00    -0.226 NA
ATOM      9  C   UNL     1      -1.950  -3.610   2.541  0.00  0.00    +0.191 A 
ATOM     10  S   UNL     1      -0.744  -2.363   2.116  0.00  0.00    -0.062 S 
ATOM     11  H   UNL     1      -3.429  -1.784   0.793  0.00  0.00    +0.168 HD
ENDROOT
BRANCH   1  12
ATOM     12  C   UNL     1      -1.405  -0.506   0.131  0.00  0.00    +0.021 C 
BRANCH  12  14
ATOM     13  C   UNL     1       0.039   1.503  -0.216  0.00  0.00    +0.004 C 
ATOM     14  C   UNL     1       0.033  -0.018  -0.057  0.00  0.00    +0.003 C 
ENDBRANCH  12  14
BRANCH  12  15
ATOM     15  C   UNL     1      -2.204  -0.242  -1.147  0.00  0.00    +0.003 C 
ATOM     16  C   UNL     1      -1.589  -1.031  -2.305  0.00  0.00    +0.004 C 
ENDBRANCH  12  15
ENDBRANCH   1  12
BRANCH   7  17
ATOM     17  C   UNL     1      -3.052  -6.337   4.755  0.00  0.00    +0.133 C 
BRANCH  17  18
ATOM     18  S   UNL     1      -1.809  -7.634   4.503  0.00  0.00    -0.078 S 
BRANCH  18  19
ATOM     19  C   UNL     1      -1.996  -8.683   5.905  0.00  0.00    +0.210 A 
ATOM     20  H   UNL     1      -3.160  -9.716   8.608  0.00  0.00    +0.192 HD
ATOM     21  N   UNL     1      -1.280  -9.787   6.152  0.00  0.00    -0.188 NA
ATOM     22  C   UNL     1      -1.678 -10.328   7.283  0.00  0.00    +0.209 A 
ATOM     23  N   UNL     1      -2.671  -9.565   7.785  0.00  0.00    -0.246 N 
ATOM     24  N   UNL     1      -2.855  -8.506   6.880  0.00  0.00    -0.144 NA
ATOM     25  N   UNL     1      -1.168 -11.479   7.857  0.00  0.00    -0.328 N 
ATOM     26  H   UNL     1      -0.450 -11.962   7.420  0.00  0.00    +0.145 HD
ATOM     27  H   UNL     1      -1.529 -11.802   8.698  0.00  0.00    +0.145 HD
ENDBRANCH  18  19
ENDBRANCH  17  18
ENDBRANCH   7  17
TORSDOF 6
