REMARK  Name = ZINC58869351
REMARK  7 active torsions:
REMARK  status: ('A' for Active; 'I' for Inactive)
REMARK    1  A    between atoms: C_1  and  C_2
REMARK    2  A    between atoms: C_2  and  C_25
REMARK    3  A    between atoms: C_6  and  C_24
REMARK    4  A    between atoms: N_8  and  N_9
REMARK    5  A    between atoms: C_10  and  C_12
REMARK    6  A    between atoms: C_12  and  N_13
REMARK    7  A    between atoms: C_15  and  N_20
REMARK                            x       y       z     vdW  Elec       q    Type
REMARK                         _______ _______ _______ _____ _____    ______ ____
ROOT
ATOM      1  N   UNL     1      -0.779  -2.714   2.529  0.00  0.00    -0.206 N 
ATOM      2  C   UNL     1      -1.317  -3.777   3.159  0.00  0.00    +0.252 C 
ATOM      3  O   UNL     1      -1.471  -4.822   2.562  0.00  0.00    -0.272 OA
ATOM      4  H   UNL     1      -0.656  -1.879   3.006  0.00  0.00    +0.177 HD
ENDROOT
BRANCH   1  12
ATOM      5  C   UNL     1       0.301   1.950   0.012  0.00  0.00    +0.012 C 
ATOM      6  C   UNL     1      -0.017   0.467  -0.187  0.00  0.00    -0.021 C 
ATOM      7  C   UNL     1       1.080  -0.263  -1.041  0.00  0.00    +0.001 C 
ATOM      8  C   UNL     1       2.325  -0.090  -0.117  0.00  0.00    +0.005 C 
ATOM      9  C   UNL     1       1.754  -0.166   1.317  0.00  0.00    +0.013 C 
ATOM     10  C   UNL     1       0.221  -0.368   1.120  0.00  0.00    +0.013 C 
ATOM     11  C   UNL     1       0.087  -1.798   0.578  0.00  0.00    +0.044 C 
ATOM     12  N   UNL     1      -0.397  -2.816   1.185  0.00  0.00    -0.189 NA
ATOM     13  C   UNL     1       0.650  -1.747  -0.835  0.00  0.00    +0.057 C 
ATOM     14  C   UNL     1      -0.659  -0.009   2.319  0.00  0.00    +0.018 C 
ATOM     15  C   UNL     1      -1.423   0.259  -0.754  0.00  0.00    +0.012 C 
ENDBRANCH   1  12
BRANCH   2  16
ATOM     16  C   UNL     1      -1.728  -3.668   4.605  0.00  0.00    +0.222 C 
BRANCH  16  17
ATOM     17  N   UNL     1      -2.280  -4.948   5.054  0.00  0.00    -0.304 N 
ATOM     18  C   UNL     1      -3.610  -5.188   4.922  0.00  0.00    +0.122 A 
ATOM     19  C   UNL     1      -4.144  -6.363   5.330  0.00  0.00    +0.142 A 
ATOM     20  C   UNL     1      -3.321  -7.347   5.895  0.00  0.00    +0.039 A 
ATOM     21  C   UNL     1      -1.985  -7.104   6.026  0.00  0.00    +0.072 A 
ATOM     22  C   UNL     1      -1.463  -5.875   5.588  0.00  0.00    +0.252 A 
ATOM     23  O   UNL     1      -0.269  -5.647   5.695  0.00  0.00    -0.268 OA
BRANCH  19  24
ATOM     24  N   UNL     1      -5.596  -6.609   5.179  0.00  0.00    +0.058 N 
ATOM     25  O   UNL     1      -6.305  -5.760   4.692  0.00  0.00    -0.126 OA
ATOM     26  O   UNL     1      -6.072  -7.658   5.544  0.00  0.00    -0.126 OA
ENDBRANCH  19  24
ENDBRANCH  16  17
ENDBRANCH   2  16
TORSDOF 4
