REMARK  Name = ZINC20477758
REMARK  12 active torsions:
REMARK  status: ('A' for Active; 'I' for Inactive)
REMARK    1  A    between atoms: C_1  and  C_2
REMARK    2  A    between atoms: C_2  and  O_3
REMARK    3  A    between atoms: O_3  and  C_4
REMARK    4  A    between atoms: C_7  and  C_11
REMARK    5  A    between atoms: C_11  and  N_12
REMARK    6  A    between atoms: N_12  and  C_13
REMARK    7  A    between atoms: C_13  and  C_14
REMARK    8  A    between atoms: C_14  and  N_15
REMARK    9  A    between atoms: N_15  and  C_16
REMARK   10  A    between atoms: C_16  and  C_17
REMARK   11  A    between atoms: C_17  and  C_19
REMARK   12  A    between atoms: C_17  and  O_20
REMARK                            x       y       z     vdW  Elec       q    Type
REMARK                         _______ _______ _______ _____ _____    ______ ____
ROOT
ATOM      1  C   UNL     1       6.427   0.799   3.471  0.00  0.00    -0.047 C 
ENDROOT
BRANCH   1   5
ATOM      2  C   UNL     1      10.437   2.278   3.441  0.00  0.00    +0.148 A 
ATOM      3  C   UNL     1       9.451   2.957   4.143  0.00  0.00    +0.061 A 
ATOM      4  C   UNL     1       8.155   2.477   4.151  0.00  0.00    +0.020 A 
ATOM      5  C   UNL     1       7.841   1.321   3.460  0.00  0.00    -0.062 A 
ATOM      6  C   UNL     1       8.822   0.639   2.764  0.00  0.00    +0.020 A 
ATOM      7  C   UNL     1      10.119   1.118   2.749  0.00  0.00    +0.061 A 
ATOM      8 BR   UNL     1      11.459   0.190   1.791  0.00  0.00    -0.046 Br
ATOM      9 BR   UNL     1       9.880   4.538   5.087  0.00  0.00    -0.046 Br
BRANCH   2  10
ATOM     10  O   UNL     1      11.713   2.749   3.432  0.00  0.00    -0.490 OA
BRANCH  10  12
ATOM     11  C   UNL     1      13.966   2.917   4.290  0.00  0.00    +0.048 C 
ATOM     12  C   UNL     1      12.584   2.283   4.464  0.00  0.00    +0.226 C 
ENDBRANCH  10  12
ENDBRANCH   2  10
ENDBRANCH   1   5
BRANCH   1  13
ATOM     13  N   UNL     1       5.682   1.381   2.346  0.00  0.00    +0.383 N 
ATOM     14  H   UNL     1       5.669   2.477   2.443  0.00  0.00    -0.085 HD
ATOM     15  H   UNL     1       6.168   1.102   1.400  0.00  0.00    -0.085 HD
BRANCH  13  16
ATOM     16  C   UNL     1       4.296   0.894   2.325  0.00  0.00    -0.067 C 
BRANCH  16  17
ATOM     17  C   UNL     1       3.554   1.520   1.143  0.00  0.00    +0.062 C 
BRANCH  17  18
ATOM     18  N   UNL     1       2.168   1.034   1.121  0.00  0.00    -0.315 NA
ATOM     19  H   UNL     1       2.166  -0.061   1.017  0.00  0.00    +0.122 HD
BRANCH  18  20
ATOM     20  C   UNL     1       1.423   1.615  -0.003  0.00  0.00    +0.111 C 
BRANCH  20  21
ATOM     21  C   UNL     1      -0.013   1.086   0.008  0.00  0.00    +0.125 C 
ATOM     22  C   UNL     1      -0.753   1.593  -1.232  0.00  0.00    +0.039 C 
BRANCH  21  23
ATOM     23  O   UNL     1      -0.682   1.547   1.184  0.00  0.00    -0.391 OA
ATOM     24  H   UNL     1      -1.729   1.266   1.366  0.00  0.00    +0.210 HD
ENDBRANCH  21  23
ENDBRANCH  20  21
ENDBRANCH  18  20
ENDBRANCH  17  18
ENDBRANCH  16  17
ENDBRANCH  13  16
ENDBRANCH   1  13
TORSDOF 10
