REMARK  Name = ZINC42864558
REMARK  4 active torsions:
REMARK  status: ('A' for Active; 'I' for Inactive)
REMARK    1  A    between atoms: C_1  and  C_2
REMARK    2  A    between atoms: C_8  and  C_10
REMARK    3  A    between atoms: C_10  and  N_11
REMARK    4  A    between atoms: C_12  and  N_20
REMARK                            x       y       z     vdW  Elec       q    Type
REMARK                         _______ _______ _______ _____ _____    ______ ____
ROOT
ATOM      1  N   UNL     1       2.921  -0.562   2.352  0.00  0.00    -0.282 N 
ATOM      2  C   UNL     1       2.931   0.077   3.568  0.00  0.00    +0.105 A 
ATOM      3  C   UNL     1       3.627  -0.471   4.609  0.00  0.00    +0.111 A 
ATOM      4  C   UNL     1       4.316  -1.678   4.407  0.00  0.00    +0.256 A 
ATOM      5  O   UNL     1       4.943  -2.186   5.321  0.00  0.00    -0.268 OA
ATOM      6  N   UNL     1       4.279  -2.272   3.198  0.00  0.00    -0.275 N 
ATOM      7  H   UNL     1       4.754  -3.105   3.057  0.00  0.00    +0.173 HD
ATOM      8  C   UNL     1       3.584  -1.720   2.186  0.00  0.00    +0.331 A 
ATOM      9  O   UNL     1       3.560  -2.275   1.105  0.00  0.00    -0.246 OA
ENDROOT
BRANCH   2  10
ATOM     10  N   UNL     1       2.249   1.256   3.736  0.00  0.00    -0.344 N 
ATOM     11  H   UNL     1       1.757   1.641   2.995  0.00  0.00    +0.144 HD
ATOM     12  H   UNL     1       2.260   1.703   4.597  0.00  0.00    +0.144 HD
ENDBRANCH   2  10
BRANCH   1  13
ATOM     13  C   UNL     1       2.178   0.019   1.231  0.00  0.00    +0.132 C 
BRANCH  13  20
ATOM     14  C   UNL     1      -0.019   1.526   0.010  0.00  0.00    +0.008 C 
ATOM     15  C   UNL     1       0.002  -0.004   0.002  0.00  0.00    -0.009 C 
ATOM     16  C   UNL     1      -1.433  -0.534   0.013  0.00  0.00    +0.003 C 
ATOM     17  C   UNL     1      -2.149  -0.040   1.272  0.00  0.00    +0.000 C 
ATOM     18  C   UNL     1      -1.409  -0.547   2.511  0.00  0.00    +0.000 C 
ATOM     19  C   UNL     1       0.026  -0.018   2.500  0.00  0.00    +0.005 C 
ATOM     20  C   UNL     1       0.742  -0.511   1.242  0.00  0.00    +0.012 C 
ENDBRANCH  13  20
ENDBRANCH   1  13
TORSDOF 3
