REMARK  Name = ZINC24750766
REMARK  11 active torsions:
REMARK  status: ('A' for Active; 'I' for Inactive)
REMARK    1  A    between atoms: C_1  and  C_2
REMARK    2  A    between atoms: C_5  and  N_9
REMARK    3  A    between atoms: C_6  and  C_8
REMARK    4  A    between atoms: C_13  and  C_15
REMARK    5  A    between atoms: C_15  and  O_16
REMARK    6  A    between atoms: O_16  and  C_17
REMARK    7  A    between atoms: C_17  and  C_19
REMARK    8  A    between atoms: C_19  and  C_21
REMARK    9  A    between atoms: C_22  and  C_28
REMARK   10  A    between atoms: N_24  and  C_27
REMARK   11  A    between atoms: C_25  and  C_26
REMARK                            x       y       z     vdW  Elec       q    Type
REMARK                         _______ _______ _______ _____ _____    ______ ____
ROOT
ATOM      1  N   UNL     1       8.334  -7.081  -0.860  0.00  0.00    -0.269 N 
ATOM      2  C   UNL     1       7.056  -6.674  -0.731  0.00  0.00    +0.310 C 
ATOM      3  O   UNL     1       6.156  -7.490  -0.719  0.00  0.00    -0.252 OA
ATOM      4  N   UNL     1       6.776  -5.360  -0.616  0.00  0.00    -0.237 N 
ATOM      5  C   UNL     1       5.497  -4.953  -0.487  0.00  0.00    +0.258 C 
ATOM      6  O   UNL     1       4.600  -5.768  -0.475  0.00  0.00    -0.272 OA
ATOM      7  H   UNL     1       9.140  -6.339  -0.964  0.00  0.00    +0.156 HD
ATOM      8  H   UNL     1       7.590  -4.621  -0.626  0.00  0.00    +0.159 HD
ENDROOT
BRANCH   1  13
ATOM      9  C   UNL     1       9.558 -12.621  -0.867  0.00  0.00    +0.044 C 
ATOM     10  C   UNL     1       9.233 -11.149  -0.865  0.00  0.00    -0.050 A 
ATOM     11  C   UNL     1       8.083 -10.697  -0.244  0.00  0.00    +0.005 A 
ATOM     12  C   UNL     1       7.782  -9.350  -0.241  0.00  0.00    +0.024 A 
ATOM     13  C   UNL     1       8.636  -8.447  -0.861  0.00  0.00    +0.038 A 
ATOM     14  C   UNL     1       9.788  -8.905  -1.488  0.00  0.00    -0.029 A 
ATOM     15  C   UNL     1      10.086 -10.253  -1.483  0.00  0.00    +0.008 A 
ATOM     16  C   UNL     1      10.715  -7.930  -2.167  0.00  0.00    +0.045 C 
ENDBRANCH   1  13
BRANCH   5  17
ATOM     17  C   UNL     1       5.184  -3.485  -0.358  0.00  0.00    +0.328 C 
BRANCH  17  18
ATOM     18  O   UNL     1       3.748  -3.305  -0.234  0.00  0.00    -0.449 OA
BRANCH  18  19
ATOM     19  C   UNL     1       3.299  -2.043  -0.108  0.00  0.00    +0.381 C 
ATOM     20  O   UNL     1       4.083  -1.118  -0.104  0.00  0.00    -0.241 OA
BRANCH  19  21
ATOM     21  C   UNL     1       1.835  -1.782   0.024  0.00  0.00    +0.273 C 
ATOM     22  O   UNL     1       1.058  -2.711   0.111  0.00  0.00    -0.280 OA
BRANCH  21  23
ATOM     23  C   UNL     1       1.335  -0.401   0.050  0.00  0.00    +0.072 A 
ATOM     24  C   UNL     1       1.061   0.374   1.202  0.00  0.00    +0.071 A 
ATOM     25  N   UNL     1       0.635   1.542   0.810  0.00  0.00    -0.176 NA
ATOM     26  N   UNL     1       0.615   1.575  -0.588  0.00  0.00    -0.271 N 
ATOM     27  C   UNL     1       1.042   0.391  -1.050  0.00  0.00    +0.047 A 
ATOM     28  C   UNL     1       1.177  -0.007  -2.498  0.00  0.00    +0.066 C 
ATOM     29  C   UNL     1       0.203   2.716  -1.410  0.00  0.00    +0.172 C 
ATOM     30  C   UNL     1       1.231  -0.073   2.631  0.00  0.00    +0.068 C 
ENDBRANCH  21  23
ENDBRANCH  19  21
ENDBRANCH  18  19
ENDBRANCH  17  18
ENDBRANCH   5  17
TORSDOF 6
