REMARK  Name = ZINC12850468
REMARK  7 active torsions:
REMARK  status: ('A' for Active; 'I' for Inactive)
REMARK    1  A    between atoms: C_1  and  C_2
REMARK    2  A    between atoms: C_2  and  C_4
REMARK    3  A    between atoms: C_2  and  O_35
REMARK    4  A    between atoms: C_8  and  N_10
REMARK    5  A    between atoms: C_11  and  C_13
REMARK    6  A    between atoms: C_17  and  C_28
REMARK    7  A    between atoms: C_20  and  C_24
REMARK                            x       y       z     vdW  Elec       q    Type
REMARK                         _______ _______ _______ _____ _____    ______ ____
ROOT
ATOM      1  C   UNL     1      -0.144  -2.982   6.727  0.00  0.00    +0.110 C 
ATOM      2  C   UNL     1      -1.496  -3.034   6.814  0.00  0.00    +0.072 C 
ATOM      3  C   UNL     1      -1.825  -3.683   8.081  0.00  0.00    +0.114 C 
ATOM      4  N   UNL     1      -2.986  -3.948   8.608  0.00  0.00    -0.365 N 
ATOM      5  C   UNL     1      -3.042  -4.583   9.931  0.00  0.00    +0.113 C 
ATOM      6  C   UNL     1      -1.841  -5.509  10.133  0.00  0.00    +0.062 C 
ATOM      7  C   UNL     1      -0.538  -4.712   9.971  0.00  0.00    +0.201 C 
ATOM      8  N   UNL     1      -0.616  -4.008   8.686  0.00  0.00    -0.226 N 
ATOM      9  N   UNL     1       0.408  -3.563   7.858  0.00  0.00    -0.258 N 
ATOM     10  H   UNL     1       1.356  -3.644   8.043  0.00  0.00    +0.170 HD
ATOM     11  H   UNL     1      -3.803  -3.728   8.134  0.00  0.00    +0.161 HD
ENDROOT
BRANCH   5  12
ATOM     12  C   UNL     1      -3.030  -3.517  10.995  0.00  0.00    -0.025 A 
ATOM     13  C   UNL     1      -2.221  -2.405  10.851  0.00  0.00    +0.007 A 
ATOM     14  C   UNL     1      -2.210  -1.426  11.827  0.00  0.00    +0.020 A 
ATOM     15  C   UNL     1      -3.009  -1.559  12.948  0.00  0.00    +0.041 A 
ATOM     16  C   UNL     1      -3.818  -2.672  13.093  0.00  0.00    +0.020 A 
ATOM     17  C   UNL     1      -3.833  -3.647  12.113  0.00  0.00    +0.007 A 
ATOM     18 CL   UNL     1      -2.995  -0.331  14.175  0.00  0.00    -0.084 Cl
ENDBRANCH   5  12
BRANCH   1  20
ATOM     19  N   UNL     1      -0.029  -1.862   4.553  0.00  0.00    -0.280 N 
ATOM     20  C   UNL     1       0.621  -2.402   5.603  0.00  0.00    +0.264 C 
ATOM     21  O   UNL     1       1.837  -2.412   5.625  0.00  0.00    -0.268 OA
ATOM     22  H   UNL     1      -0.996  -1.785   4.569  0.00  0.00    +0.155 HD
BRANCH  19  27
ATOM     23  C   UNL     1       0.954   0.124   1.620  0.00  0.00    -0.018 A 
ATOM     24  C   UNL     1       2.112  -0.529   1.238  0.00  0.00    +0.006 A 
ATOM     25  C   UNL     1       2.560  -1.624   1.954  0.00  0.00    +0.002 A 
ATOM     26  C   UNL     1       1.853  -2.069   3.054  0.00  0.00    +0.023 A 
ATOM     27  C   UNL     1       0.690  -1.415   3.440  0.00  0.00    +0.034 A 
ATOM     28  C   UNL     1       0.245  -0.312   2.722  0.00  0.00    +0.029 A 
BRANCH  23  30
ATOM     29  C   UNL     1       1.267   2.556   1.250  0.00  0.00    +0.043 C 
ATOM     30  C   UNL     1       0.470   1.317   0.837  0.00  0.00    +0.141 C 
BRANCH  30  31
ATOM     31  O   UNL     1       0.653   1.077  -0.559  0.00  0.00    -0.387 OA
ATOM     32  H   UNL     1       1.573   0.922  -0.815  0.00  0.00    +0.210 HD
ENDBRANCH  30  31
ENDBRANCH  23  30
ENDBRANCH  19  27
ENDBRANCH   1  20
BRANCH   7  33
ATOM     33  C   UNL     1       0.659  -5.664   9.973  0.00  0.00    +0.410 C 
ATOM     34  F   UNL     1       0.537  -6.569   8.913  0.00  0.00    -0.169 F 
ATOM     35  F   UNL     1       1.840  -4.929   9.825  0.00  0.00    -0.169 F 
ATOM     36  F   UNL     1       0.695  -6.366  11.183  0.00  0.00    -0.169 F 
ENDBRANCH   7  33
TORSDOF 6
