REMARK  Name = ZINC08740244
REMARK  11 active torsions:
REMARK  status: ('A' for Active; 'I' for Inactive)
REMARK    1  A    between atoms: C_1  and  C_2
REMARK    2  A    between atoms: C_3  and  C_32
REMARK    3  A    between atoms: C_4  and  C_8
REMARK    4  A    between atoms: C_11  and  O_15
REMARK    5  A    between atoms: C_13  and  O_14
REMARK    6  A    between atoms: O_15  and  C_16
REMARK    7  A    between atoms: C_18  and  O_31
REMARK    8  A    between atoms: C_20  and  O_30
REMARK    9  A    between atoms: C_22  and  O_29
REMARK   10  A    between atoms: C_24  and  C_27
REMARK   11  A    between atoms: C_27  and  O_28
REMARK                            x       y       z     vdW  Elec       q    Type
REMARK                         _______ _______ _______ _____ _____    ______ ____
ROOT
ATOM      1  C   UNL     1      -4.796   0.033  -2.247  0.00  0.00    +0.044 A 
ATOM      2  C   UNL     1      -3.692   0.790  -2.635  0.00  0.00    +0.017 A 
ATOM      3  C   UNL     1      -3.735   1.520  -3.804  0.00  0.00    +0.046 A 
ATOM      4  C   UNL     1      -4.879   1.513  -4.591  0.00  0.00    +0.127 A 
ATOM      5  C   UNL     1      -5.984   0.767  -4.209  0.00  0.00    +0.091 A 
ATOM      6  C   UNL     1      -5.948   0.026  -3.039  0.00  0.00    +0.130 A 
ENDROOT
BRANCH   1  10
ATOM      7  C   UNL     1      -4.068  -1.294   2.614  0.00  0.00    +0.065 C 
ATOM      8  C   UNL     1      -4.425  -1.329   1.150  0.00  0.00    +0.041 A 
ATOM      9  C   UNL     1      -4.296  -0.298   0.268  0.00  0.00    +0.030 A 
ATOM     10  C   UNL     1      -4.751  -0.758  -0.993  0.00  0.00    +0.104 A 
ATOM     11  N   UNL     1      -5.123  -2.012  -0.855  0.00  0.00    -0.173 NA
ATOM     12  N   UNL     1      -4.930  -2.386   0.480  0.00  0.00    -0.281 N 
ATOM     13  H   UNL     1      -5.132  -3.284   0.871  0.00  0.00    +0.189 HD
BRANCH   9  14
ATOM     14  C   UNL     1      -3.780   1.059   0.574  0.00  0.00    -0.010 A 
ATOM     15  C   UNL     1      -4.631   2.161   0.509  0.00  0.00    +0.012 A 
ATOM     16  C   UNL     1      -4.148   3.422   0.788  0.00  0.00    +0.050 A 
ATOM     17  C   UNL     1      -2.817   3.599   1.143  0.00  0.00    +0.162 A 
ATOM     18  C   UNL     1      -1.964   2.502   1.211  0.00  0.00    +0.163 A 
ATOM     19  C   UNL     1      -2.444   1.235   0.926  0.00  0.00    +0.058 A 
ATOM     20  O   UNL     1      -0.657   2.657   1.557  0.00  0.00    -0.485 OA
ATOM     21  C   UNL     1      -0.121   3.982   1.470  0.00  0.00    +0.270 C 
ATOM     22  C   UNL     1      -1.120   4.948   2.122  0.00  0.00    +0.270 C 
ATOM     23  O   UNL     1      -2.361   4.853   1.414  0.00  0.00    -0.485 OA
ENDBRANCH   9  14
ENDBRANCH   1  10
BRANCH   6  24
ATOM     24  O   UNL     1      -7.030  -0.705  -2.663  0.00  0.00    -0.506 OA
ATOM     25  H   UNL     1      -7.656  -0.223  -2.106  0.00  0.00    +0.292 HD
ENDBRANCH   6  24
BRANCH   4  26
ATOM     26  O   UNL     1      -4.917   2.239  -5.739  0.00  0.00    -0.461 OA
BRANCH  26  27
ATOM     27  C   UNL     1      -3.744   2.985  -6.073  0.00  0.00    +0.339 C 
ATOM     28  C   UNL     1      -3.926   3.633  -7.448  0.00  0.00    +0.214 C 
ATOM     29  C   UNL     1      -5.101   4.614  -7.390  0.00  0.00    +0.180 C 
ATOM     30  C   UNL     1      -4.834   5.648  -6.291  0.00  0.00    +0.177 C 
ATOM     31  C   UNL     1      -4.617   4.922  -4.961  0.00  0.00    +0.179 C 
ATOM     32  O   UNL     1      -3.531   4.003  -5.093  0.00  0.00    -0.331 OA
BRANCH  30  33
ATOM     33  O   UNL     1      -3.667   6.404  -6.620  0.00  0.00    -0.386 OA
ATOM     34  H   UNL     1      -3.734   6.887  -7.455  0.00  0.00    +0.210 HD
ENDBRANCH  30  33
BRANCH  29  35
ATOM     35  O   UNL     1      -5.232   5.278  -8.649  0.00  0.00    -0.386 OA
ATOM     36  H   UNL     1      -5.396   4.682  -9.392  0.00  0.00    +0.210 HD
ENDBRANCH  29  35
BRANCH  28  37
ATOM     37  O   UNL     1      -4.197   2.621  -8.421  0.00  0.00    -0.383 OA
ATOM     38  H   UNL     1      -3.496   1.961  -8.508  0.00  0.00    +0.210 HD
ENDBRANCH  28  37
BRANCH  31  39
ATOM     39  C   UNL     1      -4.291   5.944  -3.870  0.00  0.00    +0.190 C 
BRANCH  39  40
ATOM     40  O   UNL     1      -4.203   5.280  -2.607  0.00  0.00    -0.392 OA
ATOM     41  H   UNL     1      -3.998   5.868  -1.867  0.00  0.00    +0.210 HD
ENDBRANCH  39  40
ENDBRANCH  31  39
ENDBRANCH  26  27
ENDBRANCH   4  26
TORSDOF 10
