REMARK  Name = ZINC09828926
REMARK  12 active torsions:
REMARK  status: ('A' for Active; 'I' for Inactive)
REMARK    1  A    between atoms: C_1  and  O_2
REMARK    2  A    between atoms: O_2  and  C_3
REMARK    3  A    between atoms: C_3  and  C_4
REMARK    4  A    between atoms: C_3  and  O_31
REMARK    5  A    between atoms: C_4  and  N_5
REMARK    6  A    between atoms: C_6  and  C_8
REMARK    7  A    between atoms: N_10  and  C_11
REMARK    8  A    between atoms: C_11  and  C_12
REMARK    9  A    between atoms: C_12  and  C_14
REMARK   10  A    between atoms: C_12  and  N_61
REMARK   11  A    between atoms: N_21  and  C_24
REMARK   12  A    between atoms: O_31  and  C_32
REMARK                            x       y       z     vdW  Elec       q    Type
REMARK                         _______ _______ _______ _____ _____    ______ ____
ROOT
ATOM      1  C   UNL     1       1.438  -0.825   0.633  0.00  0.00    +0.017 C 
ENDROOT
BRANCH   1   7
ATOM      2  C   UNL     1       3.057  -2.608   0.890  0.00  0.00    -0.059 C 
ATOM      3  C   UNL     1       4.319  -3.030   1.646  0.00  0.00    +0.086 C 
ATOM      4  N   UNL     1       4.027  -3.090   3.085  0.00  0.00    -0.331 N 
ATOM      5  C   UNL     1       3.576  -1.783   3.583  0.00  0.00    +0.086 C 
ATOM      6  C   UNL     1       2.314  -1.361   2.827  0.00  0.00    -0.059 C 
ATOM      7  N   UNL     1       2.627  -1.283   1.384  0.00  0.00    +0.389 N 
ATOM      8  H   UNL     1       3.389  -0.610   1.244  0.00  0.00    -0.081 HD
BRANCH   4   9
ATOM      9  C   UNL     1       5.139  -3.543   3.803  0.00  0.00    +0.065 A 
ATOM     10  C   UNL     1       5.048  -3.741   5.174  0.00  0.00    +0.026 A 
ATOM     11  C   UNL     1       6.147  -4.192   5.880  0.00  0.00    +0.002 A 
ATOM     12  C   UNL     1       7.339  -4.438   5.225  0.00  0.00    +0.003 A 
ATOM     13  C   UNL     1       7.436  -4.238   3.860  0.00  0.00    +0.040 A 
ATOM     14  C   UNL     1       6.339  -3.791   3.146  0.00  0.00    +0.144 A 
ATOM     15  F   UNL     1       6.434  -3.594   1.813  0.00  0.00    -0.204 F 
ENDBRANCH   4   9
ENDBRANCH   1   7
BRANCH   1  16
ATOM     16  C   UNL     1       0.301  -1.801   0.799  0.00  0.00    +0.093 A 
ATOM     17  C   UNL     1      -0.439  -2.322  -0.196  0.00  0.00    +0.043 A 
ATOM     18  C   UNL     1      -1.384  -3.185   0.405  0.00  0.00    +0.041 A 
ATOM     19  C   UNL     1      -1.170  -3.133   1.732  0.00  0.00    +0.195 A 
ATOM     20  O   UNL     1      -0.148  -2.293   1.965  0.00  0.00    -0.469 OA
ENDBRANCH   1  16
BRANCH   1  21
ATOM     21  C   UNL     1       1.014   0.546   1.162  0.00  0.00    +0.097 C 
BRANCH  21  24
ATOM     22  C   UNL     1       2.032   2.721   1.573  0.00  0.00    +0.299 C 
ATOM     23  O   UNL     1       0.999   3.072   2.104  0.00  0.00    -0.265 OA
ATOM     24  N   UNL     1       2.142   1.476   1.070  0.00  0.00    -0.309 N 
ATOM     25  H   UNL     1       2.968   1.195   0.646  0.00  0.00    +0.149 HD
BRANCH  22  27
ATOM     26  N   UNL     1       3.074   4.915   1.983  0.00  0.00    -0.303 N 
ATOM     27  C   UNL     1       3.183   3.670   1.479  0.00  0.00    +0.299 C 
ATOM     28  O   UNL     1       4.217   3.318   0.949  0.00  0.00    -0.265 OA
ATOM     29  H   UNL     1       2.248   5.196   2.406  0.00  0.00    +0.149 HD
BRANCH  26  30
ATOM     30  C   UNL     1       4.202   5.845   1.890  0.00  0.00    +0.165 C 
BRANCH  30  31
ATOM     31  C   UNL     1       3.818   7.179   2.533  0.00  0.00    +0.266 C 
BRANCH  31  33
ATOM     32  C   UNL     1       2.583   9.150   1.956  0.00  0.00    +0.197 C 
ATOM     33  O   UNL     1       2.690   7.729   1.850  0.00  0.00    -0.353 OA
ENDBRANCH  31  33
BRANCH  31  34
ATOM     34  O   UNL     1       3.486   6.968   3.907  0.00  0.00    -0.353 OA
ATOM     35  C   UNL     1       3.434   8.166   4.683  0.00  0.00    +0.197 C 
ENDBRANCH  31  34
ENDBRANCH  30  31
ENDBRANCH  26  30
ENDBRANCH  22  27
ENDBRANCH  21  24
ENDBRANCH   1  21
TORSDOF 10
