REMARK  Name = ZINC35393876
REMARK  4 active torsions:
REMARK  status: ('A' for Active; 'I' for Inactive)
REMARK    1  A    between atoms: C_1  and  C_2
REMARK    2  A    between atoms: C_2  and  C_3
REMARK    3  A    between atoms: N_19  and  C_22
REMARK    4  A    between atoms: C_25  and  C_28
REMARK                            x       y       z     vdW  Elec       q    Type
REMARK                         _______ _______ _______ _____ _____    ______ ____
ROOT
ATOM      1  C   UNL     1       0.923  -0.913  -1.769  0.00  0.00    +0.088 C 
ATOM      2  C   UNL     1       0.695  -2.265  -1.087  0.00  0.00    +0.077 C 
ATOM      3  C   UNL     1      -0.787  -2.494  -0.926  0.00  0.00    +0.005 A 
ATOM      4  C   UNL     1      -1.676  -2.024  -1.872  0.00  0.00    +0.023 A 
ATOM      5  C   UNL     1      -3.033  -2.243  -1.712  0.00  0.00    +0.018 A 
ATOM      6  C   UNL     1      -3.500  -2.930  -0.605  0.00  0.00    +0.019 A 
ATOM      7  C   UNL     1      -2.613  -3.401   0.344  0.00  0.00    +0.048 A 
ATOM      8  C   UNL     1      -1.253  -3.182   0.186  0.00  0.00    +0.136 A 
ATOM      9  O   UNL     1      -0.368  -3.633   1.114  0.00  0.00    -0.422 OA
ATOM     10  C   UNL     1       0.760  -2.920   1.310  0.00  0.00    +0.346 C 
ATOM     11  O   UNL     1       1.325  -2.882   2.535  0.00  0.00    -0.245 OA
ATOM     12  C   UNL     1       1.353  -2.248   0.272  0.00  0.00    +0.107 C 
ATOM     13  C   UNL     1       2.549  -1.537   0.458  0.00  0.00    +0.261 C 
ATOM     14  O   UNL     1       3.119  -1.588   1.534  0.00  0.00    -0.269 OA
ATOM     15  N   UNL     1       3.073  -0.800  -0.536  0.00  0.00    -0.206 N 
ATOM     16  C   UNL     1       2.371  -0.522  -1.646  0.00  0.00    +0.230 C 
ATOM     17  O   UNL     1       2.914   0.053  -2.565  0.00  0.00    -0.274 OA
ATOM     18 BR   UNL     1      -4.252  -1.599  -3.006  0.00  0.00    -0.050 Br
ENDROOT
BRANCH  15  19
ATOM     19  C   UNL     1       4.380  -0.311  -0.411  0.00  0.00    +0.044 A 
ATOM     20  C   UNL     1       4.603   0.949   0.128  0.00  0.00    +0.024 A 
ATOM     21  C   UNL     1       5.892   1.428   0.251  0.00  0.00    +0.005 A 
ATOM     22  C   UNL     1       6.961   0.654  -0.164  0.00  0.00    -0.050 A 
ATOM     23  C   UNL     1       6.742  -0.601  -0.702  0.00  0.00    +0.005 A 
ATOM     24  C   UNL     1       5.455  -1.088  -0.821  0.00  0.00    +0.024 A 
ATOM     25  C   UNL     1       8.367   1.180  -0.029  0.00  0.00    +0.044 C 
ENDBRANCH  15  19
BRANCH   1  27
ATOM     26  C   UNL     1       0.180   1.471  -1.856  0.00  0.00    +0.004 C 
ATOM     27  C   UNL     1       0.050   0.149  -1.097  0.00  0.00    +0.010 C 
ENDBRANCH   1  27
TORSDOF 2
