REMARK  Name = ZINC48650796
REMARK  9 active torsions:
REMARK  status: ('A' for Active; 'I' for Inactive)
REMARK    1  A    between atoms: C_1  and  C_2
REMARK    2  A    between atoms: C_2  and  C_3
REMARK    3  A    between atoms: C_3  and  C_4
REMARK    4  A    between atoms: C_4  and  C_5
REMARK    5  A    between atoms: C_5  and  C_6
REMARK    6  A    between atoms: C_6  and  C_8
REMARK    7  A    between atoms: C_6  and  N_9
REMARK    8  A    between atoms: C_10  and  C_12
REMARK    9  A    between atoms: N_14  and  C_15
REMARK                            x       y       z     vdW  Elec       q    Type
REMARK                         _______ _______ _______ _____ _____    ______ ____
ROOT
ATOM      1  C   UNL     1       2.882  -6.251  -0.361  0.00  0.00    +0.303 C 
ATOM      2  O   UNL     1       3.747  -5.543  -0.835  0.00  0.00    -0.265 OA
ATOM      3  N   UNL     1       2.654  -7.474  -0.879  0.00  0.00    -0.276 N 
ATOM      4  H   UNL     1       2.020  -8.071  -0.451  0.00  0.00    +0.155 HD
ENDROOT
BRANCH   3   5
ATOM      5  C   UNL     1       3.332  -7.883  -2.031  0.00  0.00    +0.056 A 
ATOM      6  C   UNL     1       3.816  -6.936  -2.925  0.00  0.00    +0.072 A 
ATOM      7  C   UNL     1       4.486  -7.343  -4.064  0.00  0.00    +0.144 A 
ATOM      8  C   UNL     1       4.673  -8.702  -4.313  0.00  0.00    +0.077 A 
ATOM      9  C   UNL     1       4.190  -9.646  -3.421  0.00  0.00    +0.048 A 
ATOM     10  C   UNL     1       3.526  -9.237  -2.279  0.00  0.00    +0.064 A 
ATOM     11 CL   UNL     1       2.926 -10.418  -1.156  0.00  0.00    -0.082 Cl
ATOM     12  N   UNL     1       5.354  -9.099  -5.475  0.00  0.00    -0.280 N 
ATOM     13  C   UNL     1       6.078  -8.183  -6.154  0.00  0.00    +0.255 C 
ATOM     14  O   UNL     1       6.650  -8.496  -7.177  0.00  0.00    -0.272 OA
ATOM     15  C   UNL     1       6.174  -6.771  -5.635  0.00  0.00    +0.325 C 
ATOM     16  O   UNL     1       4.967  -6.428  -4.949  0.00  0.00    -0.481 OA
ATOM     17  H   UNL     1       5.305 -10.017  -5.785  0.00  0.00    +0.155 HD
ENDBRANCH   3   5
BRANCH   1  19
ATOM     18  N   UNL     1       2.299  -4.542   1.312  0.00  0.00    -0.305 N 
ATOM     19  C   UNL     1       2.071  -5.766   0.795  0.00  0.00    +0.300 C 
ATOM     20  O   UNL     1       1.206  -6.473   1.268  0.00  0.00    -0.265 OA
ATOM     21  H   UNL     1       2.990  -3.977   0.933  0.00  0.00    +0.149 HD
BRANCH  18  22
ATOM     22  C   UNL     1       1.503  -4.066   2.446  0.00  0.00    +0.070 C 
ATOM     23  C   UNL     1       2.122  -4.572   3.751  0.00  0.00    +0.028 C 
BRANCH  22  24
ATOM     24  C   UNL     1       1.485  -2.537   2.450  0.00  0.00    +0.022 C 
BRANCH  24  25
ATOM     25  C   UNL     1       0.755  -2.032   1.204  0.00  0.00    +0.002 C 
BRANCH  25  26
ATOM     26  C   UNL     1       0.736  -0.502   1.208  0.00  0.00    -0.000 C 
BRANCH  26  28
ATOM     27  C   UNL     1      -0.012   1.532  -0.035  0.00  0.00    +0.004 C 
ATOM     28  C   UNL     1       0.006   0.002  -0.039  0.00  0.00    -0.003 C 
ENDBRANCH  26  28
ENDBRANCH  25  26
ENDBRANCH  24  25
ENDBRANCH  22  24
ENDBRANCH  18  22
ENDBRANCH   1  19
TORSDOF 7
