REMARK  Name = ZINC66599112
REMARK  8 active torsions:
REMARK  status: ('A' for Active; 'I' for Inactive)
REMARK    1  A    between atoms: C_1  and  C_2
REMARK    2  A    between atoms: C_2  and  C_3
REMARK    3  A    between atoms: C_3  and  C_4
REMARK    4  A    between atoms: C_4  and  N_5
REMARK    5  A    between atoms: C_10  and  C_12
REMARK    6  A    between atoms: C_12  and  N_13
REMARK    7  A    between atoms: N_16  and  C_17
REMARK    8  A    between atoms: C_17  and  C_18
REMARK                            x       y       z     vdW  Elec       q    Type
REMARK                         _______ _______ _______ _____ _____    ______ ____
ROOT
ATOM      1  N   UNL     1      -0.448  -3.886  -1.189  0.00  0.00    -0.301 N 
ATOM      2  C   UNL     1       0.460  -4.008  -2.177  0.00  0.00    +0.300 C 
ATOM      3  O   UNL     1       0.147  -4.529  -3.230  0.00  0.00    -0.253 OA
ATOM      4  N   UNL     1       1.716  -3.552  -1.998  0.00  0.00    -0.292 N 
ATOM      5  H   UNL     1      -0.199  -3.470  -0.349  0.00  0.00    +0.150 HD
ATOM      6  H   UNL     1       1.966  -3.136  -1.158  0.00  0.00    +0.151 HD
ENDROOT
BRANCH   1   7
ATOM      7  C   UNL     1      -1.813  -4.381  -1.384  0.00  0.00    +0.090 C 
BRANCH   7  13
ATOM      8  N   UNL     1      -2.021  -4.517   1.051  0.00  0.00    +0.383 N 
ATOM      9  C   UNL     1      -2.870  -4.238   2.215  0.00  0.00    -0.078 C 
ATOM     10  C   UNL     1      -3.022  -2.725   2.390  0.00  0.00    -0.019 C 
ATOM     11  C   UNL     1      -3.666  -2.134   1.133  0.00  0.00    -0.003 C 
ATOM     12  C   UNL     1      -2.811  -2.495  -0.085  0.00  0.00    -0.014 C 
ATOM     13  C   UNL     1      -2.667  -4.016  -0.168  0.00  0.00    -0.051 C 
ATOM     14  H   UNL     1      -1.129  -4.060   1.170  0.00  0.00    -0.081 HD
BRANCH   8  15
ATOM     15  C   UNL     1      -1.814  -5.966   0.933  0.00  0.00    -0.078 C 
BRANCH  15  16
ATOM     16  C   UNL     1      -1.016  -6.467   2.138  0.00  0.00    -0.019 C 
BRANCH  16  18
ATOM     17  C   UNL     1      -0.002  -8.478   3.221  0.00  0.00    +0.004 C 
ATOM     18  C   UNL     1      -0.800  -7.977   2.016  0.00  0.00    -0.005 C 
ENDBRANCH  16  18
ENDBRANCH  15  16
ENDBRANCH   8  15
ENDBRANCH   7  13
ENDBRANCH   1   7
BRANCH   4  19
ATOM     19  C   UNL     1       2.704  -3.685  -3.072  0.00  0.00    +0.182 C 
BRANCH  19  20
ATOM     20  C   UNL     1       4.018  -3.101  -2.620  0.00  0.00    +0.151 A 
ATOM     21  N   UNL     1       4.407  -1.860  -2.762  0.00  0.00    -0.133 NA
ATOM     22  N   UNL     1       5.585  -1.714  -2.259  0.00  0.00    -0.134 NA
ATOM     23  C   UNL     1       5.995  -2.848  -1.778  0.00  0.00    +0.134 A 
ATOM     24  N   UNL     1       5.011  -3.758  -1.990  0.00  0.00    -0.314 N 
ATOM     25  C   UNL     1       5.074  -5.164  -1.593  0.00  0.00    +0.125 C 
ATOM     26  C   UNL     1       6.535  -5.530  -1.306  0.00  0.00    +0.022 C 
ATOM     27  C   UNL     1       7.144  -4.498  -0.353  0.00  0.00    +0.009 C 
ATOM     28  C   UNL     1       7.303  -3.161  -1.095  0.00  0.00    +0.076 C 
ENDBRANCH  19  20
ENDBRANCH   4  19
TORSDOF 7
