REMARK  Name = ZINC67048968
REMARK  7 active torsions:
REMARK  status: ('A' for Active; 'I' for Inactive)
REMARK    1  A    between atoms: C_1  and  N_2
REMARK    2  A    between atoms: N_2  and  C_3
REMARK    3  A    between atoms: C_4  and  S_6
REMARK    4  A    between atoms: S_6  and  C_7
REMARK    5  A    between atoms: C_10  and  N_13
REMARK    6  A    between atoms: C_14  and  C_16
REMARK    7  A    between atoms: C_20  and  N_26
REMARK                            x       y       z     vdW  Elec       q    Type
REMARK                         _______ _______ _______ _____ _____    ______ ____
ROOT
ATOM      1  N   UNL     1       0.000  -4.319  -6.802  0.00  0.00    -0.280 N 
ATOM      2  C   UNL     1       0.718  -3.664  -7.736  0.00  0.00    +0.265 C 
ATOM      3  O   UNL     1       1.298  -2.635  -7.446  0.00  0.00    -0.268 OA
ATOM      4  H   UNL     1      -0.516  -5.103  -7.048  0.00  0.00    +0.155 HD
ENDROOT
BRANCH   2   5
ATOM      5  C   UNL     1       0.800  -4.194  -9.105  0.00  0.00    +0.103 A 
ATOM      6  C   UNL     1       1.494  -3.628 -10.128  0.00  0.00    +0.041 A 
ATOM      7  C   UNL     1       1.317  -4.445 -11.271  0.00  0.00    +0.003 A 
ATOM      8  C   UNL     1       1.784  -4.367 -12.590  0.00  0.00    +0.042 A 
ATOM      9  C   UNL     1       1.434  -5.330 -13.491  0.00  0.00    +0.127 A 
ATOM     10  C   UNL     1       0.619  -6.389 -13.114  0.00  0.00    +0.035 A 
ATOM     11  C   UNL     1       0.148  -6.488 -11.824  0.00  0.00    +0.028 A 
ATOM     12  C   UNL     1       0.491  -5.518 -10.886  0.00  0.00    +0.047 A 
ATOM     13  N   UNL     1       0.190  -5.348  -9.555  0.00  0.00    -0.351 N 
ATOM     14  H   UNL     1      -0.362  -5.940  -9.021  0.00  0.00    +0.166 HD
BRANCH   9  15
ATOM     15  N   UNL     1       1.928  -5.244 -14.884  0.00  0.00    +0.056 N 
ATOM     16  O   UNL     1       2.637  -4.324 -15.219  0.00  0.00    -0.126 OA
ATOM     17  O   UNL     1       1.621  -6.094 -15.687  0.00  0.00    -0.126 OA
ENDBRANCH   9  15
ENDBRANCH   2   5
BRANCH   1  21
ATOM     18  C   UNL     1      -0.002  -2.979  -2.854  0.00  0.00    +0.017 A 
ATOM     19  C   UNL     1       0.059  -2.065  -3.897  0.00  0.00    +0.017 A 
ATOM     20  C   UNL     1       0.059  -2.509  -5.205  0.00  0.00    +0.024 A 
ATOM     21  C   UNL     1       0.000  -3.869  -5.476  0.00  0.00    +0.034 A 
ATOM     22  C   UNL     1      -0.060  -4.784  -4.432  0.00  0.00    +0.024 A 
ATOM     23  C   UNL     1      -0.055  -4.341  -3.125  0.00  0.00    +0.017 A 
BRANCH  18  24
ATOM     24  S   UNL     1      -0.003  -2.413  -1.185  0.00  0.00    -0.031 S 
BRANCH  24  28
ATOM     25  C   UNL     1      -3.501  -1.984   0.854  0.00  0.00    +0.132 C 
ATOM     26  N   UNL     1      -2.081  -2.041   0.500  0.00  0.00    -0.298 N 
ATOM     27  C   UNL     1      -1.061  -1.768   1.516  0.00  0.00    +0.132 C 
ATOM     28  C   UNL     1      -1.712  -2.345  -0.760  0.00  0.00    +0.279 C 
ATOM     29  O   UNL     1      -2.558  -2.571  -1.603  0.00  0.00    -0.262 OA
ENDBRANCH  24  28
ENDBRANCH  18  24
ENDBRANCH   1  21
TORSDOF 5
