REMARK  Name = ZINC45298471
REMARK  4 active torsions:
REMARK  status: ('A' for Active; 'I' for Inactive)
REMARK    1  A    between atoms: C_4  and  O_23
REMARK    2  A    between atoms: C_5  and  C_7
REMARK    3  A    between atoms: C_9  and  C_16
REMARK    4  A    between atoms: C_13  and  C_14
REMARK                            x       y       z     vdW  Elec       q    Type
REMARK                         _______ _______ _______ _____ _____    ______ ____
ROOT
ATOM      1  C   UNL     1       1.246  -2.163  -0.023  0.00  0.00    +0.008 A 
ATOM      2  C   UNL     1       0.748  -2.882  -1.109  0.00  0.00    +0.038 A 
ATOM      3  C   UNL     1       0.790  -4.272  -1.083  0.00  0.00    +0.075 A 
ATOM      4  N   UNL     1       1.296  -4.924  -0.041  0.00  0.00    -0.231 NA
ATOM      5  C   UNL     1       1.781  -4.291   1.013  0.00  0.00    +0.135 A 
ATOM      6  N   UNL     1       2.297  -5.017   2.072  0.00  0.00    -0.342 N 
ATOM      7  C   UNL     1       1.782  -2.886   1.066  0.00  0.00    +0.099 A 
ATOM      8  H   UNL     1       2.302  -5.987   2.038  0.00  0.00    +0.144 HD
ATOM      9  H   UNL     1       2.654  -4.557   2.848  0.00  0.00    +0.144 HD
ENDROOT
BRANCH   3  10
ATOM     10  C   UNL     1       0.261  -5.039  -2.235  0.00  0.00    +0.014 A 
ATOM     11  C   UNL     1      -0.268  -4.370  -3.338  0.00  0.00    +0.011 A 
ATOM     12  C   UNL     1      -0.759  -5.089  -4.408  0.00  0.00    +0.001 A 
ATOM     13  C   UNL     1      -0.727  -6.472  -4.389  0.00  0.00    +0.001 A 
ATOM     14  C   UNL     1      -0.204  -7.142  -3.298  0.00  0.00    +0.016 A 
ATOM     15  C   UNL     1       0.296  -6.433  -2.224  0.00  0.00    +0.027 A 
ATOM     16 BR   UNL     1       1.018  -7.351  -0.736  0.00  0.00    -0.050 Br
ENDBRANCH   3  10
BRANCH   1  21
ATOM     17  C   UNL     1      -0.017   1.375   0.010  0.00  0.00    +0.001 A 
ATOM     18  C   UNL     1       1.170   2.089   0.002  0.00  0.00    +0.004 A 
ATOM     19  C   UNL     1       2.382   1.427  -0.013  0.00  0.00    +0.046 A 
ATOM     20  C   UNL     1       2.417   0.042  -0.021  0.00  0.00    +0.125 A 
ATOM     21  C   UNL     1       1.220  -0.683  -0.014  0.00  0.00    +0.025 A 
ATOM     22  C   UNL     1       0.002  -0.004   0.002  0.00  0.00    +0.012 A 
BRANCH  20  23
ATOM     23  O   UNL     1       3.608  -0.610  -0.037  0.00  0.00    -0.506 OA
ATOM     24  H   UNL     1       3.962  -0.804   0.842  0.00  0.00    +0.292 HD
ENDBRANCH  20  23
ENDBRANCH   1  21
BRANCH   7  25
ATOM     25  C   UNL     1       2.313  -2.200   2.205  0.00  0.00    +0.103 C 
ATOM     26  N   UNL     1       2.733  -1.655   3.109  0.00  0.00    -0.191 NA
ENDBRANCH   7  25
TORSDOF 4
