REMARK  Name = ZINC20866253
REMARK  10 active torsions:
REMARK  status: ('A' for Active; 'I' for Inactive)
REMARK    1  A    between atoms: C_4  and  C_7
REMARK    2  A    between atoms: C_7  and  N_8
REMARK    3  A    between atoms: N_8  and  C_9
REMARK    4  A    between atoms: C_12  and  C_18
REMARK    5  A    between atoms: C_14  and  N_15
REMARK    6  A    between atoms: C_18  and  O_20
REMARK    7  A    between atoms: O_20  and  C_21
REMARK    8  A    between atoms: C_21  and  C_22
REMARK    9  A    between atoms: N_24  and  C_25
REMARK   10  A    between atoms: C_26  and  C_33
REMARK                            x       y       z     vdW  Elec       q    Type
REMARK                         _______ _______ _______ _____ _____    ______ ____
ROOT
ATOM      1  C   UNL     1       8.964  -3.602  -2.508  0.00  0.00    +0.340 C 
ATOM      2  O   UNL     1       9.274  -3.862  -3.654  0.00  0.00    -0.245 OA
ENDROOT
BRANCH   1   6
ATOM      3  C   UNL     1       5.305  -1.620  -1.693  0.00  0.00    +0.058 A 
ATOM      4  C   UNL     1       6.155  -1.975  -0.649  0.00  0.00    +0.026 A 
ATOM      5  C   UNL     1       7.334  -2.614  -0.908  0.00  0.00    +0.017 A 
ATOM      6  C   UNL     1       7.692  -2.914  -2.227  0.00  0.00    +0.061 A 
ATOM      7  C   UNL     1       6.840  -2.558  -3.278  0.00  0.00    +0.049 A 
ATOM      8  C   UNL     1       5.651  -1.920  -3.008  0.00  0.00    +0.148 A 
BRANCH   8   9
ATOM      9  N   UNL     1       4.743  -1.547  -4.116  0.00  0.00    +0.058 N 
ATOM     10  O   UNL     1       4.993  -1.903  -5.254  0.00  0.00    -0.126 OA
ATOM     11  O   UNL     1       3.747  -0.884  -3.890  0.00  0.00    -0.126 OA
ENDBRANCH   8   9
BRANCH   3  12
ATOM     12  N   UNL     1       4.106  -0.971  -1.422  0.00  0.00    -0.338 N 
ATOM     13  H   UNL     1       3.479  -0.606  -2.249  0.00  0.00    +0.146 HD
BRANCH  12  14
ATOM     14  C   UNL     1       3.678  -0.772  -0.035  0.00  0.00    +0.137 C 
BRANCH  14  18
ATOM     15  C   UNL     1      -0.069   1.278   0.018  0.00  0.00    +0.000 A 
ATOM     16  C   UNL     1       1.112   1.996   0.037  0.00  0.00    +0.000 A 
ATOM     17  C   UNL     1       2.324   1.332   0.020  0.00  0.00    +0.005 A 
ATOM     18  C   UNL     1       2.356  -0.049  -0.016  0.00  0.00    -0.030 A 
ATOM     19  C   UNL     1       1.175  -0.767  -0.035  0.00  0.00    +0.005 A 
ATOM     20  C   UNL     1      -0.038  -0.104  -0.018  0.00  0.00    +0.000 A 
ENDBRANCH  14  18
ENDBRANCH  12  14
ENDBRANCH   3  12
ENDBRANCH   1   6
BRANCH   1  21
ATOM     21  O   UNL     1       9.784  -3.943  -1.494  0.00  0.00    -0.452 OA
BRANCH  21  22
ATOM     22  C   UNL     1      11.020  -4.619  -1.845  0.00  0.00    +0.328 C 
BRANCH  22  23
ATOM     23  C   UNL     1      11.802  -4.920  -0.592  0.00  0.00    +0.255 C 
ATOM     24  O   UNL     1      11.360  -4.596   0.491  0.00  0.00    -0.272 OA
ATOM     25  N   UNL     1      12.991  -5.548  -0.674  0.00  0.00    -0.277 N 
ATOM     26  H   UNL     1      13.392  -5.841  -1.655  0.00  0.00    +0.155 HD
BRANCH  25  27
ATOM     27  C   UNL     1      13.710  -5.824   0.479  0.00  0.00    +0.084 A 
ATOM     28  C   UNL     1      14.934  -6.460   0.598  0.00  0.00    +0.068 A 
ATOM     29  C   UNL     1      15.483  -6.625   1.944  0.00  0.00    -0.023 A 
ATOM     30  C   UNL     1      14.717  -6.139   2.937  0.00  0.00    -0.004 A 
ATOM     31  S   UNL     1      13.291  -5.466   2.120  0.00  0.00    -0.077 S 
ATOM     32  C   UNL     1      15.346  -6.348   4.288  0.00  0.00    +0.043 C 
ATOM     33  C   UNL     1      16.829  -6.653   3.984  0.00  0.00    +0.010 C 
ATOM     34  C   UNL     1      16.745  -7.233   2.558  0.00  0.00    +0.037 C 
BRANCH  28  35
ATOM     35  C   UNL     1      15.656  -6.946  -0.582  0.00  0.00    +0.244 C 
ATOM     36  O   UNL     1      16.446  -6.218  -1.154  0.00  0.00    -0.270 OA
ATOM     37  N   UNL     1      15.444  -8.198  -1.033  0.00  0.00    -0.325 N 
ATOM     38  H   UNL     1      15.985  -8.563  -1.918  0.00  0.00    +0.145 HD
ATOM     39  H   UNL     1      14.730  -8.855  -0.515  0.00  0.00    +0.145 HD
ENDBRANCH  28  35
ENDBRANCH  25  27
ENDBRANCH  22  23
ENDBRANCH  21  22
ENDBRANCH   1  21
TORSDOF 10
