REMARK  Name = ZINC12922954
REMARK  6 active torsions:
REMARK  status: ('A' for Active; 'I' for Inactive)
REMARK    1  A    between atoms: C_1  and  C_2
REMARK    2  A    between atoms: C_7  and  N_8
REMARK    3  A    between atoms: C_9  and  C_11
REMARK    4  A    between atoms: C_11  and  N_12
REMARK    5  A    between atoms: C_13  and  C_15
REMARK    6  A    between atoms: C_22  and  C_25
REMARK                            x       y       z     vdW  Elec       q    Type
REMARK                         _______ _______ _______ _____ _____    ______ ____
ROOT
ATOM      1  N   UNL     1      -3.429  -2.497  -0.306  0.00  0.00    -0.302 N 
ATOM      2  C   UNL     1      -4.444  -3.377  -0.416  0.00  0.00    +0.251 C 
ATOM      3  O   UNL     1      -5.595  -2.980  -0.427  0.00  0.00    -0.270 OA
ATOM      4  H   UNL     1      -2.512  -2.813  -0.297  0.00  0.00    +0.150 HD
ENDROOT
BRANCH   2   5
ATOM      5  C   UNL     1      -4.162  -4.811  -0.522  0.00  0.00    +0.074 A 
ATOM      6  C   UNL     1      -5.047  -5.868  -0.635  0.00  0.00    +0.024 A 
ATOM      7  C   UNL     1      -4.528  -7.149  -0.726  0.00  0.00    -0.036 A 
ATOM      8  C   UNL     1      -3.168  -7.266  -0.683  0.00  0.00    -0.006 A 
ATOM      9  S   UNL     1      -2.588  -5.651  -0.529  0.00  0.00    -0.088 S 
ATOM     10  C   UNL     1      -2.367  -8.530  -0.754  0.00  0.00    +0.043 C 
ATOM     11  C   UNL     1      -3.312  -9.715  -0.509  0.00  0.00    +0.009 C 
ATOM     12  C   UNL     1      -4.555  -9.544  -1.387  0.00  0.00    -0.009 C 
ATOM     13  C   UNL     1      -5.408  -8.389  -0.862  0.00  0.00    +0.039 C 
ATOM     14  C   UNL     1      -5.376 -10.834  -1.363  0.00  0.00    +0.008 C 
ENDBRANCH   2   5
BRANCH   1  15
ATOM     15  C   UNL     1      -3.711  -1.063  -0.200  0.00  0.00    +0.200 C 
BRANCH  15  17
ATOM     16  N   UNL     1      -2.428   1.040   0.020  0.00  0.00    -0.284 N 
ATOM     17  C   UNL     1      -2.414  -0.303  -0.089  0.00  0.00    +0.234 C 
ATOM     18  O   UNL     1      -1.359  -0.900  -0.097  0.00  0.00    -0.274 OA
ATOM     19  H   UNL     1      -3.271   1.511   0.107  0.00  0.00    +0.155 HD
BRANCH  16  26
ATOM     20  C   UNL     1      -2.364   3.586   1.289  0.00  0.00    +0.046 C 
ATOM     21  C   UNL     1      -1.150   3.002   0.614  0.00  0.00    -0.028 A 
ATOM     22  C   UNL     1       0.037   3.707   0.595  0.00  0.00    +0.020 A 
ATOM     23  C   UNL     1       1.152   3.172  -0.024  0.00  0.00    +0.018 A 
ATOM     24  C   UNL     1       1.082   1.928  -0.626  0.00  0.00    +0.017 A 
ATOM     25  C   UNL     1      -0.103   1.218  -0.610  0.00  0.00    +0.024 A 
ATOM     26  C   UNL     1      -1.225   1.755   0.006  0.00  0.00    +0.036 A 
ATOM     27 BR   UNL     1       2.776   4.141  -0.048  0.00  0.00    -0.050 Br
ENDBRANCH  16  26
ENDBRANCH  15  17
ENDBRANCH   1  15
TORSDOF 4
