REMARK  Name = ZINC06428668
REMARK  5 active torsions:
REMARK  status: ('A' for Active; 'I' for Inactive)
REMARK    1  A    between atoms: C_3  and  N_9
REMARK    2  A    between atoms: C_10  and  C_12
REMARK    3  A    between atoms: C_12  and  C_24
REMARK    4  A    between atoms: C_13  and  C_14
REMARK    5  A    between atoms: C_18  and  N_20
REMARK                            x       y       z     vdW  Elec       q    Type
REMARK                         _______ _______ _______ _____ _____    ______ ____
ROOT
ATOM      1  C   UNL     1       0.167   0.035  -0.083  0.00  0.00    +0.114 C 
ATOM      2  C   UNL     1      -0.035   1.396  -0.043  0.00  0.00    +0.032 C 
ENDROOT
BRANCH   2   3
ATOM      3  C   UNL     1       1.114   2.307   0.001  0.00  0.00    -0.021 A 
ATOM      4  C   UNL     1       2.329   1.882   0.556  0.00  0.00    +0.009 A 
ATOM      5  C   UNL     1       3.404   2.742   0.589  0.00  0.00    +0.023 A 
ATOM      6  C   UNL     1       3.284   4.028   0.085  0.00  0.00    +0.071 A 
ATOM      7  C   UNL     1       2.085   4.457  -0.461  0.00  0.00    +0.145 A 
ATOM      8  C   UNL     1       1.001   3.607  -0.506  0.00  0.00    +0.042 A 
ATOM      9 CL   UNL     1       4.643   5.106   0.138  0.00  0.00    -0.081 Cl
BRANCH   7  10
ATOM     10  N   UNL     1       1.968   5.832  -0.997  0.00  0.00    +0.058 N 
ATOM     11  O   UNL     1       0.915   6.210  -1.478  0.00  0.00    -0.126 OA
ATOM     12  O   UNL     1       2.925   6.584  -0.958  0.00  0.00    -0.126 OA
ENDBRANCH   7  10
ENDBRANCH   2   3
BRANCH   1  14
ATOM     13  N   UNL     1      -0.778  -2.215   0.008  0.00  0.00    -0.280 N 
ATOM     14  C   UNL     1      -0.976  -0.882   0.048  0.00  0.00    +0.259 C 
ATOM     15  O   UNL     1      -2.099  -0.438   0.191  0.00  0.00    -0.269 OA
ATOM     16  H   UNL     1       0.123  -2.571  -0.026  0.00  0.00    +0.155 HD
BRANCH  13  19
ATOM     17  C   UNL     1      -4.192  -3.511  -0.426  0.00  0.00    +0.003 A 
ATOM     18  C   UNL     1      -3.112  -2.650  -0.435  0.00  0.00    +0.025 A 
ATOM     19  C   UNL     1      -1.874  -3.085   0.017  0.00  0.00    +0.054 A 
ATOM     20  C   UNL     1      -1.724  -4.389   0.474  0.00  0.00    +0.080 A 
ATOM     21  C   UNL     1      -2.810  -5.245   0.487  0.00  0.00    +0.061 A 
ATOM     22  C   UNL     1      -4.043  -4.806   0.035  0.00  0.00    +0.021 A 
ATOM     23 CL   UNL     1      -2.627  -6.872   1.065  0.00  0.00    -0.082 Cl
ATOM     24 CL   UNL     1      -0.176  -4.941   1.034  0.00  0.00    -0.080 Cl
ENDBRANCH  13  19
ENDBRANCH   1  14
BRANCH   1  25
ATOM     25  C   UNL     1       1.490  -0.488  -0.251  0.00  0.00    +0.104 C 
ATOM     26  N   UNL     1       2.539  -0.903  -0.385  0.00  0.00    -0.191 NA
ENDBRANCH   1  25
TORSDOF 5
