REMARK  Name = ZINC38783131
REMARK  4 active torsions:
REMARK  status: ('A' for Active; 'I' for Inactive)
REMARK    1  A    between atoms: C_1  and  C_2
REMARK    2  A    between atoms: C_13  and  C_15
REMARK    3  A    between atoms: C_15  and  C_16
REMARK    4  A    between atoms: C_16  and  C_17
REMARK                            x       y       z     vdW  Elec       q    Type
REMARK                         _______ _______ _______ _____ _____    ______ ____
ROOT
ATOM      1  C   UNL     1      -0.019   1.526   0.010  0.00  0.00    +0.013 C 
ATOM      2  C   UNL     1       0.002  -0.004   0.002  0.00  0.00    +0.033 C 
ATOM      3  C   UNL     1       0.705  -0.489  -1.242  0.00  0.00    -0.001 A 
ATOM      4  C   UNL     1       0.467   0.174  -2.418  0.00  0.00    +0.019 A 
ATOM      5  C   UNL     1       1.086  -0.239  -3.595  0.00  0.00    +0.024 A 
ATOM      6  C   UNL     1       1.962  -1.341  -3.579  0.00  0.00    +0.139 A 
ATOM      7  C   UNL     1       2.193  -2.001  -2.382  0.00  0.00    +0.093 A 
ATOM      8  C   UNL     1       1.569  -1.575  -1.218  0.00  0.00    +0.139 A 
ATOM      9  O   UNL     1       1.841  -2.248  -0.065  0.00  0.00    -0.425 OA
ATOM     10  C   UNL     1       1.083  -1.967   1.014  0.00  0.00    +0.316 C 
ATOM     11  O   UNL     1       0.698  -2.836   1.760  0.00  0.00    -0.250 OA
ATOM     12  C   UNL     1       0.740  -0.510   1.245  0.00  0.00    +0.106 C 
ATOM     13  O   UNL     1       2.412  -1.516  -4.839  0.00  0.00    -0.459 OA
ATOM     14  C   UNL     1       1.882  -0.603  -5.670  0.00  0.00    +0.109 A 
ATOM     15  C   UNL     1       1.064   0.213  -4.985  0.00  0.00    +0.001 A 
ATOM     16  C   UNL     1       0.292   1.360  -5.581  0.00  0.00    +0.039 C 
ATOM     17  C   UNL     1       0.889   1.685  -6.956  0.00  0.00    +0.005 C 
ATOM     18  C   UNL     1       1.030   0.392  -7.765  0.00  0.00    +0.008 C 
ATOM     19  C   UNL     1       2.136  -0.475  -7.155  0.00  0.00    +0.075 C 
ENDROOT
BRANCH  12  20
ATOM     20  C   UNL     1       2.021   0.300   1.455  0.00  0.00    +0.024 C 
BRANCH  20  21
ATOM     21  C   UNL     1       2.686  -0.126   2.765  0.00  0.00    +0.097 C 
BRANCH  21  22
ATOM     22  C   UNL     1       3.947   0.671   2.971  0.00  0.00    +0.219 C 
ATOM     23  O   UNL     1       4.282   1.500   2.151  0.00  0.00    -0.275 OA
ATOM     24  N   UNL     1       4.704   0.465   4.066  0.00  0.00    -0.253 N 
ATOM     25  C   UNL     1       5.866   1.200   4.256  0.00  0.00    +0.243 A 
ATOM     26  N   UNL     1       6.690   1.096   5.276  0.00  0.00    -0.200 NA
ATOM     27  C   UNL     1       7.699   1.954   5.128  0.00  0.00    +0.249 A 
ATOM     28  N   UNL     1       7.536   2.618   4.015  0.00  0.00    -0.134 NA
ATOM     29  N   UNL     1       6.354   2.143   3.424  0.00  0.00    -0.111 NA
ATOM     30  H   UNL     1       4.437  -0.198   4.723  0.00  0.00    +0.158 HD
ENDBRANCH  21  22
ENDBRANCH  20  21
ENDBRANCH  12  20
TORSDOF 3
