REMARK  Name = ZINC05579076
REMARK  3 active torsions:
REMARK  status: ('A' for Active; 'I' for Inactive)
REMARK    1  A    between atoms: C_9  and  C_12
REMARK    2  A    between atoms: N_14  and  N_15
REMARK    3  A    between atoms: C_16  and  C_18
REMARK                            x       y       z     vdW  Elec       q    Type
REMARK                         _______ _______ _______ _____ _____    ______ ____
ROOT
ATOM      1  C   UNL     1       4.898  -2.639  -0.071  0.00  0.00    +0.273 C 
ATOM      2  O   UNL     1       5.727  -1.999  -0.682  0.00  0.00    -0.270 OA
ATOM      3  N   UNL     1       5.143  -3.925   0.251  0.00  0.00    -0.231 N 
ATOM      4  H   UNL     1       4.479  -4.437   0.740  0.00  0.00    +0.173 HD
ENDROOT
BRANCH   1  13
ATOM      5  C   UNL     1      -0.017   1.378   0.010  0.00  0.00    +0.004 A 
ATOM      6  C   UNL     1       1.170   2.088   0.002  0.00  0.00    +0.004 A 
ATOM      7  C   UNL     1       2.378   1.418  -0.014  0.00  0.00    +0.049 A 
ATOM      8  C   UNL     1       2.404   0.031  -0.023  0.00  0.00    +0.163 A 
ATOM      9  C   UNL     1       1.212  -0.683  -0.013  0.00  0.00    +0.162 A 
ATOM     10  C   UNL     1       0.002  -0.004   0.002  0.00  0.00    +0.049 A 
ATOM     11  O   UNL     1       1.214  -2.044  -0.013  0.00  0.00    -0.484 OA
ATOM     12  C   UNL     1       2.434  -2.685  -0.404  0.00  0.00    +0.283 C 
ATOM     13  C   UNL     1       3.594  -1.997   0.328  0.00  0.00    +0.297 C 
ATOM     14  O   UNL     1       3.602  -0.615  -0.043  0.00  0.00    -0.472 OA
ENDBRANCH   1  13
BRANCH   3  15
ATOM     15  N   UNL     1       6.355  -4.522  -0.120  0.00  0.00    -0.230 N 
ATOM     16  C   UNL     1       6.599  -5.807   0.203  0.00  0.00    +0.260 C 
ATOM     17  O   UNL     1       5.768  -6.449   0.815  0.00  0.00    -0.269 OA
ATOM     18  H   UNL     1       7.018  -4.010  -0.608  0.00  0.00    +0.173 HD
BRANCH  16  19
ATOM     19  C   UNL     1       7.878  -6.437  -0.189  0.00  0.00    +0.040 A 
ATOM     20  C   UNL     1       8.837  -5.701  -0.887  0.00  0.00    +0.013 A 
ATOM     21  C   UNL     1      10.029  -6.294  -1.249  0.00  0.00    +0.002 A 
ATOM     22  C   UNL     1      10.276  -7.615  -0.922  0.00  0.00    +0.020 A 
ATOM     23  C   UNL     1       9.329  -8.351  -0.230  0.00  0.00    +0.042 A 
ATOM     24  C   UNL     1       8.134  -7.768   0.143  0.00  0.00    +0.033 A 
ATOM     25 CL   UNL     1       9.648 -10.009   0.176  0.00  0.00    -0.084 Cl
ENDBRANCH  16  19
ENDBRANCH   3  15
TORSDOF 3
