REMARK  Name = ZINC44960228
REMARK  7 active torsions:
REMARK  status: ('A' for Active; 'I' for Inactive)
REMARK    1  A    between atoms: C_4  and  C_7
REMARK    2  A    between atoms: C_7  and  C_8
REMARK    3  A    between atoms: C_8  and  O_36
REMARK    4  A    between atoms: C_14  and  C_16
REMARK    5  A    between atoms: C_19  and  N_22
REMARK    6  A    between atoms: C_23  and  N_35
REMARK    7  A    between atoms: C_25  and  C_27
REMARK                            x       y       z     vdW  Elec       q    Type
REMARK                         _______ _______ _______ _____ _____    ______ ____
ROOT
ATOM      1  C   UNL     1       8.217  -0.997   4.362  0.00  0.00    +0.037 A 
ATOM      2  C   UNL     1       8.617  -1.761   3.263  0.00  0.00    +0.015 A 
ATOM      3  C   UNL     1       9.768  -2.514   3.333  0.00  0.00    +0.028 A 
ATOM      4  C   UNL     1      10.532  -2.514   4.495  0.00  0.00    +0.067 A 
ATOM      5  C   UNL     1      10.136  -1.754   5.591  0.00  0.00    +0.028 A 
ATOM      6  C   UNL     1       8.989  -0.995   5.527  0.00  0.00    +0.015 A 
ENDROOT
BRANCH   1  13
ATOM      7  C   UNL     1       3.393  -2.174   4.093  0.00  0.00    +0.073 C 
ATOM      8  C   UNL     1       4.731  -2.906   4.221  0.00  0.00    +0.054 C 
ATOM      9  C   UNL     1       5.800  -2.150   3.426  0.00  0.00    +0.111 C 
ATOM     10  N   UNL     1       5.830  -0.753   3.883  0.00  0.00    -0.297 N 
ATOM     11  C   UNL     1       4.578   0.015   3.886  0.00  0.00    +0.111 C 
ATOM     12  C   UNL     1       3.522  -0.765   4.676  0.00  0.00    +0.054 C 
ATOM     13  C   UNL     1       6.983  -0.188   4.291  0.00  0.00    +0.247 C 
ATOM     14  O   UNL     1       7.008   0.987   4.601  0.00  0.00    -0.270 OA
BRANCH   7  15
ATOM     15  O   UNL     1       3.029  -2.087   2.714  0.00  0.00    -0.388 OA
ATOM     16  H   UNL     1       2.929  -2.945   2.279  0.00  0.00    +0.210 HD
ENDBRANCH   7  15
BRANCH   7  17
ATOM     17  C   UNL     1       2.315  -2.945   4.857  0.00  0.00    +0.070 C 
BRANCH  17  21
ATOM     18  C   UNL     1       2.193  -6.982   3.466  0.00  0.00    +0.000 A 
ATOM     19  C   UNL     1       3.021  -6.638   4.518  0.00  0.00    +0.000 A 
ATOM     20  C   UNL     1       3.061  -5.332   4.968  0.00  0.00    +0.004 A 
ATOM     21  C   UNL     1       2.273  -4.369   4.366  0.00  0.00    -0.045 A 
ATOM     22  C   UNL     1       1.445  -4.713   3.314  0.00  0.00    +0.004 A 
ATOM     23  C   UNL     1       1.404  -6.020   2.865  0.00  0.00    +0.000 A 
ENDBRANCH  17  21
ENDBRANCH   7  17
ENDBRANCH   1  13
BRANCH   4  24
ATOM     24  N   UNL     1      11.698  -3.279   4.562  0.00  0.00    -0.218 N 
ATOM     25  C   UNL     1      12.838  -2.946   5.232  0.00  0.00    +0.120 A 
ATOM     26  C   UNL     1      13.733  -3.952   5.050  0.00  0.00    +0.073 A 
ATOM     27  C   UNL     1      13.121  -4.931   4.243  0.00  0.00    +0.095 A 
ATOM     28  N   UNL     1      11.901  -4.526   3.958  0.00  0.00    -0.165 NA
BRANCH  27  29
ATOM     29  C   UNL     1      13.742  -6.202   3.796  0.00  0.00    +0.004 A 
ATOM     30  C   UNL     1      15.045  -6.517   4.181  0.00  0.00    +0.011 A 
ATOM     31  C   UNL     1      15.619  -7.700   3.763  0.00  0.00    +0.022 A 
ATOM     32  C   UNL     1      14.903  -8.575   2.963  0.00  0.00    +0.059 A 
ATOM     33  C   UNL     1      13.609  -8.267   2.578  0.00  0.00    +0.060 A 
ATOM     34  C   UNL     1      13.024  -7.088   2.996  0.00  0.00    +0.031 A 
ATOM     35 CL   UNL     1      12.718  -9.368   1.574  0.00  0.00    -0.082 Cl
ATOM     36 CL   UNL     1      15.632 -10.062   2.440  0.00  0.00    -0.082 Cl
ENDBRANCH  27  29
BRANCH  25  37
ATOM     37  N   UNL     1      13.047  -1.784   5.969  0.00  0.00    -0.343 N 
ATOM     38  H   UNL     1      12.342  -1.121   6.040  0.00  0.00    +0.144 HD
ATOM     39  H   UNL     1      13.897  -1.637   6.412  0.00  0.00    +0.144 HD
ENDBRANCH  25  37
ENDBRANCH   4  24
TORSDOF 7
