REMARK  Name = ZINC49977350
REMARK  8 active torsions:
REMARK  status: ('A' for Active; 'I' for Inactive)
REMARK    1  A    between atoms: C_1  and  C_2
REMARK    2  A    between atoms: C_2  and  N_3
REMARK    3  A    between atoms: C_5  and  N_20
REMARK    4  A    between atoms: C_7  and  C_8
REMARK    5  A    between atoms: N_10  and  C_11
REMARK    6  A    between atoms: N_10  and  C_12
REMARK    7  A    between atoms: C_15  and  C_19
REMARK    8  A    between atoms: C_17  and  C_18
REMARK                            x       y       z     vdW  Elec       q    Type
REMARK                         _______ _______ _______ _____ _____    ______ ____
ROOT
ATOM      1  C   UNL     1      -1.697  -0.465  -2.252  0.00  0.00    +0.267 C 
ATOM      2  O   UNL     1      -2.477  -0.529  -3.185  0.00  0.00    -0.268 OA
ATOM      3  N   UNL     1      -0.507   0.147  -2.410  0.00  0.00    -0.269 N 
ATOM      4  C   UNL     1       0.382   0.329  -1.260  0.00  0.00    +0.138 C 
ENDROOT
BRANCH   3   5
ATOM      5  C   UNL     1      -0.120   0.609  -3.672  0.00  0.00    +0.039 A 
ATOM      6  C   UNL     1      -0.438   1.902  -4.068  0.00  0.00    +0.024 A 
ATOM      7  C   UNL     1      -0.053   2.355  -5.314  0.00  0.00    +0.005 A 
ATOM      8  C   UNL     1       0.647   1.522  -6.169  0.00  0.00    -0.050 A 
ATOM      9  C   UNL     1       0.964   0.235  -5.778  0.00  0.00    +0.008 A 
ATOM     10  C   UNL     1       0.588  -0.223  -4.530  0.00  0.00    -0.029 A 
ATOM     11  C   UNL     1       0.941  -1.624  -4.103  0.00  0.00    +0.045 C 
ATOM     12  C   UNL     1       1.064   2.020  -7.529  0.00  0.00    +0.044 C 
ENDBRANCH   3   5
BRANCH   1  17
ATOM     13  N   UNL     1      -3.276  -1.583  -0.615  0.00  0.00    -0.342 N 
ATOM     14  C   UNL     1      -3.211  -2.035   0.666  0.00  0.00    +0.109 A 
ATOM     15  C   UNL     1      -1.964  -1.798   1.151  0.00  0.00    +0.043 A 
ATOM     16  C   UNL     1      -1.222  -1.175   0.138  0.00  0.00    +0.055 A 
ATOM     17  C   UNL     1      -2.053  -1.054  -0.958  0.00  0.00    +0.107 A 
BRANCH  15  18
ATOM     18  N   UNL     1      -1.500  -2.119   2.440  0.00  0.00    -0.357 N 
ATOM     19  H   UNL     1      -2.092  -2.551   3.075  0.00  0.00    +0.142 HD
ATOM     20  H   UNL     1      -0.588  -1.908   2.694  0.00  0.00    +0.142 HD
ENDBRANCH  15  18
BRANCH  13  22
ATOM     21  C   UNL     1      -4.372  -2.915  -2.348  0.00  0.00    +0.027 C 
ATOM     22  C   UNL     1      -4.451  -1.653  -1.487  0.00  0.00    +0.118 C 
ENDBRANCH  13  22
ENDBRANCH   1  17
TORSDOF 4
