REMARK  Name = ZINC13551432
REMARK  5 active torsions:
REMARK  status: ('A' for Active; 'I' for Inactive)
REMARK    1  A    between atoms: C_1  and  C_2
REMARK    2  A    between atoms: C_6  and  O_26
REMARK    3  A    between atoms: C_12  and  C_13
REMARK    4  A    between atoms: C_13  and  C_14
REMARK    5  A    between atoms: O_26  and  C_27
REMARK                            x       y       z     vdW  Elec       q    Type
REMARK                         _______ _______ _______ _____ _____    ______ ____
ROOT
ATOM      1  C   UNL     1      -0.018   1.503   0.010  0.00  0.00    +0.045 C 
ATOM      2  C   UNL     1       0.002  -0.004   0.002  0.00  0.00    -0.029 A 
ATOM      3  C   UNL     1       0.006  -0.749  -1.258  0.00  0.00    +0.022 A 
ATOM      4  C   UNL     1      -0.008  -0.083  -2.490  0.00  0.00    +0.035 A 
ATOM      5  C   UNL     1      -0.003  -0.802  -3.650  0.00  0.00    +0.083 A 
ATOM      6  C   UNL     1       0.016  -2.196  -3.617  0.00  0.00    +0.142 A 
ATOM      7  C   UNL     1       0.030  -2.871  -2.408  0.00  0.00    +0.094 A 
ATOM      8  C   UNL     1       0.026  -2.156  -1.219  0.00  0.00    +0.143 A 
ATOM      9  O   UNL     1       0.041  -2.795  -0.029  0.00  0.00    -0.422 OA
ATOM     10  C   UNL     1       0.038  -2.117   1.129  0.00  0.00    +0.341 A 
ATOM     11  O   UNL     1       0.052  -2.736   2.178  0.00  0.00    -0.245 OA
ATOM     12  C   UNL     1       0.023  -0.708   1.164  0.00  0.00    +0.049 A 
ATOM     13 CL   UNL     1      -0.021   0.024  -5.177  0.00  0.00    -0.080 Cl
ENDROOT
BRANCH   6  14
ATOM     14  O   UNL     1       0.019  -2.897  -4.779  0.00  0.00    -0.494 OA
ATOM     15  C   UNL     1       0.039  -4.323  -4.677  0.00  0.00    +0.277 C 
ENDBRANCH   6  14
BRANCH  12  16
ATOM     16  C   UNL     1       0.025   0.016   2.486  0.00  0.00    +0.138 C 
BRANCH  16  17
ATOM     17  C   UNL     1      -1.388   0.129   2.999  0.00  0.00    +0.220 C 
ATOM     18  O   UNL     1      -2.306  -0.333   2.355  0.00  0.00    -0.275 OA
ATOM     19  N   UNL     1      -1.631   0.743   4.174  0.00  0.00    -0.295 N 
ATOM     20  C   UNL     1      -3.001   0.858   4.695  0.00  0.00    +0.114 C 
ATOM     21  C   UNL     1      -3.111   0.064   6.003  0.00  0.00    +0.074 C 
ATOM     22  C   UNL     1      -1.913   0.376   6.864  0.00  0.00    +0.039 A 
ATOM     23  C   UNL     1      -0.767   0.926   6.407  0.00  0.00    +0.054 A 
ATOM     24  N   UNL     1       0.073   1.049   7.469  0.00  0.00    -0.348 N 
ATOM     25  H   UNL     1       0.973   1.410   7.454  0.00  0.00    +0.166 HD
ATOM     26  C   UNL     1      -0.585   0.572   8.551  0.00  0.00    +0.171 A 
ATOM     27  N   UNL     1      -1.773   0.172   8.178  0.00  0.00    -0.349 N 
ATOM     28  C   UNL     1      -0.529   1.311   4.972  0.00  0.00    +0.162 C 
ATOM     29  H   UNL     1      -2.446  -0.211   8.762  0.00  0.00    +0.166 HD
ENDBRANCH  16  17
ENDBRANCH  12  16
TORSDOF 3
