REMARK  Name = ZINC02357384
REMARK  7 active torsions:
REMARK  status: ('A' for Active; 'I' for Inactive)
REMARK    1  A    between atoms: C_1  and  C_2
REMARK    2  A    between atoms: C_2  and  O_3
REMARK    3  A    between atoms: O_3  and  C_4
REMARK    4  A    between atoms: C_4  and  C_6
REMARK    5  A    between atoms: C_8  and  C_27
REMARK    6  A    between atoms: C_20  and  C_21
REMARK    7  A    between atoms: C_20  and  N_56
REMARK                            x       y       z     vdW  Elec       q    Type
REMARK                         _______ _______ _______ _____ _____    ______ ____
ROOT
ATOM      1  C   UNL     1      -2.239   4.531   1.460  0.00  0.00    +0.213 C 
ATOM      2  C   UNL     1      -1.694   4.317   0.041  0.00  0.00    +0.161 C 
ATOM      3  N   UNL     1      -2.844   4.048  -0.840  0.00  0.00    -0.308 N 
ATOM      4  C   UNL     1      -3.735   3.088  -0.452  0.00  0.00    +0.175 C 
ATOM      5  N   UNL     1      -3.883   2.797   0.830  0.00  0.00    -0.151 NA
ATOM      6  C   UNL     1      -3.205   3.421   1.784  0.00  0.00    +0.255 C 
ATOM      7  O   UNL     1      -3.367   3.091   2.942  0.00  0.00    -0.273 OA
ATOM      8  N   UNL     1      -4.474   2.429  -1.388  0.00  0.00    -0.309 N 
ATOM      9  C   UNL     1      -4.331   2.739  -2.818  0.00  0.00    +0.089 C 
ATOM     10  C   UNL     1      -4.098   1.423  -3.577  0.00  0.00    -0.059 C 
ATOM     11  C   UNL     1      -5.167   0.132  -1.824  0.00  0.00    -0.059 C 
ATOM     12  C   UNL     1      -5.439   1.392  -0.994  0.00  0.00    +0.089 C 
ATOM     13  H   UNL     1      -2.964   4.537  -1.669  0.00  0.00    +0.149 HD
ATOM     14  N   UNL     1      -5.202   0.492  -3.258  0.00  0.00    +0.384 N 
ATOM     15  H   UNL     1      -6.096   0.953  -3.464  0.00  0.00    -0.081 HD
ENDROOT
BRANCH   2  16
ATOM     16  C   UNL     1      -0.753   3.140   0.026  0.00  0.00    +0.126 A 
ATOM     17  C   UNL     1       0.591   3.208   0.014  0.00  0.00    +0.046 A 
ATOM     18  C   UNL     1       1.068   1.877   0.002  0.00  0.00    +0.041 A 
ATOM     19  C   UNL     1      -0.013   1.076   0.008  0.00  0.00    +0.195 A 
ATOM     20  O   UNL     1      -1.113   1.846   0.017  0.00  0.00    -0.466 OA
ENDBRANCH   2  16
BRANCH   1  21
ATOM     21  C   UNL     1      -1.099   4.511   2.446  0.00  0.00    +0.321 C 
ATOM     22  O   UNL     1       0.033   4.343   2.058  0.00  0.00    -0.250 OA
BRANCH  21  23
ATOM     23  O   UNL     1      -1.341   4.680   3.755  0.00  0.00    -0.464 OA
BRANCH  23  25
ATOM     24  C   UNL     1      -0.666   4.858   6.088  0.00  0.00    +0.048 C 
ATOM     25  C   UNL     1      -0.196   4.649   4.647  0.00  0.00    +0.229 C 
ENDBRANCH  23  25
ENDBRANCH  21  23
ENDBRANCH   1  21
BRANCH  14  26
ATOM     26  C   UNL     1      -5.089  -0.727  -4.086  0.00  0.00    -0.043 C 
BRANCH  26  27
ATOM     27  C   UNL     1      -5.346  -0.360  -5.525  0.00  0.00    -0.064 A 
ATOM     28  C   UNL     1      -6.633  -0.392  -6.027  0.00  0.00    +0.002 A 
ATOM     29  C   UNL     1      -6.869  -0.052  -7.346  0.00  0.00    +0.000 A 
ATOM     30  C   UNL     1      -5.817   0.311  -8.165  0.00  0.00    +0.000 A 
ATOM     31  C   UNL     1      -4.528   0.338  -7.665  0.00  0.00    +0.000 A 
ATOM     32  C   UNL     1      -4.293   0.002  -6.345  0.00  0.00    +0.002 A 
ENDBRANCH  26  27
ENDBRANCH  14  26
TORSDOF 6
