REMARK  Name = ZINC44135646
REMARK  11 active torsions:
REMARK  status: ('A' for Active; 'I' for Inactive)
REMARK    1  A    between atoms: C_1  and  C_2
REMARK    2  A    between atoms: C_2  and  C_39
REMARK    3  A    between atoms: C_6  and  O_38
REMARK    4  A    between atoms: C_8  and  C_14
REMARK    5  A    between atoms: C_14  and  C_16
REMARK    6  A    between atoms: C_14  and  N_37
REMARK    7  A    between atoms: C_16  and  O_17
REMARK    8  A    between atoms: O_17  and  C_18
REMARK    9  A    between atoms: C_18  and  C_19
REMARK   10  A    between atoms: C_18  and  C_25
REMARK   11  A    between atoms: C_18  and  C_31
REMARK                            x       y       z     vdW  Elec       q    Type
REMARK                         _______ _______ _______ _____ _____    ______ ____
ROOT
ATOM      1  O   UNL     1       7.219  -0.890   0.116  0.00  0.00    -0.361 OA
ENDROOT
BRANCH   1   2
ATOM      2  C   UNL     1       6.027  -0.133   0.335  0.00  0.00    +0.148 C 
BRANCH   2   3
ATOM      3  C   UNL     1       5.314   0.093  -0.999  0.00  0.00    -0.017 C 
BRANCH   3   9
ATOM      4  C   UNL     1      -0.073   2.498   0.112  0.00  0.00    +0.074 C 
ATOM      5  C   UNL     1       1.098   3.164  -0.614  0.00  0.00    +0.168 C 
ATOM      6  O   UNL     1       2.294   3.085   0.192  0.00  0.00    -0.338 OA
ATOM      7  C   UNL     1       3.355   3.282  -0.772  0.00  0.00    +0.208 C 
ATOM      8  C   UNL     1       4.570   2.419  -0.344  0.00  0.00    +0.175 C 
ATOM      9  C   UNL     1       4.107   1.007  -0.784  0.00  0.00    +0.140 C 
ATOM     10  O   UNL     1       3.411   1.223  -2.023  0.00  0.00    -0.344 OA
ATOM     11  C   UNL     1       2.818   2.553  -2.035  0.00  0.00    +0.285 C 
ATOM     12  O   UNL     1       1.397   2.453  -1.829  0.00  0.00    -0.318 OA
ATOM     13  C   UNL     1       0.764   4.624  -0.925  0.00  0.00    +0.074 C 
BRANCH   8  14
ATOM     14  O   UNL     1       5.752   2.814  -1.043  0.00  0.00    -0.387 OA
ATOM     15  H   UNL     1       6.020   3.728  -0.877  0.00  0.00    +0.210 HD
ENDBRANCH   8  14
ENDBRANCH   3   9
BRANCH   3  16
ATOM     16  N   UNL     1       4.862  -1.197  -1.537  0.00  0.00    +0.383 N 
ATOM     17  H   UNL     1       4.459  -1.057  -2.452  0.00  0.00    -0.089 HD
ATOM     18  H   UNL     1       5.647  -1.826  -1.608  0.00  0.00    -0.089 HD
ATOM     19  H   UNL     1       4.168  -1.593  -0.921  0.00  0.00    -0.089 HD
ENDBRANCH   3  16
ENDBRANCH   2   3
ENDBRANCH   1   2
BRANCH   1  20
ATOM     20  C   UNL     1       7.968  -1.153   1.304  0.00  0.00    +0.144 C 
BRANCH  20  21
ATOM     21  C   UNL     1       7.109  -1.915   2.281  0.00  0.00    -0.007 A 
ATOM     22  C   UNL     1       6.112  -1.262   2.981  0.00  0.00    +0.007 A 
ATOM     23  C   UNL     1       5.324  -1.961   3.876  0.00  0.00    +0.000 A 
ATOM     24  C   UNL     1       5.533  -3.314   4.071  0.00  0.00    +0.000 A 
ATOM     25  C   UNL     1       6.530  -3.967   3.370  0.00  0.00    +0.000 A 
ATOM     26  C   UNL     1       7.315  -3.269   2.472  0.00  0.00    +0.007 A 
ENDBRANCH  20  21
BRANCH  20  27
ATOM     27  C   UNL     1       9.185  -1.972   0.961  0.00  0.00    -0.007 A 
ATOM     28  C   UNL     1      10.057  -2.366   1.958  0.00  0.00    +0.007 A 
ATOM     29  C   UNL     1      11.174  -3.117   1.643  0.00  0.00    +0.000 A 
ATOM     30  C   UNL     1      11.419  -3.475   0.330  0.00  0.00    +0.000 A 
ATOM     31  C   UNL     1      10.546  -3.082  -0.667  0.00  0.00    +0.000 A 
ATOM     32  C   UNL     1       9.427  -2.334  -0.351  0.00  0.00    +0.007 A 
ENDBRANCH  20  27
BRANCH  20  33
ATOM     33  C   UNL     1       8.398   0.150   1.926  0.00  0.00    -0.007 A 
ATOM     34  C   UNL     1       8.568   0.241   3.295  0.00  0.00    +0.007 A 
ATOM     35  C   UNL     1       8.963   1.437   3.865  0.00  0.00    +0.000 A 
ATOM     36  C   UNL     1       9.189   2.542   3.065  0.00  0.00    +0.000 A 
ATOM     37  C   UNL     1       9.020   2.451   1.696  0.00  0.00    +0.000 A 
ATOM     38  C   UNL     1       8.630   1.254   1.126  0.00  0.00    +0.007 A 
ENDBRANCH  20  33
ENDBRANCH   1  20
TORSDOF 9
