REMARK  Name = ZINC18197292
REMARK  8 active torsions:
REMARK  status: ('A' for Active; 'I' for Inactive)
REMARK    1  A    between atoms: C_1  and  O_2
REMARK    2  A    between atoms: O_2  and  C_3
REMARK    3  A    between atoms: C_6  and  C_11
REMARK    4  A    between atoms: C_8  and  O_9
REMARK    5  A    between atoms: O_9  and  C_10
REMARK    6  A    between atoms: C_16  and  C_26
REMARK    7  A    between atoms: C_23  and  O_24
REMARK    8  A    between atoms: C_31  and  C_32
REMARK                            x       y       z     vdW  Elec       q    Type
REMARK                         _______ _______ _______ _____ _____    ______ ____
ROOT
ATOM      1  C   UNL     1      -0.735   1.582   1.265  0.00  0.00    +0.032 C 
ATOM      2  C   UNL     1      -0.820   3.108   1.199  0.00  0.00    +0.059 C 
ATOM      3  C   UNL     1      -1.557   3.525  -0.054  0.00  0.00    +0.017 C 
ATOM      4  C   UNL     1      -1.486   2.780  -1.178  0.00  0.00    +0.024 C 
ATOM      5  C   UNL     1      -2.187   3.177  -2.460  0.00  0.00    +0.093 C 
ATOM      6  C   UNL     1      -3.197   4.250  -2.171  0.00  0.00    +0.067 A 
ATOM      7  C   UNL     1      -3.215   4.943  -0.990  0.00  0.00    +0.126 A 
ATOM      8  N   UNL     1      -4.228   5.828  -1.047  0.00  0.00    -0.260 N 
ATOM      9  H   UNL     1      -4.487   6.476  -0.330  0.00  0.00    +0.190 HD
ATOM     10  N   UNL     1      -4.856   5.679  -2.295  0.00  0.00    -0.134 NA
ATOM     11  C   UNL     1      -4.234   4.733  -2.964  0.00  0.00    +0.237 A 
ATOM     12  N   UNL     1      -2.293   4.681   0.017  0.00  0.00    -0.303 N 
ATOM     13  C   UNL     1      -0.744   1.586  -1.206  0.00  0.00    +0.162 C 
ATOM     14  O   UNL     1      -0.693   0.943  -2.236  0.00  0.00    -0.292 OA
ATOM     15  C   UNL     1      -0.013   1.086   0.008  0.00  0.00    +0.088 C 
ATOM     16  H   UNL     1      -2.173   5.302   0.753  0.00  0.00    +0.153 HD
ENDROOT
BRANCH   1  20
ATOM     17  C   UNL     1       1.460   0.408   4.743  0.00  0.00    +0.161 A 
ATOM     18  C   UNL     1       2.051   1.219   3.788  0.00  0.00    +0.049 A 
ATOM     19  C   UNL     1       1.341   1.593   2.663  0.00  0.00    +0.008 A 
ATOM     20  C   UNL     1       0.037   1.167   2.491  0.00  0.00    -0.040 A 
ATOM     21  C   UNL     1      -0.559   0.357   3.440  0.00  0.00    +0.053 A 
ATOM     22  C   UNL     1       0.149  -0.025   4.568  0.00  0.00    +0.162 A 
BRANCH  17  24
ATOM     23  C   UNL     1       3.499   0.516   5.961  0.00  0.00    +0.277 C 
ATOM     24  O   UNL     1       2.159   0.034   5.848  0.00  0.00    -0.491 OA
ENDBRANCH  17  24
BRANCH  22  25
ATOM     25  O   UNL     1      -0.436  -0.822   5.502  0.00  0.00    -0.491 OA
ATOM     26  C   UNL     1      -1.784  -1.227   5.256  0.00  0.00    +0.277 C 
ENDBRANCH  22  25
ENDBRANCH   1  20
BRANCH   5  27
ATOM     27  C   UNL     1      -1.172   3.695  -3.446  0.00  0.00    -0.024 A 
ATOM     28  C   UNL     1      -0.402   4.799  -3.131  0.00  0.00    +0.005 A 
ATOM     29  C   UNL     1       0.528   5.274  -4.035  0.00  0.00    +0.000 A 
ATOM     30  C   UNL     1       0.690   4.644  -5.256  0.00  0.00    +0.001 A 
ATOM     31  C   UNL     1      -0.079   3.540  -5.571  0.00  0.00    +0.012 A 
ATOM     32  C   UNL     1      -1.007   3.062  -4.664  0.00  0.00    +0.059 A 
BRANCH  32  33
ATOM     33  C   UNL     1      -1.842   1.855  -5.006  0.00  0.00    +0.418 C 
ATOM     34  F   UNL     1      -1.497   1.395  -6.281  0.00  0.00    -0.166 F 
ATOM     35  F   UNL     1      -1.608   0.845  -4.066  0.00  0.00    -0.166 F 
ATOM     36  F   UNL     1      -3.197   2.205  -4.987  0.00  0.00    -0.166 F 
ENDBRANCH  32  33
ENDBRANCH   5  27
BRANCH  11  37
ATOM     37  O   UNL     1      -4.551   4.301  -4.214  0.00  0.00    -0.491 OA
ATOM     38  H   UNL     1      -5.337   4.816  -4.556  0.00  0.00    +0.294 HD
ENDBRANCH  11  37
TORSDOF 6
