REMARK  Name = ZINC19766933
REMARK  6 active torsions:
REMARK  status: ('A' for Active; 'I' for Inactive)
REMARK    1  A    between atoms: C_1  and  C_2
REMARK    2  A    between atoms: C_2  and  C_3
REMARK    3  A    between atoms: N_9  and  C_10
REMARK    4  A    between atoms: N_15  and  C_18
REMARK    5  A    between atoms: C_21  and  C_25
REMARK    6  A    between atoms: C_22  and  O_24
REMARK                            x       y       z     vdW  Elec       q    Type
REMARK                         _______ _______ _______ _____ _____    ______ ____
ROOT
ATOM      1  C   UNL     1       3.052  -0.809   1.991  0.00  0.00    +0.029 C 
ATOM      2  C   UNL     1       3.133  -2.303   1.613  0.00  0.00    +0.091 C 
ATOM      3  C   UNL     1       2.703  -3.012   2.879  0.00  0.00    +0.225 C 
ATOM      4  O   UNL     1       2.624  -4.214   3.018  0.00  0.00    -0.275 OA
ATOM      5  N   UNL     1       2.424  -2.102   3.821  0.00  0.00    -0.212 N 
ATOM      6  C   UNL     1       2.586  -0.832   3.430  0.00  0.00    +0.213 C 
ATOM      7  O   UNL     1       2.390   0.145   4.120  0.00  0.00    -0.277 OA
ENDROOT
BRANCH   1  13
ATOM      8  C   UNL     1       2.092   1.333   1.399  0.00  0.00    -0.068 C 
ATOM      9  C   UNL     1       1.173   2.039   0.400  0.00  0.00    -0.015 C 
ATOM     10  C   UNL     1      -0.250   1.491   0.547  0.00  0.00    -0.003 C 
ATOM     11  C   UNL     1      -0.230  -0.023   0.322  0.00  0.00    -0.019 C 
ATOM     12  C   UNL     1       0.730  -0.670   1.323  0.00  0.00    -0.077 C 
ATOM     13  N   UNL     1       2.076  -0.113   1.142  0.00  0.00    +0.390 N 
ATOM     14  H   UNL     1       2.366  -0.271   0.092  0.00  0.00    -0.080 HD
BRANCH   8  16
ATOM     15  C   UNL     1       3.548   3.355   1.579  0.00  0.00    +0.002 C 
ATOM     16  C   UNL     1       3.518   1.863   1.242  0.00  0.00    -0.019 C 
ENDBRANCH   8  16
ENDBRANCH   1  13
BRANCH   5  17
ATOM     17  C   UNL     1       1.998  -2.450   5.106  0.00  0.00    +0.047 A 
ATOM     18  C   UNL     1       2.839  -2.240   6.196  0.00  0.00    +0.025 A 
ATOM     19  C   UNL     1       2.431  -2.570   7.456  0.00  0.00    +0.020 A 
ATOM     20  C   UNL     1       1.168  -3.135   7.659  0.00  0.00    +0.105 A 
ATOM     21  C   UNL     1       0.319  -3.354   6.563  0.00  0.00    +0.133 A 
ATOM     22  C   UNL     1       0.741  -3.009   5.290  0.00  0.00    +0.070 A 
BRANCH  20  23
ATOM     23  C   UNL     1       0.730  -3.497   9.017  0.00  0.00    +0.390 C 
ATOM     24  O   UNL     1      -0.369  -3.987   9.191  0.00  0.00    -0.240 OA
ATOM     25  O   UNL     1       1.547  -3.285  10.068  0.00  0.00    -0.240 OA
ENDBRANCH  20  23
BRANCH  21  26
ATOM     26  O   UNL     1      -0.908  -3.901   6.749  0.00  0.00    -0.506 OA
ATOM     27  H   UNL     1      -1.571  -4.072   5.888  0.00  0.00    +0.292 HD
ENDBRANCH  21  26
ENDBRANCH   5  17
TORSDOF 5
