REMARK  Name = ZINC27489563
REMARK  8 active torsions:
REMARK  status: ('A' for Active; 'I' for Inactive)
REMARK    1  A    between atoms: C_4  and  N_7
REMARK    2  A    between atoms: C_8  and  C_10
REMARK    3  A    between atoms: C_10  and  C_11
REMARK    4  A    between atoms: N_17  and  N_18
REMARK    5  A    between atoms: C_19  and  C_20
REMARK    6  A    between atoms: C_24  and  O_26
REMARK    7  A    between atoms: O_26  and  C_27
REMARK    8  A    between atoms: C_27  and  C_28
REMARK                            x       y       z     vdW  Elec       q    Type
REMARK                         _______ _______ _______ _____ _____    ______ ____
ROOT
ATOM      1  C   UNL     1       7.229   0.308  -0.383  0.00  0.00    +0.149 C 
ATOM      2  C   UNL     1       8.563  -0.394  -0.580  0.00  0.00    +0.233 C 
ATOM      3  O   UNL     1       9.022  -1.151   0.249  0.00  0.00    -0.274 OA
ATOM      4  N   UNL     1       9.191  -0.127  -1.712  0.00  0.00    -0.263 N 
ATOM      5  C   UNL     1       8.675   0.732  -2.658  0.00  0.00    +0.183 C 
ATOM      6  N   UNL     1       9.199   1.076  -3.817  0.00  0.00    -0.127 NA
ATOM      7  S   UNL     1       7.127   1.267  -1.945  0.00  0.00    -0.075 S 
ATOM      8  H   UNL     1      10.162  -0.598  -1.926  0.00  0.00    +0.157 HD
ENDROOT
BRANCH   6   9
ATOM      9  N   UNL     1      10.338   0.590  -4.180  0.00  0.00    -0.155 NA
ATOM     10  C   UNL     1      10.857   0.931  -5.327  0.00  0.00    +0.143 C 
BRANCH  10  11
ATOM     11  C   UNL     1      12.155   0.376  -5.742  0.00  0.00    -0.002 A 
ATOM     12  C   UNL     1      12.838  -0.513  -4.905  0.00  0.00    +0.010 A 
ATOM     13  C   UNL     1      14.052  -1.035  -5.300  0.00  0.00    +0.004 A 
ATOM     14  C   UNL     1      14.603  -0.673  -6.516  0.00  0.00    +0.046 A 
ATOM     15  C   UNL     1      13.936   0.213  -7.352  0.00  0.00    +0.122 A 
ATOM     16  C   UNL     1      12.715   0.740  -6.970  0.00  0.00    +0.055 A 
BRANCH  15  17
ATOM     17  O   UNL     1      14.484   0.564  -8.545  0.00  0.00    -0.481 OA
BRANCH  17  18
ATOM     18  C   UNL     1      15.746  -0.018  -8.876  0.00  0.00    +0.353 C 
BRANCH  18  19
ATOM     19  C   UNL     1      16.193   0.484 -10.225  0.00  0.00    +0.393 C 
ATOM     20  O   UNL     1      15.501   1.260 -10.840  0.00  0.00    -0.243 OA
ATOM     21  O   UNL     1      17.360   0.069 -10.743  0.00  0.00    -0.243 OA
ENDBRANCH  18  19
ENDBRANCH  17  18
ENDBRANCH  15  17
ENDBRANCH  10  11
ENDBRANCH   6   9
BRANCH   1  22
ATOM     22  C   UNL     1       6.083  -0.701  -0.276  0.00  0.00    +0.120 C 
BRANCH  22  24
ATOM     23  N   UNL     1       3.622  -0.651  -0.036  0.00  0.00    -0.285 N 
ATOM     24  C   UNL     1       4.776   0.037  -0.145  0.00  0.00    +0.219 C 
ATOM     25  O   UNL     1       4.761   1.250  -0.139  0.00  0.00    -0.275 OA
ATOM     26  H   UNL     1       3.641  -1.747   0.045  0.00  0.00    +0.155 HD
BRANCH  23  30
ATOM     27  C   UNL     1      -0.017   1.378  -0.006  0.00  0.00    +0.000 A 
ATOM     28  C   UNL     1       0.133   0.219   0.734  0.00  0.00    +0.002 A 
ATOM     29  C   UNL     1       1.338  -0.456   0.726  0.00  0.00    +0.023 A 
ATOM     30  C   UNL     1       2.399   0.030  -0.026  0.00  0.00    +0.033 A 
ATOM     31  C   UNL     1       2.245   1.194  -0.768  0.00  0.00    +0.023 A 
ATOM     32  C   UNL     1       1.038   1.865  -0.756  0.00  0.00    +0.002 A 
ENDBRANCH  23  30
ENDBRANCH  22  24
ENDBRANCH   1  22
TORSDOF 8
