REMARK  Name = ZINC67031406
REMARK  3 active torsions:
REMARK  status: ('A' for Active; 'I' for Inactive)
REMARK    1  A    between atoms: C_1  and  N_2
REMARK    2  A    between atoms: C_3  and  C_5
REMARK    3  A    between atoms: C_16  and  C_18
REMARK                            x       y       z     vdW  Elec       q    Type
REMARK                         _______ _______ _______ _____ _____    ______ ____
ROOT
ATOM      1  C   UNL     1      -1.654  -3.747  -0.388  0.00  0.00    +0.276 C 
ATOM      2  C   UNL     1      -0.387  -3.376   0.398  0.00  0.00    +0.168 C 
ATOM      3  N   UNL     1       0.607  -4.438   0.166  0.00  0.00    -0.260 N 
ATOM      4  C   UNL     1       0.734  -4.940  -1.140  0.00  0.00    +0.079 A 
ATOM      5  C   UNL     1       1.827  -5.720  -1.482  0.00  0.00    +0.027 A 
ATOM      6  C   UNL     1       1.946  -6.214  -2.767  0.00  0.00    +0.002 A 
ATOM      7  C   UNL     1       0.975  -5.931  -3.711  0.00  0.00    +0.004 A 
ATOM      8  C   UNL     1      -0.117  -5.152  -3.376  0.00  0.00    +0.047 A 
ATOM      9  C   UNL     1      -0.243  -4.651  -2.089  0.00  0.00    +0.143 A 
ATOM     10  O   UNL     1      -1.318  -3.882  -1.771  0.00  0.00    -0.476 OA
ATOM     11  C   UNL     1       1.369  -4.911   1.172  0.00  0.00    +0.255 C 
ATOM     12  O   UNL     1       2.102  -5.863   0.983  0.00  0.00    -0.269 OA
ENDROOT
BRANCH  11  13
ATOM     13  C   UNL     1       1.314  -4.275   2.502  0.00  0.00    +0.082 A 
ATOM     14  C   UNL     1       1.275  -2.882   2.612  0.00  0.00    +0.017 A 
ATOM     15  C   UNL     1       1.224  -2.292   3.855  0.00  0.00    +0.005 A 
ATOM     16  C   UNL     1       1.211  -3.072   5.000  0.00  0.00    +0.049 A 
ATOM     17  C   UNL     1       1.250  -4.454   4.907  0.00  0.00    +0.163 A 
ATOM     18  C   UNL     1       1.294  -5.064   3.659  0.00  0.00    +0.174 A 
ATOM     19  O   UNL     1       1.319  -6.417   3.545  0.00  0.00    -0.484 OA
ATOM     20  C   UNL     1       1.674  -7.156   4.719  0.00  0.00    +0.270 C 
ATOM     21  C   UNL     1       0.885  -6.583   5.904  0.00  0.00    +0.270 C 
ATOM     22  O   UNL     1       1.241  -5.200   6.046  0.00  0.00    -0.485 OA
ENDBRANCH  11  13
BRANCH   1  25
ATOM     23  C   UNL     1      -4.228  -1.369   1.152  0.00  0.00    +0.128 C 
ATOM     24  N   UNL     1      -3.224  -2.424   0.991  0.00  0.00    -0.315 N 
ATOM     25  C   UNL     1      -2.686  -2.662  -0.222  0.00  0.00    +0.255 C 
ATOM     26  O   UNL     1      -3.034  -2.004  -1.179  0.00  0.00    -0.272 OA
ATOM     27  H   UNL     1      -2.946  -2.950   1.757  0.00  0.00    +0.148 HD
ENDBRANCH   1  25
TORSDOF 2
