REMARK  Name = ZINC39480001
REMARK  5 active torsions:
REMARK  status: ('A' for Active; 'I' for Inactive)
REMARK    1  A    between atoms: C_1  and  C_2
REMARK    2  A    between atoms: C_2  and  C_3
REMARK    3  A    between atoms: C_2  and  S_4
REMARK    4  A    between atoms: S_4  and  C_7
REMARK    5  A    between atoms: N_16  and  C_26
REMARK                            x       y       z     vdW  Elec       q    Type
REMARK                         _______ _______ _______ _____ _____    ______ ____
ROOT
ATOM      1  C   UNL     1      -0.038   0.027   2.837  0.00  0.00    +0.159 C 
ATOM      2  N   UNL     1      -0.906  -0.704   3.367  0.00  0.00    -0.227 NA
ATOM      3  C   UNL     1      -1.771  -0.860   4.359  0.00  0.00    +0.142 A 
ATOM      4  C   UNL     1      -1.901  -0.051   5.503  0.00  0.00    +0.156 A 
ATOM      5  N   UNL     1      -2.748  -0.398   6.466  0.00  0.00    -0.218 NA
ATOM      6  C   UNL     1      -3.524  -1.455   6.349  0.00  0.00    +0.225 A 
ATOM      7  N   UNL     1      -3.487  -2.212   5.270  0.00  0.00    -0.222 NA
ATOM      8  C   UNL     1      -2.650  -1.963   4.283  0.00  0.00    +0.160 A 
ATOM      9 CL   UNL     1      -2.627  -2.993   2.886  0.00  0.00    -0.060 Cl
ATOM     10  N   UNL     1      -1.206   1.136   5.628  0.00  0.00    -0.285 N 
ATOM     11  C   UNL     1       0.184   1.146   5.790  0.00  0.00    +0.052 A 
ATOM     12  C   UNL     1       0.950   1.326   4.655  0.00  0.00    -0.015 A 
ATOM     13  C   UNL     1       2.325   1.379   4.747  0.00  0.00    +0.044 A 
ATOM     14  C   UNL     1       2.931   1.230   5.986  0.00  0.00    +0.125 A 
ATOM     15  C   UNL     1       2.164   1.030   7.121  0.00  0.00    +0.054 A 
ATOM     16  C   UNL     1       0.783   0.988   7.028  0.00  0.00    +0.038 A 
ATOM     17  I   UNL     1      -0.386   0.688   8.741  0.00  0.00    -0.042 I 
ATOM     18  F   UNL     1       4.278   1.280   6.085  0.00  0.00    -0.205 F 
ATOM     19  C   UNL     1       0.258   1.426   3.324  0.00  0.00    +0.112 C 
ATOM     20  C   UNL     1      -1.937   2.406   5.591  0.00  0.00    +0.137 C 
ENDROOT
BRANCH   1  21
ATOM     21  S   UNL     1       0.879  -0.605   1.472  0.00  0.00    +0.013 S 
ATOM     22  O   UNL     1       0.754  -2.017   1.573  0.00  0.00    -0.168 OA
ATOM     23  O   UNL     1       2.152   0.018   1.571  0.00  0.00    -0.168 OA
BRANCH  21  25
ATOM     24  C   UNL     1      -0.019   1.526   0.010  0.00  0.00    +0.032 C 
ATOM     25  C   UNL     1       0.002  -0.004   0.002  0.00  0.00    +0.131 C 
ATOM     26  C   UNL     1       0.718  -0.497  -1.257  0.00  0.00    +0.032 C 
ENDBRANCH  21  25
ENDBRANCH   1  21
TORSDOF 2
