REMARK  Name = ZINC06514327
REMARK  4 active torsions:
REMARK  status: ('A' for Active; 'I' for Inactive)
REMARK    1  A    between atoms: C_4  and  C_7
REMARK    2  A    between atoms: C_8  and  C_9
REMARK    3  A    between atoms: C_10  and  S_19
REMARK    4  A    between atoms: S_19  and  N_22
REMARK                            x       y       z     vdW  Elec       q    Type
REMARK                         _______ _______ _______ _____ _____    ______ ____
ROOT
ATOM      1  C   UNL     1       1.085   3.343  -0.202  0.00  0.00    +0.075 A 
ATOM      2  C   UNL     1      -0.141   3.940   0.021  0.00  0.00    +0.193 A 
ATOM      3  C   UNL     1      -1.264   3.122   0.242  0.00  0.00    +0.281 A 
ATOM      4  O   UNL     1      -2.357   3.623   0.442  0.00  0.00    -0.266 OA
ATOM      5  N   UNL     1      -1.126   1.782   0.229  0.00  0.00    -0.273 N 
ATOM      6  H   UNL     1      -1.926   1.202   0.379  0.00  0.00    +0.173 HD
ATOM      7  C   UNL     1       0.075   1.215   0.015  0.00  0.00    +0.327 A 
ATOM      8  O   UNL     1       0.170   0.003   0.013  0.00  0.00    -0.247 OA
ATOM      9  N   UNL     1       1.171   1.964  -0.201  0.00  0.00    -0.306 N 
ATOM     10  H   UNL     1       2.053   1.520  -0.361  0.00  0.00    +0.170 HD
ENDROOT
BRANCH   2  11
ATOM     11  S   UNL     1      -0.294   5.695   0.027  0.00  0.00    +0.068 S 
ATOM     12  O   UNL     1      -1.505   5.995   0.707  0.00  0.00    -0.153 OA
ATOM     13  O   UNL     1       0.962   6.212   0.444  0.00  0.00    -0.153 OA
BRANCH  11  14
ATOM     14  N   UNL     1      -0.504   6.174  -1.545  0.00  0.00    -0.176 NA
ATOM     15  C   UNL     1       0.653   6.506  -2.387  0.00  0.00    +0.109 C 
ATOM     16  C   UNL     1       0.575   5.673  -3.675  0.00  0.00    +0.017 C 
ATOM     17  C   UNL     1      -0.779   5.910  -4.347  0.00  0.00    +0.003 C 
ATOM     18  C   UNL     1      -1.901   5.455  -3.411  0.00  0.00    +0.017 C 
ATOM     19  C   UNL     1      -1.851   6.280  -2.122  0.00  0.00    +0.109 C 
ENDBRANCH  11  14
ENDBRANCH   2  11
BRANCH   1  21
ATOM     20  C   UNL     1       3.487   3.574  -0.534  0.00  0.00    +0.010 C 
ATOM     21  C   UNL     1       2.276   4.160  -0.436  0.00  0.00    +0.028 C 
BRANCH  20  25
ATOM     22  C   UNL     1       6.941   5.942  -1.212  0.00  0.00    +0.000 A 
ATOM     23  C   UNL     1       7.061   4.568  -1.093  0.00  0.00    +0.001 A 
ATOM     24  C   UNL     1       5.943   3.792  -0.873  0.00  0.00    +0.008 A 
ATOM     25  C   UNL     1       4.686   4.395  -0.770  0.00  0.00    -0.025 A 
ATOM     26  C   UNL     1       4.572   5.783  -0.897  0.00  0.00    +0.008 A 
ATOM     27  C   UNL     1       5.700   6.547  -1.111  0.00  0.00    +0.001 A 
ENDBRANCH  20  25
ENDBRANCH   1  21
TORSDOF 4
