REMARK  Name = ZINC38647543
REMARK  8 active torsions:
REMARK  status: ('A' for Active; 'I' for Inactive)
REMARK    1  A    between atoms: C_1  and  N_2
REMARK    2  A    between atoms: N_2  and  S_3
REMARK    3  A    between atoms: S_3  and  C_6
REMARK    4  A    between atoms: C_8  and  C_16
REMARK    5  A    between atoms: N_18  and  C_19
REMARK    6  A    between atoms: C_19  and  C_20
REMARK    7  A    between atoms: N_25  and  C_26
REMARK    8  A    between atoms: C_26  and  C_27
REMARK                            x       y       z     vdW  Elec       q    Type
REMARK                         _______ _______ _______ _____ _____    ______ ____
ROOT
ATOM      1  C   UNL     1      -0.182   2.009   5.502  0.00  0.00    +0.248 C 
ATOM      2  O   UNL     1      -0.808   2.239   6.518  0.00  0.00    -0.270 OA
ATOM      3  N   UNL     1       0.843   2.808   5.146  0.00  0.00    -0.313 N 
ATOM      4  H   UNL     1       1.343   2.625   4.336  0.00  0.00    +0.149 HD
ENDROOT
BRANCH   1   7
ATOM      5  C   UNL     1      -0.166  -0.494   2.705  0.00  0.00    +0.110 A 
ATOM      6  C   UNL     1       0.174   0.587   3.489  0.00  0.00    +0.045 A 
ATOM      7  C   UNL     1      -0.544   0.854   4.658  0.00  0.00    +0.084 A 
ATOM      8  C   UNL     1      -1.609   0.020   5.025  0.00  0.00    +0.174 A 
ATOM      9  C   UNL     1      -1.942  -1.064   4.223  0.00  0.00    +0.165 A 
ATOM     10  C   UNL     1      -1.222  -1.314   3.064  0.00  0.00    +0.078 A 
ATOM     11  O   UNL     1      -2.977  -1.883   4.555  0.00  0.00    -0.485 OA
ATOM     12  C   UNL     1      -3.439  -1.819   5.909  0.00  0.00    +0.270 C 
ATOM     13  C   UNL     1      -3.582  -0.341   6.297  0.00  0.00    +0.270 C 
ATOM     14  O   UNL     1      -2.300   0.283   6.164  0.00  0.00    -0.484 OA
BRANCH   5  15
ATOM     15  S   UNL     1       0.742  -0.829   1.233  0.00  0.00    +0.058 S 
ATOM     16  O   UNL     1       0.570  -2.212   0.955  0.00  0.00    -0.153 OA
ATOM     17  O   UNL     1       2.024  -0.240   1.403  0.00  0.00    -0.153 OA
BRANCH  15  19
ATOM     18  C   UNL     1      -0.018   1.461   0.010  0.00  0.00    +0.127 C 
ATOM     19  N   UNL     1       0.002  -0.004   0.002  0.00  0.00    -0.193 NA
ATOM     20  H   UNL     1      -0.418  -0.491  -0.724  0.00  0.00    +0.148 HD
ENDBRANCH  15  19
ENDBRANCH   5  15
ENDBRANCH   1   7
BRANCH   3  21
ATOM     21  C   UNL     1       1.202   3.955   5.984  0.00  0.00    +0.089 C 
BRANCH  21  22
ATOM     22  C   UNL     1       2.390   4.691   5.360  0.00  0.00    -0.051 C 
ATOM     23  C   UNL     1       2.670   5.993   6.140  0.00  0.00    -0.016 C 
ATOM     24  C   UNL     1       3.049   6.996   5.020  0.00  0.00    -0.020 C 
ATOM     25  C   UNL     1       2.116   6.547   3.868  0.00  0.00    -0.078 C 
ATOM     26  N   UNL     1       2.072   5.069   3.971  0.00  0.00    +0.385 N 
ATOM     27  H   UNL     1       1.149   4.739   3.732  0.00  0.00    -0.081 HD
BRANCH  26  28
ATOM     28  C   UNL     1       3.059   4.476   3.059  0.00  0.00    -0.047 C 
BRANCH  28  29
ATOM     29  C   UNL     1       2.661   4.763   1.634  0.00  0.00    -0.090 C 
ATOM     30  C   UNL     1       3.189   5.792   1.052  0.00  0.00    -0.029 C 
ATOM     31  C   UNL     1       2.883   6.209  -0.357  0.00  0.00    +0.027 C 
ATOM     32  C   UNL     1       2.229   5.054  -1.119  0.00  0.00    +0.004 C 
ATOM     33  C   UNL     1       1.081   4.499  -0.266  0.00  0.00    +0.005 C 
ATOM     34  C   UNL     1       1.683   3.834   0.976  0.00  0.00    +0.028 C 
ENDBRANCH  28  29
ENDBRANCH  26  28
ENDBRANCH  21  22
ENDBRANCH   3  21
TORSDOF 7
