REMARK  Name = ZINC32160528
REMARK  6 active torsions:
REMARK  status: ('A' for Active; 'I' for Inactive)
REMARK    1  A    between atoms: C_3  and  S_23
REMARK    2  A    between atoms: C_6  and  C_7
REMARK    3  A    between atoms: C_8  and  C_9
REMARK    4  A    between atoms: N_11  and  C_12
REMARK    5  A    between atoms: S_23  and  N_26
REMARK    6  A    between atoms: N_26  and  C_27
REMARK                            x       y       z     vdW  Elec       q    Type
REMARK                         _______ _______ _______ _____ _____    ______ ____
ROOT
ATOM      1  C   UNL     1      -2.913   2.946   5.079  0.00  0.00    +0.013 C 
ATOM      2  C   UNL     1      -2.819   4.215   5.527  0.00  0.00    +0.068 C 
ENDROOT
BRANCH   1   8
ATOM      3  C   UNL     1      -2.260   1.217   3.414  0.00  0.00    +0.010 A 
ATOM      4  C   UNL     1      -1.556   0.835   2.292  0.00  0.00    +0.029 A 
ATOM      5  C   UNL     1      -0.756   1.750   1.628  0.00  0.00    +0.105 A 
ATOM      6  C   UNL     1      -0.653   3.051   2.087  0.00  0.00    +0.029 A 
ATOM      7  C   UNL     1      -1.355   3.449   3.205  0.00  0.00    +0.010 A 
ATOM      8  C   UNL     1      -2.165   2.531   3.881  0.00  0.00    -0.025 A 
BRANCH   5   9
ATOM      9  S   UNL     1       0.140   1.252   0.195  0.00  0.00    +0.059 S 
ATOM     10  O   UNL     1       0.308  -0.156   0.289  0.00  0.00    -0.153 OA
ATOM     11  O   UNL     1       1.240   2.144   0.073  0.00  0.00    -0.153 OA
BRANCH   9  12
ATOM     12  N   UNL     1      -0.838   1.526  -1.114  0.00  0.00    -0.187 NA
ATOM     13  H   UNL     1      -1.323   0.672  -1.610  0.00  0.00    +0.148 HD
BRANCH  12  14
ATOM     14  C   UNL     1      -1.224   2.894  -1.466  0.00  0.00    +0.077 C 
ATOM     15  C   UNL     1      -2.614   3.103  -2.070  0.00  0.00    +0.022 C 
ATOM     16  C   UNL     1      -1.371   3.226  -2.953  0.00  0.00    +0.022 C 
ENDBRANCH  12  14
ENDBRANCH   9  12
ENDBRANCH   5   9
ENDBRANCH   1   8
BRANCH   2  17
ATOM     17  C   UNL     1      -3.563   4.628   6.718  0.00  0.00    +0.241 C 
ATOM     18  O   UNL     1      -4.266   3.826   7.304  0.00  0.00    -0.270 OA
ATOM     19  N   UNL     1      -3.469   5.896   7.165  0.00  0.00    -0.281 N 
ATOM     20  H   UNL     1      -2.768   6.596   6.689  0.00  0.00    +0.155 HD
BRANCH  19  21
ATOM     21  C   UNL     1      -4.263   6.320   8.236  0.00  0.00    +0.052 A 
ATOM     22  C   UNL     1      -5.543   5.798   8.417  0.00  0.00    +0.028 A 
ATOM     23  C   UNL     1      -6.290   6.243   9.493  0.00  0.00    +0.048 A 
ATOM     24  C   UNL     1      -5.748   7.197  10.345  0.00  0.00    +0.139 A 
ATOM     25  N   UNL     1      -4.532   7.676  10.140  0.00  0.00    -0.236 NA
ATOM     26  C   UNL     1      -3.789   7.272   9.129  0.00  0.00    +0.136 A 
ATOM     27  N   UNL     1      -6.498   7.658  11.433  0.00  0.00    -0.290 N 
ATOM     28  C   UNL     1      -6.105   8.591  12.358  0.00  0.00    +0.114 A 
ATOM     29  C   UNL     1      -7.126   8.735  13.224  0.00  0.00    +0.130 A 
ATOM     30  N   UNL     1      -8.117   7.916  12.844  0.00  0.00    -0.244 NA
ATOM     31  C   UNL     1      -7.756   7.269  11.770  0.00  0.00    +0.205 A 
ENDBRANCH  19  21
ENDBRANCH   2  17
TORSDOF 6
