REMARK  Name = ZINC09763632
REMARK  7 active torsions:
REMARK  status: ('A' for Active; 'I' for Inactive)
REMARK    1  A    between atoms: C_3  and  O_20
REMARK    2  A    between atoms: C_6  and  C_7
REMARK    3  A    between atoms: N_8  and  N_9
REMARK    4  A    between atoms: C_14  and  C_17
REMARK    5  A    between atoms: C_17  and  C_18
REMARK    6  A    between atoms: O_20  and  C_21
REMARK    7  A    between atoms: C_21  and  C_22
REMARK                            x       y       z     vdW  Elec       q    Type
REMARK                         _______ _______ _______ _____ _____    ______ ____
ROOT
ATOM      1  C   UNL     1      -1.237   2.152   0.020  0.00  0.00    +0.013 A 
ATOM      2  C   UNL     1      -1.250   3.530   0.033  0.00  0.00    +0.046 A 
ATOM      3  C   UNL     1      -0.056   4.238   0.025  0.00  0.00    +0.121 A 
ATOM      4  C   UNL     1       1.158   3.563   0.010  0.00  0.00    +0.046 A 
ATOM      5  C   UNL     1       1.183   2.185   0.003  0.00  0.00    +0.013 A 
ATOM      6  C   UNL     1      -0.018   1.467   0.010  0.00  0.00    -0.005 A 
ENDROOT
BRANCH   6   7
ATOM      7  C   UNL     1       0.002  -0.004   0.002  0.00  0.00    +0.143 C 
ATOM      8  N   UNL     1      -1.119  -0.672   0.009  0.00  0.00    -0.155 NA
BRANCH   8   9
ATOM      9  N   UNL     1      -1.102  -1.962   0.002  0.00  0.00    -0.127 NA
ATOM     10  C   UNL     1      -2.233  -2.636   0.009  0.00  0.00    +0.183 C 
ATOM     11  N   UNL     1      -3.519  -2.139   0.030  0.00  0.00    -0.263 N 
ATOM     12  C   UNL     1      -4.581  -2.927   0.032  0.00  0.00    +0.233 C 
ATOM     13  O   UNL     1      -5.711  -2.486   0.045  0.00  0.00    -0.274 OA
ATOM     14  C   UNL     1      -4.298  -4.420   0.021  0.00  0.00    +0.151 C 
ATOM     15  S   UNL     1      -2.462  -4.407   0.002  0.00  0.00    -0.075 S 
ATOM     16  H   UNL     1      -3.650  -1.178   0.041  0.00  0.00    +0.157 HD
BRANCH  14  17
ATOM     17  C   UNL     1      -4.860  -5.083  -1.239  0.00  0.00    +0.149 C 
BRANCH  17  18
ATOM     18  C   UNL     1      -4.503  -6.547  -1.238  0.00  0.00    +0.358 C 
ATOM     19  O   UNL     1      -3.864  -7.013  -0.325  0.00  0.00    -0.246 OA
ATOM     20  O   UNL     1      -4.894  -7.334  -2.253  0.00  0.00    -0.246 OA
ENDBRANCH  17  18
ENDBRANCH  14  17
ENDBRANCH   8   9
ENDBRANCH   6   7
BRANCH   3  21
ATOM     21  O   UNL     1      -0.074   5.597   0.032  0.00  0.00    -0.487 OA
BRANCH  21  22
ATOM     22  C   UNL     1      -1.356   6.228   0.047  0.00  0.00    +0.264 C 
BRANCH  22  23
ATOM     23  C   UNL     1      -1.179   7.725   0.052  0.00  0.00    -0.009 A 
ATOM     24  C   UNL     1      -1.092   8.406   1.252  0.00  0.00    +0.008 A 
ATOM     25  C   UNL     1      -0.923   9.778   1.259  0.00  0.00    +0.022 A 
ATOM     26  C   UNL     1      -0.853  10.472   0.064  0.00  0.00    +0.059 A 
ATOM     27  C   UNL     1      -0.946   9.790  -1.138  0.00  0.00    +0.060 A 
ATOM     28  C   UNL     1      -1.109   8.416  -1.142  0.00  0.00    +0.028 A 
ATOM     29 CL   UNL     1      -0.858  10.659  -2.638  0.00  0.00    -0.082 Cl
ATOM     30 CL   UNL     1      -0.649  12.195   0.071  0.00  0.00    -0.082 Cl
ENDBRANCH  22  23
ENDBRANCH  21  22
ENDBRANCH   3  21
TORSDOF 7
