REMARK  Name = ZINC17043953
REMARK  11 active torsions:
REMARK  status: ('A' for Active; 'I' for Inactive)
REMARK    1  A    between atoms: C_1  and  C_2
REMARK    2  A    between atoms: C_2  and  C_3
REMARK    3  A    between atoms: C_3  and  C_5
REMARK    4  A    between atoms: C_3  and  C_6
REMARK    5  A    between atoms: C_11  and  C_34
REMARK    6  A    between atoms: C_21  and  O_32
REMARK    7  A    between atoms: C_25  and  N_75
REMARK    8  A    between atoms: C_30  and  N_75
REMARK    9  A    between atoms: C_31  and  N_75
REMARK   10  A    between atoms: O_32  and  C_33
REMARK   11  A    between atoms: C_34  and  C_35
REMARK                            x       y       z     vdW  Elec       q    Type
REMARK                         _______ _______ _______ _____ _____    ______ ____
ROOT
ATOM      1  C   UNL     1      -2.123   2.507   1.786  0.00  0.00    +0.162 C 
ATOM      2  C   UNL     1      -1.939   1.436   0.743  0.00  0.00    +0.234 C 
ATOM      3  O   UNL     1      -0.981   0.694   0.787  0.00  0.00    -0.274 OA
ATOM      4  N   UNL     1      -2.866   1.313  -0.251  0.00  0.00    -0.302 N 
ATOM      5  C   UNL     1      -2.564   0.303  -1.285  0.00  0.00    +0.163 C 
ATOM      6  C   UNL     1      -3.098   0.759  -2.610  0.00  0.00    +0.237 C 
ATOM      7  O   UNL     1      -3.823   0.029  -3.251  0.00  0.00    -0.273 OA
ATOM      8  N   UNL     1      -2.771   1.994  -3.103  0.00  0.00    -0.290 N 
ATOM      9  C   UNL     1      -3.211   2.194  -4.422  0.00  0.00    +0.075 C 
ATOM     10  C   UNL     1      -2.889   3.272  -5.119  0.00  0.00    +0.023 C 
ATOM     11  C   UNL     1      -2.178   4.431  -4.556  0.00  0.00    -0.023 A 
ATOM     12  C   UNL     1      -1.502   5.298  -5.426  0.00  0.00    +0.011 A 
ATOM     13  C   UNL     1      -0.836   6.394  -4.928  0.00  0.00    +0.046 A 
ATOM     14  C   UNL     1      -0.836   6.645  -3.563  0.00  0.00    +0.123 A 
ATOM     15  C   UNL     1      -1.501   5.791  -2.694  0.00  0.00    -0.006 A 
ATOM     16  C   UNL     1      -2.159   4.682  -3.184  0.00  0.00    +0.015 A 
ATOM     17  C   UNL     1      -1.499   6.083  -1.217  0.00  0.00    +0.032 C 
ATOM     18  C   UNL     1      -0.557   5.114  -0.499  0.00  0.00    +0.023 C 
ATOM     19  C   UNL     1      -1.353   3.955   0.039  0.00  0.00    +0.200 C 
ATOM     20  O   UNL     1      -2.031   3.277  -0.703  0.00  0.00    -0.278 OA
ATOM     21  N   UNL     1      -1.299   3.678   1.379  0.00  0.00    -0.305 N 
ATOM     22  H   UNL     1      -3.671   1.854  -0.276  0.00  0.00    +0.150 HD
ATOM     23  H   UNL     1      -2.287   2.662  -2.593  0.00  0.00    +0.154 HD
ATOM     24  H   UNL     1      -0.771   4.197   2.006  0.00  0.00    +0.149 HD
ENDROOT
BRANCH  18  27
ATOM     25  C   UNL     1       1.471   5.643  -1.710  0.00  0.00    -0.096 C 
ATOM     26  C   UNL     1       1.068   3.378  -0.955  0.00  0.00    -0.096 C 
ATOM     27  N   UNL     1       0.439   4.613  -1.469  0.00  0.00    +0.384 N 
ATOM     28  H   UNL     1      -0.035   4.403  -2.355  0.00  0.00    -0.082 HD
ENDBRANCH  18  27
BRANCH   1  29
ATOM     29  C   UNL     1      -3.597   2.912   1.860  0.00  0.00    +0.015 C 
ATOM     30  C   UNL     1      -4.456   1.667   2.097  0.00  0.00    +0.010 C 
BRANCH  29  32
ATOM     31  C   UNL     1      -3.090   5.214   2.687  0.00  0.00    +0.004 C 
ATOM     32  C   UNL     1      -3.798   3.897   3.013  0.00  0.00    +0.002 C 
ENDBRANCH  29  32
ENDBRANCH   1  29
BRANCH  14  33
ATOM     33  O   UNL     1      -0.181   7.732  -3.075  0.00  0.00    -0.495 OA
ATOM     34  C   UNL     1       0.483   8.570  -4.023  0.00  0.00    +0.277 C 
ENDBRANCH  14  33
BRANCH   5  35
ATOM     35  C   UNL     1      -1.050   0.113  -1.384  0.00  0.00    +0.067 C 
BRANCH  35  36
ATOM     36  C   UNL     1      -0.727  -0.723  -2.596  0.00  0.00    -0.045 A 
ATOM     37  C   UNL     1      -0.772  -2.102  -2.517  0.00  0.00    +0.004 A 
ATOM     38  C   UNL     1      -0.480  -2.869  -3.629  0.00  0.00    +0.000 A 
ATOM     39  C   UNL     1      -0.134  -2.256  -4.819  0.00  0.00    +0.000 A 
ATOM     40  C   UNL     1      -0.083  -0.877  -4.897  0.00  0.00    +0.000 A 
ATOM     41  C   UNL     1      -0.380  -0.110  -3.786  0.00  0.00    +0.004 A 
ENDBRANCH  35  36
ENDBRANCH   5  35
TORSDOF 6
