REMARK  Name = ZINC09016074
REMARK  6 active torsions:
REMARK  status: ('A' for Active; 'I' for Inactive)
REMARK    1  A    between atoms: C_4  and  N_7
REMARK    2  A    between atoms: N_7  and  C_8
REMARK    3  A    between atoms: C_8  and  C_9
REMARK    4  A    between atoms: C_10  and  C_20
REMARK    5  A    between atoms: N_22  and  N_23
REMARK    6  A    between atoms: C_24  and  C_25
REMARK                            x       y       z     vdW  Elec       q    Type
REMARK                         _______ _______ _______ _____ _____    ______ ____
ROOT
ATOM      1  C   UNL     1       6.037  -0.860  -0.059  0.00  0.00    +0.096 A 
ATOM      2  C   UNL     1       6.678  -1.381   1.029  0.00  0.00    +0.174 A 
ATOM      3  N   UNL     1       7.654  -2.199   0.597  0.00  0.00    -0.124 NA
ATOM      4  N   UNL     1       7.667  -2.213  -0.691  0.00  0.00    -0.058 NA
ATOM      5  N   UNL     1       6.647  -1.369  -1.153  0.00  0.00    -0.190 N 
ATOM      6  C   UNL     1       6.324  -1.104  -2.488  0.00  0.00    +0.240 A 
ATOM      7  C   UNL     1       6.998  -1.667  -3.662  0.00  0.00    +0.206 A 
ATOM      8  N   UNL     1       6.423  -1.192  -4.732  0.00  0.00    -0.032 NA
ATOM      9  O   UNL     1       5.381  -0.327  -4.317  0.00  0.00    -0.239 OA
ATOM     10  N   UNL     1       5.368  -0.320  -2.901  0.00  0.00    -0.027 NA
ATOM     11  N   UNL     1       8.068  -2.554  -3.638  0.00  0.00    -0.337 N 
ATOM     12  H   UNL     1       8.432  -2.854  -2.790  0.00  0.00    +0.144 HD
ATOM     13  H   UNL     1       8.451  -2.874  -4.470  0.00  0.00    +0.144 HD
ENDROOT
BRANCH   2  14
ATOM     14  C   UNL     1       6.353  -1.097   2.439  0.00  0.00    +0.285 C 
ATOM     15  O   UNL     1       5.442  -0.339   2.712  0.00  0.00    -0.267 OA
ATOM     16  N   UNL     1       7.064  -1.678   3.425  0.00  0.00    -0.202 N 
ATOM     17  H   UNL     1       7.791  -2.283   3.207  0.00  0.00    +0.178 HD
BRANCH  16  18
ATOM     18  N   UNL     1       6.755  -1.408   4.764  0.00  0.00    -0.187 NA
ATOM     19  C   UNL     1       7.441  -1.967   5.714  0.00  0.00    +0.139 C 
BRANCH  19  20
ATOM     20  C   UNL     1       7.115  -1.683   7.124  0.00  0.00    +0.013 A 
ATOM     21  C   UNL     1       7.847  -2.288   8.149  0.00  0.00    +0.011 A 
ATOM     22  C   UNL     1       7.540  -2.014   9.465  0.00  0.00    +0.001 A 
ATOM     23  C   UNL     1       6.503  -1.151   9.773  0.00  0.00    +0.001 A 
ATOM     24  C   UNL     1       5.770  -0.552   8.764  0.00  0.00    +0.020 A 
ATOM     25  C   UNL     1       6.069  -0.813   7.441  0.00  0.00    +0.050 A 
ATOM     26 CL   UNL     1       5.148  -0.061   6.177  0.00  0.00    -0.083 Cl
ENDBRANCH  19  20
ENDBRANCH  16  18
ENDBRANCH   2  14
BRANCH   1  27
ATOM     27  C   UNL     1       4.877   0.102  -0.044  0.00  0.00    +0.159 C 
BRANCH  27  28
ATOM     28  N   UNL     1       3.620  -0.649  -0.036  0.00  0.00    -0.338 N 
ATOM     29  H   UNL     1       3.634  -1.619  -0.041  0.00  0.00    +0.146 HD
BRANCH  28  33
ATOM     30  C   UNL     1      -0.017   1.379   0.010  0.00  0.00    +0.000 A 
ATOM     31  C   UNL     1       1.169   2.089   0.002  0.00  0.00    +0.002 A 
ATOM     32  C   UNL     1       2.377   1.420  -0.013  0.00  0.00    +0.023 A 
ATOM     33  C   UNL     1       2.400   0.031  -0.021  0.00  0.00    +0.027 A 
ATOM     34  C   UNL     1       1.206  -0.680  -0.013  0.00  0.00    +0.023 A 
ATOM     35  C   UNL     1       0.002  -0.004   0.002  0.00  0.00    +0.002 A 
ENDBRANCH  28  33
ENDBRANCH  27  28
ENDBRANCH   1  27
TORSDOF 6
