REMARK  Name = ZINC14676558
REMARK  14 active torsions:
REMARK  status: ('A' for Active; 'I' for Inactive)
REMARK    1  A    between atoms: C_1  and  C_2
REMARK    2  A    between atoms: C_2  and  N_3
REMARK    3  A    between atoms: N_3  and  N_4
REMARK    4  A    between atoms: C_5  and  C_7
REMARK    5  A    between atoms: C_9  and  C_37
REMARK    6  A    between atoms: C_11  and  O_36
REMARK    7  A    between atoms: C_19  and  C_21
REMARK    8  A    between atoms: C_23  and  O_31
REMARK    9  A    between atoms: C_24  and  O_29
REMARK   10  A    between atoms: C_25  and  O_27
REMARK   11  A    between atoms: O_27  and  C_28
REMARK   12  A    between atoms: O_29  and  C_30
REMARK   13  A    between atoms: O_31  and  C_32
REMARK   14  A    between atoms: C_37  and  O_38
REMARK                            x       y       z     vdW  Elec       q    Type
REMARK                         _______ _______ _______ _____ _____    ______ ____
ROOT
ATOM      1  C   UNL     1       3.386  -2.326   1.174  0.00  0.00    +0.096 C 
ATOM      2  C   UNL     1       4.735  -3.043   1.045  0.00  0.00    +0.060 C 
ATOM      3  C   UNL     1       5.537  -2.364  -0.063  0.00  0.00    +0.151 C 
ATOM      4  C   UNL     1       4.713  -2.249  -1.319  0.00  0.00    -0.011 A 
ATOM      5  C   UNL     1       5.386  -2.006  -2.511  0.00  0.00    +0.056 A 
ATOM      6  C   UNL     1       4.690  -1.879  -3.698  0.00  0.00    +0.167 A 
ATOM      7  C   UNL     1       3.302  -1.997  -3.698  0.00  0.00    +0.167 A 
ATOM      8  C   UNL     1       2.638  -2.242  -2.511  0.00  0.00    +0.054 A 
ATOM      9  C   UNL     1       3.342  -2.370  -1.319  0.00  0.00    -0.030 A 
ATOM     10  C   UNL     1       2.552  -2.642  -0.066  0.00  0.00    +0.062 C 
ATOM     11  O   UNL     1       2.850  -1.833  -4.976  0.00  0.00    -0.453 OA
ATOM     12  C   UNL     1       4.003  -2.021  -5.818  0.00  0.00    +0.466 C 
ATOM     13  O   UNL     1       5.107  -1.642  -4.976  0.00  0.00    -0.453 OA
ENDROOT
BRANCH  10  14
ATOM     14  C   UNL     1       1.313  -1.784  -0.063  0.00  0.00    -0.032 A 
ATOM     15  C   UNL     1       0.064  -2.377  -0.037  0.00  0.00    +0.054 A 
ATOM     16  C   UNL     1      -1.078  -1.591  -0.035  0.00  0.00    +0.165 A 
ATOM     17  C   UNL     1      -0.967  -0.206  -0.060  0.00  0.00    +0.204 A 
ATOM     18  C   UNL     1       0.291   0.386  -0.086  0.00  0.00    +0.165 A 
ATOM     19  C   UNL     1       1.428  -0.407  -0.093  0.00  0.00    +0.054 A 
BRANCH  18  20
ATOM     20  O   UNL     1       0.405   1.741  -0.111  0.00  0.00    -0.491 OA
ATOM     21  C   UNL     1       1.729   2.280  -0.137  0.00  0.00    +0.277 C 
ENDBRANCH  18  20
BRANCH  17  22
ATOM     22  O   UNL     1      -2.085   0.569  -0.058  0.00  0.00    -0.488 OA
ATOM     23  C   UNL     1      -2.635   0.918  -1.330  0.00  0.00    +0.277 C 
ENDBRANCH  17  22
BRANCH  16  24
ATOM     24  O   UNL     1      -2.306  -2.174  -0.010  0.00  0.00    -0.491 OA
ATOM     25  C   UNL     1      -2.345  -3.603   0.014  0.00  0.00    +0.277 C 
ENDBRANCH  16  24
ENDBRANCH  10  14
BRANCH   1  27
ATOM     26  N   UNL     1       2.726  -2.096   3.546  0.00  0.00    -0.251 N 
ATOM     27  C   UNL     1       2.668  -2.812   2.406  0.00  0.00    +0.231 C 
ATOM     28  O   UNL     1       2.039  -3.849   2.372  0.00  0.00    -0.274 OA
ATOM     29  H   UNL     1       3.167  -1.232   3.555  0.00  0.00    +0.169 HD
BRANCH  26  30
ATOM     30  N   UNL     1       2.162  -2.586   4.690  0.00  0.00    -0.241 NA
ATOM     31  H   UNL     1       1.186  -2.800   4.549  0.00  0.00    +0.144 HD
BRANCH  30  33
ATOM     32  C   UNL     1       1.695  -2.231   7.068  0.00  0.00    +0.022 C 
ATOM     33  C   UNL     1       2.338  -1.649   5.807  0.00  0.00    +0.098 C 
ENDBRANCH  30  33
ENDBRANCH  26  30
ENDBRANCH   1  27
BRANCH   3  34
ATOM     34  O   UNL     1       6.709  -3.135  -0.336  0.00  0.00    -0.387 OA
ATOM     35  H   UNL     1       7.278  -2.756  -1.019  0.00  0.00    +0.210 HD
ENDBRANCH   3  34
BRANCH   2  36
ATOM     36  C   UNL     1       5.498  -2.947   2.368  0.00  0.00    +0.163 C 
BRANCH  36  37
ATOM     37  O   UNL     1       6.709  -3.701   2.274  0.00  0.00    -0.395 OA
ATOM     38  H   UNL     1       7.245  -3.685   3.079  0.00  0.00    +0.209 HD
ENDBRANCH  36  37
ENDBRANCH   2  36
TORSDOF 10
