REMARK  Name = ZINC09820880
REMARK  7 active torsions:
REMARK  status: ('A' for Active; 'I' for Inactive)
REMARK    1  A    between atoms: C_1  and  C_2
REMARK    2  A    between atoms: C_5  and  N_8
REMARK    3  A    between atoms: C_13  and  C_17
REMARK    4  A    between atoms: N_15  and  C_16
REMARK    5  A    between atoms: N_19  and  C_20
REMARK    6  A    between atoms: C_23  and  C_27
REMARK    7  A    between atoms: C_25  and  C_26
REMARK                            x       y       z     vdW  Elec       q    Type
REMARK                         _______ _______ _______ _____ _____    ______ ____
ROOT
ATOM      1  N   UNL     1       4.062   2.048  -0.047  0.00  0.00    -0.227 N 
ATOM      2  C   UNL     1       3.531   0.809  -0.023  0.00  0.00    +0.285 A 
ATOM      3  O   UNL     1       4.255  -0.171  -0.018  0.00  0.00    -0.265 OA
ATOM      4  C   UNL     1       2.124   0.658  -0.004  0.00  0.00    +0.132 A 
ATOM      5  C   UNL     1       1.332   1.796  -0.011  0.00  0.00    +0.086 A 
ATOM      6  C   UNL     1      -0.014   1.358   0.012  0.00  0.00    +0.079 A 
ATOM      7  C   UNL     1       0.009  -0.023   0.032  0.00  0.00    +0.101 A 
ATOM      8  N   UNL     1       1.287  -0.439   0.022  0.00  0.00    -0.344 N 
ATOM      9  C   UNL     1       1.723  -1.838   0.038  0.00  0.00    +0.149 C 
ATOM     10  N   UNL     1       1.935   3.041  -0.036  0.00  0.00    -0.305 N 
ATOM     11  H   UNL     1       1.390   3.844  -0.041  0.00  0.00    +0.170 HD
ATOM     12  C   UNL     1       3.279   3.140  -0.053  0.00  0.00    +0.334 A 
ATOM     13  O   UNL     1       3.793   4.241  -0.076  0.00  0.00    -0.246 OA
ENDROOT
BRANCH   1  18
ATOM     14  C   UNL     1       9.704   2.660  -0.123  0.00  0.00    +0.044 C 
ATOM     15  C   UNL     1       8.205   2.498  -0.102  0.00  0.00    -0.050 A 
ATOM     16  C   UNL     1       7.586   1.944   1.003  0.00  0.00    +0.005 A 
ATOM     17  C   UNL     1       6.214   1.793   1.024  0.00  0.00    +0.026 A 
ATOM     18  C   UNL     1       5.455   2.200  -0.066  0.00  0.00    +0.054 A 
ATOM     19  C   UNL     1       6.080   2.752  -1.176  0.00  0.00    +0.026 A 
ATOM     20  C   UNL     1       7.453   2.904  -1.189  0.00  0.00    +0.005 A 
ENDBRANCH   1  18
BRANCH   6  21
ATOM     21  C   UNL     1      -1.212   2.213   0.009  0.00  0.00    +0.252 C 
ATOM     22  O   UNL     1      -1.095   3.424  -0.010  0.00  0.00    -0.270 OA
ATOM     23  N   UNL     1      -2.438   1.654   0.026  0.00  0.00    -0.281 N 
ATOM     24  H   UNL     1      -2.532   0.692   0.098  0.00  0.00    +0.155 HD
BRANCH  23  25
ATOM     25  C   UNL     1      -3.576   2.463  -0.060  0.00  0.00    +0.037 A 
ATOM     26  C   UNL     1      -3.523   3.786   0.361  0.00  0.00    +0.024 A 
ATOM     27  C   UNL     1      -4.648   4.582   0.274  0.00  0.00    +0.005 A 
ATOM     28  C   UNL     1      -5.827   4.063  -0.230  0.00  0.00    -0.050 A 
ATOM     29  C   UNL     1      -5.883   2.747  -0.650  0.00  0.00    +0.008 A 
ATOM     30  C   UNL     1      -4.760   1.947  -0.570  0.00  0.00    -0.029 A 
ATOM     31  C   UNL     1      -4.820   0.514  -1.033  0.00  0.00    +0.045 C 
ATOM     32  C   UNL     1      -7.053   4.935  -0.324  0.00  0.00    +0.044 C 
ENDBRANCH  23  25
ENDBRANCH   6  21
TORSDOF 3
