REMARK  Name = ZINC64289986
REMARK  10 active torsions:
REMARK  status: ('A' for Active; 'I' for Inactive)
REMARK    1  A    between atoms: C_1  and  C_2
REMARK    2  A    between atoms: C_2  and  C_3
REMARK    3  A    between atoms: C_3  and  C_4
REMARK    4  A    between atoms: C_4  and  C_5
REMARK    5  A    between atoms: C_4  and  N_21
REMARK    6  A    between atoms: N_7  and  C_8
REMARK    7  A    between atoms: C_10  and  C_17
REMARK    8  A    between atoms: C_13  and  N_14
REMARK    9  A    between atoms: N_14  and  C_15
REMARK   10  A    between atoms: N_14  and  C_16
REMARK                            x       y       z     vdW  Elec       q    Type
REMARK                         _______ _______ _______ _____ _____    ______ ____
ROOT
ATOM      1  C   UNL     1       1.549  -2.516  -2.438  0.00  0.00    +0.238 C 
ATOM      2  O   UNL     1       0.990  -2.886  -3.449  0.00  0.00    -0.273 OA
ATOM      3  N   UNL     1       2.895  -2.528  -2.369  0.00  0.00    -0.282 N 
ATOM      4  H   UNL     1       3.345  -2.158  -1.593  0.00  0.00    +0.155 HD
ENDROOT
BRANCH   3   5
ATOM      5  C   UNL     1       3.646  -3.076  -3.418  0.00  0.00    +0.055 A 
ATOM      6  C   UNL     1       3.083  -4.032  -4.250  0.00  0.00    +0.037 A 
ATOM      7  C   UNL     1       3.825  -4.572  -5.284  0.00  0.00    +0.057 A 
ATOM      8  C   UNL     1       5.129  -4.160  -5.493  0.00  0.00    +0.014 A 
ATOM      9  C   UNL     1       5.698  -3.207  -4.669  0.00  0.00    +0.025 A 
ATOM     10  C   UNL     1       4.958  -2.656  -3.633  0.00  0.00    +0.051 A 
BRANCH   7  11
ATOM     11  C   UNL     1       3.212  -5.612  -6.186  0.00  0.00    +0.417 C 
ATOM     12  F   UNL     1       2.592  -4.981  -7.270  0.00  0.00    -0.166 F 
ATOM     13  F   UNL     1       4.212  -6.470  -6.655  0.00  0.00    -0.166 F 
ATOM     14  F   UNL     1       2.263  -6.349  -5.470  0.00  0.00    -0.166 F 
ENDBRANCH   7  11
BRANCH  10  15
ATOM     15  N   UNL     1       5.530  -1.687  -2.801  0.00  0.00    -0.335 N 
ATOM     16  C   UNL     1       5.411  -0.267  -3.141  0.00  0.00    +0.129 C 
ATOM     17  C   UNL     1       6.247  -2.092  -1.590  0.00  0.00    +0.129 C 
ENDBRANCH  10  15
ENDBRANCH   3   5
BRANCH   1  18
ATOM     18  C   UNL     1       0.739  -2.042  -1.259  0.00  0.00    +0.161 C 
BRANCH  18  19
ATOM     19  N   UNL     1      -0.630  -2.552  -1.371  0.00  0.00    -0.288 N 
ATOM     20  C   UNL     1      -1.386  -2.225  -2.438  0.00  0.00    +0.298 C 
ATOM     21  O   UNL     1      -0.931  -1.507  -3.308  0.00  0.00    -0.253 OA
ATOM     22  N   UNL     1      -2.645  -2.694  -2.541  0.00  0.00    -0.313 N 
ATOM     23  H   UNL     1      -0.993  -3.124  -0.677  0.00  0.00    +0.151 HD
ATOM     24  H   UNL     1      -3.008  -3.267  -1.847  0.00  0.00    +0.146 HD
ATOM     25  H   UNL     1      -3.189  -2.458  -3.309  0.00  0.00    +0.146 HD
ENDBRANCH  18  19
BRANCH  18  26
ATOM     26  C   UNL     1       0.714  -0.512  -1.239  0.00  0.00    +0.031 C 
BRANCH  26  28
ATOM     27  C   UNL     1      -0.028   1.499   0.044  0.00  0.00    +0.004 C 
ATOM     28  C   UNL     1      -0.003  -0.031   0.024  0.00  0.00    -0.001 C 
ENDBRANCH  26  28
ENDBRANCH  18  26
ENDBRANCH   1  18
TORSDOF 7
