REMARK  Name = ZINC44924568
REMARK  6 active torsions:
REMARK  status: ('A' for Active; 'I' for Inactive)
REMARK    1  A    between atoms: C_1  and  C_2
REMARK    2  A    between atoms: C_2  and  C_4
REMARK    3  A    between atoms: C_2  and  N_16
REMARK    4  A    between atoms: N_16  and  C_17
REMARK    5  A    between atoms: C_17  and  C_19
REMARK    6  A    between atoms: C_17  and  C_20
REMARK                            x       y       z     vdW  Elec       q    Type
REMARK                         _______ _______ _______ _____ _____    ______ ____
ROOT
ATOM      1  C   UNL     1       0.101   1.418  -0.183  0.00  0.00    -0.009 C 
ATOM      2  C   UNL     1       0.030  -0.103  -0.037  0.00  0.00    -0.043 C 
ENDROOT
BRANCH   2   3
ATOM      3  C   UNL     1       0.829  -0.530   1.167  0.00  0.00    -0.060 A 
ATOM      4  C   UNL     1       0.279  -0.422   2.433  0.00  0.00    +0.004 A 
ATOM      5  C   UNL     1       1.003  -0.810   3.543  0.00  0.00    +0.028 A 
ATOM      6  C   UNL     1       2.287  -1.310   3.388  0.00  0.00    +0.067 A 
ATOM      7  C   UNL     1       2.842  -1.419   2.112  0.00  0.00    +0.067 A 
ATOM      8  C   UNL     1       2.105  -1.032   1.003  0.00  0.00    +0.029 A 
ATOM      9  N   UNL     1       4.122  -1.946   2.273  0.00  0.00    -0.306 N 
ATOM     10  H   UNL     1       4.752  -2.135   1.560  0.00  0.00    +0.170 HD
ATOM     11  C   UNL     1       4.335  -2.149   3.587  0.00  0.00    +0.325 A 
ATOM     12  O   UNL     1       5.356  -2.601   4.069  0.00  0.00    -0.247 OA
ATOM     13  N   UNL     1       3.246  -1.775   4.285  0.00  0.00    -0.306 N 
ATOM     14  H   UNL     1       3.147  -1.821   5.249  0.00  0.00    +0.170 HD
ENDBRANCH   2   3
BRANCH   2  15
ATOM     15  N   UNL     1      -1.369  -0.515   0.133  0.00  0.00    +0.390 N 
ATOM     16  H   UNL     1      -1.408  -1.503   0.331  0.00  0.00    -0.084 HD
ATOM     17  H   UNL     1      -1.780  -0.002   0.899  0.00  0.00    -0.084 HD
BRANCH  15  18
ATOM     18  C   UNL     1      -2.116  -0.233  -1.101  0.00  0.00    -0.001 C 
ATOM     19  C   UNL     1      -3.600  -0.533  -0.879  0.00  0.00    -0.006 C 
BRANCH  18  20
ATOM     20  C   UNL     1      -1.589  -1.100  -2.216  0.00  0.00    +0.163 A 
ATOM     21  N   UNL     1      -1.319  -2.395  -2.149  0.00  0.00    -0.113 NA
ATOM     22  N   UNL     1      -0.891  -2.764  -3.308  0.00  0.00    -0.021 NA
ATOM     23  N   UNL     1      -0.885  -1.746  -4.096  0.00  0.00    -0.021 NA
ATOM     24  N   UNL     1      -1.313  -0.714  -3.453  0.00  0.00    -0.113 NA
ENDBRANCH  18  20
ENDBRANCH  15  18
ENDBRANCH   2  15
TORSDOF 4
