REMARK  Name = ZINC41597104
REMARK  3 active torsions:
REMARK  status: ('A' for Active; 'I' for Inactive)
REMARK    1  A    between atoms: C_4  and  C_7
REMARK    2  A    between atoms: C_7  and  N_8
REMARK    3  A    between atoms: N_19  and  C_20
REMARK                            x       y       z     vdW  Elec       q    Type
REMARK                         _______ _______ _______ _____ _____    ______ ____
ROOT
ATOM      1  N   UNL     1       4.234  -1.038   1.294  0.00  0.00    +0.385 N 
ATOM      2  C   UNL     1       5.442  -1.877   1.238  0.00  0.00    -0.072 C 
ATOM      3  C   UNL     1       6.082  -1.901   2.627  0.00  0.00    +0.037 C 
ATOM      4  C   UNL     1       5.045  -2.258   3.661  0.00  0.00    +0.050 A 
ATOM      5  C   UNL     1       3.715  -2.181   3.389  0.00  0.00    +0.022 A 
ATOM      6  C   UNL     1       2.792  -2.522   4.398  0.00  0.00    +0.254 A 
ATOM      7  O   UNL     1       1.592  -2.459   4.188  0.00  0.00    -0.268 OA
ATOM      8  N   UNL     1       3.257  -2.918   5.601  0.00  0.00    -0.295 N 
ATOM      9  H   UNL     1       2.638  -3.158   6.308  0.00  0.00    +0.172 HD
ATOM     10  C   UNL     1       4.600  -2.980   5.816  0.00  0.00    +0.200 A 
ATOM     11  N   UNL     1       5.454  -2.657   4.868  0.00  0.00    -0.220 NA
ATOM     12  N   UNL     1       5.069  -3.385   7.038  0.00  0.00    -0.285 N 
ATOM     13  C   UNL     1       3.196  -1.750   2.045  0.00  0.00    -0.035 C 
ATOM     14  H   UNL     1       4.451  -3.709   7.712  0.00  0.00    +0.155 HD
ATOM     15  H   UNL     1       4.447  -0.166   1.754  0.00  0.00    -0.081 HD
ENDROOT
BRANCH  12  16
ATOM     16  C   UNL     1       6.436  -3.332   7.313  0.00  0.00    +0.041 A 
ATOM     17  C   UNL     1       7.216  -2.333   6.771  0.00  0.00    +0.024 A 
ATOM     18  C   UNL     1       8.580  -2.270   7.039  0.00  0.00    +0.002 A 
ATOM     19  C   UNL     1       9.181  -3.191   7.842  0.00  0.00    +0.008 A 
ATOM     20  C   UNL     1       8.422  -4.225   8.415  0.00  0.00    -0.016 A 
ATOM     21  C   UNL     1       7.031  -4.296   8.154  0.00  0.00    +0.003 A 
ATOM     22  C   UNL     1       6.273  -5.327   8.730  0.00  0.00    +0.010 A 
ATOM     23  C   UNL     1       6.881  -6.241   9.536  0.00  0.00    +0.001 A 
ATOM     24  C   UNL     1       8.248  -6.168   9.799  0.00  0.00    +0.001 A 
ATOM     25  C   UNL     1       9.016  -5.189   9.248  0.00  0.00    +0.008 A 
ENDBRANCH  12  16
BRANCH   1  26
ATOM     26  C   UNL     1       3.758  -0.771  -0.070  0.00  0.00    -0.043 C 
BRANCH  26  30
ATOM     27  C   UNL     1       0.439   1.913   0.078  0.00  0.00    +0.000 A 
ATOM     28  C   UNL     1       1.725   2.409  -0.024  0.00  0.00    +0.000 A 
ATOM     29  C   UNL     1       2.799   1.541  -0.071  0.00  0.00    +0.002 A 
ATOM     30  C   UNL     1       2.587   0.176  -0.017  0.00  0.00    -0.064 A 
ATOM     31  C   UNL     1       1.301  -0.320   0.086  0.00  0.00    +0.002 A 
ATOM     32  C   UNL     1       0.227   0.548   0.132  0.00  0.00    +0.000 A 
ENDBRANCH  26  30
ENDBRANCH   1  26
TORSDOF 3
