REMARK  Name = ZINC61746587
REMARK  7 active torsions:
REMARK  status: ('A' for Active; 'I' for Inactive)
REMARK    1  A    between atoms: C_1  and  C_2
REMARK    2  A    between atoms: C_2  and  C_3
REMARK    3  A    between atoms: C_3  and  C_4
REMARK    4  A    between atoms: C_4  and  C_5
REMARK    5  A    between atoms: N_13  and  C_14
REMARK    6  A    between atoms: N_17  and  C_20
REMARK    7  A    between atoms: C_20  and  C_21
REMARK                            x       y       z     vdW  Elec       q    Type
REMARK                         _______ _______ _______ _____ _____    ______ ____
ROOT
ATOM      1  C   UNL     1      -2.948  -2.368   0.293  0.00  0.00    +0.104 A 
ATOM      2  N   UNL     1      -3.728  -2.633  -0.735  0.00  0.00    -0.145 NA
ATOM      3  N   UNL     1      -4.879  -3.111  -0.527  0.00  0.00    -0.126 NA
ATOM      4  C   UNL     1      -5.323  -3.352   0.691  0.00  0.00    +0.189 A 
ATOM      5  S   UNL     1      -4.011  -2.874   1.637  0.00  0.00    -0.035 S 
ATOM      6  N   UNL     1      -6.550  -3.870   1.091  0.00  0.00    -0.247 N 
ATOM      7  C   UNL     1      -7.475  -4.200   0.168  0.00  0.00    +0.306 C 
ATOM      8  O   UNL     1      -7.237  -4.044  -1.014  0.00  0.00    -0.252 OA
ATOM      9  N   UNL     1      -8.665  -4.702   0.555  0.00  0.00    -0.296 N 
ATOM     10  H   UNL     1      -6.740  -3.994   2.034  0.00  0.00    +0.158 HD
ATOM     11  H   UNL     1      -8.855  -4.826   1.499  0.00  0.00    +0.151 HD
ENDROOT
BRANCH   9  12
ATOM     12  C   UNL     1      -9.670  -5.060  -0.448  0.00  0.00    +0.071 C 
ATOM     13  C   UNL     1     -10.490  -3.820  -0.817  0.00  0.00    +0.004 C 
ATOM     14  C   UNL     1     -11.589  -4.218  -1.804  0.00  0.00    -0.077 C 
ATOM     15  N   UNL     1     -12.466  -5.221  -1.189  0.00  0.00    +0.383 N 
ATOM     16  C   UNL     1     -11.702  -6.439  -0.898  0.00  0.00    -0.077 C 
ATOM     17  C   UNL     1     -10.607  -6.128   0.125  0.00  0.00    +0.004 C 
ATOM     18  H   UNL     1     -12.847  -4.851  -0.331  0.00  0.00    -0.082 HD
BRANCH  15  19
ATOM     19  C   UNL     1     -13.564  -5.541  -2.111  0.00  0.00    -0.006 C 
BRANCH  19  20
ATOM     20  C   UNL     1     -14.474  -4.321  -2.264  0.00  0.00    +0.325 C 
ATOM     21  F   UNL     1     -14.881  -3.881  -1.000  0.00  0.00    -0.211 F 
ATOM     22  F   UNL     1     -13.775  -3.296  -2.911  0.00  0.00    -0.211 F 
ENDBRANCH  19  20
ENDBRANCH  15  19
ENDBRANCH   9  12
BRANCH   1  23
ATOM     23  C   UNL     1      -1.551  -1.803   0.326  0.00  0.00    +0.065 C 
BRANCH  23  24
ATOM     24  C   UNL     1      -1.620  -0.277   0.411  0.00  0.00    +0.006 C 
BRANCH  24  26
ATOM     25  C   UNL     1      -0.271   1.823   0.530  0.00  0.00    +0.004 C 
ATOM     26  C   UNL     1      -0.202   0.297   0.445  0.00  0.00    -0.003 C 
ENDBRANCH  24  26
ENDBRANCH  23  24
ENDBRANCH   1  23
TORSDOF 6
