REMARK  Name = ZINC29112855
REMARK  11 active torsions:
REMARK  status: ('A' for Active; 'I' for Inactive)
REMARK    1  A    between atoms: C_1  and  C_2
REMARK    2  A    between atoms: C_2  and  C_3
REMARK    3  A    between atoms: C_3  and  C_4
REMARK    4  A    between atoms: C_7  and  C_10
REMARK    5  A    between atoms: C_10  and  C_12
REMARK    6  A    between atoms: C_10  and  N_15
REMARK    7  A    between atoms: C_12  and  C_13
REMARK    8  A    between atoms: C_12  and  C_14
REMARK    9  A    between atoms: N_15  and  C_16
REMARK   10  A    between atoms: C_16  and  C_17
REMARK   11  A    between atoms: C_21  and  C_30
REMARK                            x       y       z     vdW  Elec       q    Type
REMARK                         _______ _______ _______ _____ _____    ______ ____
ROOT
ATOM      1  C   UNL     1      -1.485   8.370   3.536  0.00  0.00    +0.016 C 
ENDROOT
BRANCH   1   2
ATOM      2  C   UNL     1      -0.989   8.991   4.817  0.00  0.00    +0.203 C 
ATOM      3  O   UNL     1       0.195   9.213   4.964  0.00  0.00    -0.277 OA
ATOM      4  N   UNL     1      -1.859   9.298   5.798  0.00  0.00    -0.266 N 
ATOM      5  C   UNL     1      -3.288   8.958   5.684  0.00  0.00    +0.168 C 
ATOM      6  C   UNL     1      -4.093  10.158   6.202  0.00  0.00    +0.276 C 
ATOM      7  O   UNL     1      -3.708  10.423   7.553  0.00  0.00    -0.476 OA
ATOM      8  C   UNL     1      -2.380  10.511   7.827  0.00  0.00    +0.143 A 
ATOM      9  C   UNL     1      -1.435   9.949   6.969  0.00  0.00    +0.078 A 
ATOM     10  C   UNL     1      -0.086  10.048   7.261  0.00  0.00    +0.027 A 
ATOM     11  C   UNL     1       0.326  10.698   8.410  0.00  0.00    +0.002 A 
ATOM     12  C   UNL     1      -0.609  11.253   9.264  0.00  0.00    +0.004 A 
ATOM     13  C   UNL     1      -1.958  11.162   8.976  0.00  0.00    +0.047 A 
BRANCH   6  14
ATOM     14  C   UNL     1      -5.565   9.839   6.150  0.00  0.00    +0.253 C 
ATOM     15  O   UNL     1      -6.206   9.761   7.177  0.00  0.00    -0.272 OA
ATOM     16  N   UNL     1      -6.170   9.641   4.962  0.00  0.00    -0.326 N 
ATOM     17  H   UNL     1      -7.245   9.408   4.924  0.00  0.00    +0.145 HD
ATOM     18  H   UNL     1      -5.590   9.711   4.030  0.00  0.00    +0.145 HD
ENDBRANCH   6  14
ENDBRANCH   1   2
BRANCH   1  19
ATOM     19  N   UNL     1      -0.369   8.242   2.590  0.00  0.00    +0.389 N 
ATOM     20  H   UNL     1       0.366   7.537   3.004  0.00  0.00    -0.084 HD
ATOM     21  H   UNL     1       0.101   9.229   2.462  0.00  0.00    -0.084 HD
BRANCH  19  22
ATOM     22  C   UNL     1      -0.837   7.751   1.287  0.00  0.00    -0.038 C 
BRANCH  22  26
ATOM     23  C   UNL     1      -0.721   3.481   1.249  0.00  0.00    -0.047 A 
ATOM     24  C   UNL     1       0.298   4.195   1.852  0.00  0.00    +0.004 A 
ATOM     25  C   UNL     1       0.263   5.577   1.859  0.00  0.00    +0.002 A 
ATOM     26  C   UNL     1      -0.796   6.245   1.273  0.00  0.00    -0.061 A 
ATOM     27  C   UNL     1      -1.817   5.531   0.675  0.00  0.00    +0.002 A 
ATOM     28  C   UNL     1      -1.780   4.149   0.662  0.00  0.00    +0.004 A 
BRANCH  23  29
ATOM     29  C   UNL     1      -0.680   1.975   1.236  0.00  0.00    +0.035 C 
BRANCH  29  31
ATOM     30  C   UNL     1       0.088  -0.034  -0.035  0.00  0.00    +0.004 C 
ATOM     31  C   UNL     1       0.047   1.495  -0.022  0.00  0.00    +0.001 C 
ENDBRANCH  29  31
ENDBRANCH  23  29
ENDBRANCH  22  26
BRANCH  22  32
ATOM     32  C   UNL     1       0.069   8.296   0.181  0.00  0.00    -0.027 C 
ATOM     33  C   UNL     1      -0.489   7.886  -1.184  0.00  0.00    +0.006 C 
ATOM     34  C   UNL     1       0.123   9.823   0.272  0.00  0.00    +0.006 C 
ENDBRANCH  22  32
ENDBRANCH  19  22
ENDBRANCH   1  19
TORSDOF 8
