REMARK  Name = ZINC12883743
REMARK  8 active torsions:
REMARK  status: ('A' for Active; 'I' for Inactive)
REMARK    1  A    between atoms: C_1  and  C_2
REMARK    2  A    between atoms: C_2  and  C_4
REMARK    3  A    between atoms: C_2  and  S_14
REMARK    4  A    between atoms: N_10  and  C_11
REMARK    5  A    between atoms: N_10  and  C_12
REMARK    6  A    between atoms: S_14  and  C_15
REMARK    7  A    between atoms: C_17  and  C_20
REMARK    8  A    between atoms: C_21  and  C_22
REMARK                            x       y       z     vdW  Elec       q    Type
REMARK                         _______ _______ _______ _____ _____    ______ ____
ROOT
ATOM      1  S   UNL     1       0.879  -0.605   1.472  0.00  0.00    -0.073 S 
ENDROOT
BRANCH   1   2
ATOM      2  C   UNL     1       2.533  -0.042   1.241  0.00  0.00    +0.210 A 
ATOM      3  N   UNL     1       3.546  -0.258   2.080  0.00  0.00    -0.202 NA
ATOM      4  C   UNL     1       4.646   0.300   1.604  0.00  0.00    +0.150 A 
ATOM      5  N   UNL     1       4.331   0.893   0.421  0.00  0.00    -0.258 N 
ATOM      6  N   UNL     1       2.964   0.652   0.211  0.00  0.00    -0.145 NA
ATOM      7  H   UNL     1       4.932   1.383  -0.163  0.00  0.00    +0.191 HD
BRANCH   4   8
ATOM      8  C   UNL     1       5.969   0.283   2.238  0.00  0.00    +0.048 C 
ATOM      9  C   UNL     1       6.143  -0.344   3.416  0.00  0.00    +0.011 C 
BRANCH   9  10
ATOM     10  C   UNL     1       7.471  -0.362   4.053  0.00  0.00    -0.025 A 
ATOM     11  C   UNL     1       8.552   0.277   3.439  0.00  0.00    +0.008 A 
ATOM     12  C   UNL     1       9.793   0.256   4.041  0.00  0.00    +0.001 A 
ATOM     13  C   UNL     1       9.969  -0.395   5.250  0.00  0.00    +0.000 A 
ATOM     14  C   UNL     1       8.903  -1.029   5.863  0.00  0.00    +0.001 A 
ATOM     15  C   UNL     1       7.655  -1.012   5.276  0.00  0.00    +0.008 A 
ENDBRANCH   9  10
ENDBRANCH   4   8
ENDBRANCH   1   2
BRANCH   1  17
ATOM     16  C   UNL     1      -0.019   1.526   0.010  0.00  0.00    +0.028 C 
ATOM     17  C   UNL     1       0.002  -0.004   0.002  0.00  0.00    +0.119 C 
BRANCH  17  18
ATOM     18  C   UNL     1      -1.412  -0.526   0.013  0.00  0.00    +0.149 A 
ATOM     19  N   UNL     1      -2.124  -0.477   1.125  0.00  0.00    -0.198 NA
ATOM     20  C   UNL     1      -3.373  -0.936   1.138  0.00  0.00    +0.217 A 
ATOM     21  N   UNL     1      -3.904  -1.444   0.031  0.00  0.00    -0.181 NA
ATOM     22  C   UNL     1      -3.185  -1.492  -1.085  0.00  0.00    +0.222 A 
ATOM     23  N   UNL     1      -1.938  -1.026  -1.091  0.00  0.00    -0.198 NA
ATOM     24  N   UNL     1      -3.732  -2.019  -2.237  0.00  0.00    -0.306 N 
ATOM     25  C   UNL     1      -5.106  -2.527  -2.229  0.00  0.00    +0.132 C 
ATOM     26  C   UNL     1      -2.938  -2.071  -3.467  0.00  0.00    +0.132 C 
ATOM     27  N   UNL     1      -4.116  -0.885   2.300  0.00  0.00    -0.327 N 
ATOM     28  H   UNL     1      -3.728  -0.514   3.108  0.00  0.00    +0.145 HD
ATOM     29  H   UNL     1      -5.026  -1.220   2.309  0.00  0.00    +0.145 HD
ENDBRANCH  17  18
ENDBRANCH   1  17
TORSDOF 5
