REMARK  Name = ZINC18180323
REMARK  4 active torsions:
REMARK  status: ('A' for Active; 'I' for Inactive)
REMARK    1  A    between atoms: C_1  and  C_2
REMARK    2  A    between atoms: C_4  and  C_37
REMARK    3  A    between atoms: C_6  and  N_8
REMARK    4  A    between atoms: C_13  and  C_31
REMARK                            x       y       z     vdW  Elec       q    Type
REMARK                         _______ _______ _______ _____ _____    ______ ____
ROOT
ATOM      1  N   UNL     1       0.050  -2.798   2.395  0.00  0.00    -0.210 N 
ATOM      2  C   UNL     1       0.073  -4.162   2.473  0.00  0.00    +0.233 C 
ATOM      3  O   UNL     1       0.362  -4.941   1.589  0.00  0.00    -0.274 OA
ATOM      4  C   UNL     1      -0.333  -4.498   3.882  0.00  0.00    +0.125 C 
ATOM      5  C   UNL     1       0.447  -5.569   4.654  0.00  0.00    +0.163 C 
ATOM      6  O   UNL     1       0.442  -5.059   6.021  0.00  0.00    -0.348 OA
ATOM      7  C   UNL     1       0.340  -3.606   5.978  0.00  0.00    +0.206 C 
ATOM      8  C   UNL     1       0.386  -3.255   4.550  0.00  0.00    +0.138 C 
ATOM      9  C   UNL     1       0.048  -2.198   3.630  0.00  0.00    +0.234 C 
ATOM     10  O   UNL     1      -0.188  -1.037   3.890  0.00  0.00    -0.274 OA
ATOM     11  C   UNL     1       1.459  -3.013   6.797  0.00  0.00    +0.204 C 
ATOM     12  O   UNL     1       2.647  -3.127   6.582  0.00  0.00    -0.288 OA
ATOM     13  C   UNL     1       0.839  -2.268   7.908  0.00  0.00    +0.031 A 
ATOM     14  C   UNL     1       1.416  -1.534   8.946  0.00  0.00    +0.012 A 
ATOM     15  C   UNL     1       0.615  -0.915   9.886  0.00  0.00    +0.001 A 
ATOM     16  C   UNL     1      -0.763  -1.016   9.807  0.00  0.00    +0.001 A 
ATOM     17  C   UNL     1      -1.355  -1.736   8.788  0.00  0.00    +0.012 A 
ATOM     18  C   UNL     1      -0.563  -2.370   7.827  0.00  0.00    +0.031 A 
ATOM     19  C   UNL     1      -0.939  -3.184   6.657  0.00  0.00    +0.204 C 
ATOM     20  O   UNL     1      -2.065  -3.463   6.305  0.00  0.00    -0.288 OA
ENDROOT
BRANCH   1  26
ATOM     21  C   UNL     1      -0.018   1.503   0.010  0.00  0.00    +0.044 C 
ATOM     22  C   UNL     1       0.002  -0.004   0.002  0.00  0.00    -0.048 A 
ATOM     23  C   UNL     1       0.006  -0.688  -1.200  0.00  0.00    +0.006 A 
ATOM     24  C   UNL     1       0.024  -2.071  -1.211  0.00  0.00    -0.048 A 
ATOM     25  C   UNL     1       0.039  -2.773  -0.022  0.00  0.00    +0.027 A 
ATOM     26  C   UNL     1       0.035  -2.088   1.186  0.00  0.00    +0.044 A 
ATOM     27  C   UNL     1       0.023  -0.700   1.195  0.00  0.00    +0.027 A 
ATOM     28  C   UNL     1       0.027  -2.813  -2.523  0.00  0.00    +0.044 C 
ENDBRANCH   1  26
BRANCH   5  29
ATOM     29  C   UNL     1      -0.255  -6.900   4.575  0.00  0.00    -0.018 A 
ATOM     30  C   UNL     1      -1.337  -7.160   5.395  0.00  0.00    +0.006 A 
ATOM     31  C   UNL     1      -1.981  -8.381   5.323  0.00  0.00    +0.000 A 
ATOM     32  C   UNL     1      -1.544  -9.342   4.430  0.00  0.00    +0.000 A 
ATOM     33  C   UNL     1      -0.463  -9.081   3.609  0.00  0.00    +0.000 A 
ATOM     34  C   UNL     1       0.179  -7.859   3.678  0.00  0.00    +0.006 A 
ENDBRANCH   5  29
TORSDOF 2
