REMARK  Name = ZINC39669608
REMARK  8 active torsions:
REMARK  status: ('A' for Active; 'I' for Inactive)
REMARK    1  A    between atoms: C_1  and  C_2
REMARK    2  A    between atoms: C_2  and  C_3
REMARK    3  A    between atoms: C_2  and  C_4
REMARK    4  A    between atoms: C_2  and  N_33
REMARK    5  A    between atoms: C_4  and  N_5
REMARK    6  A    between atoms: C_6  and  C_8
REMARK    7  A    between atoms: C_19  and  C_21
REMARK    8  A    between atoms: C_27  and  C_29
REMARK                            x       y       z     vdW  Elec       q    Type
REMARK                         _______ _______ _______ _____ _____    ______ ____
ROOT
ATOM      1  C   UNL     1      -2.194  -4.269   0.910  0.00  0.00    +0.100 C 
ATOM      2  C   UNL     1      -1.406  -4.972  -0.218  0.00  0.00    +0.121 C 
ATOM      3  N   UNL     1      -2.145  -6.233  -0.462  0.00  0.00    -0.299 N 
ATOM      4  C   UNL     1      -3.574  -5.851  -0.352  0.00  0.00    +0.115 C 
ATOM      5  C   UNL     1      -3.616  -4.848   0.818  0.00  0.00    -0.004 C 
ATOM      6  C   UNL     1      -3.979  -5.565   2.114  0.00  0.00    -0.010 C 
ATOM      7  C   UNL     1      -5.418  -6.083   2.020  0.00  0.00    -0.082 C 
ATOM      8  N   UNL     1      -6.330  -4.957   1.788  0.00  0.00    +0.379 N 
ATOM      9  C   UNL     1      -6.033  -4.330   0.495  0.00  0.00    -0.082 C 
ATOM     10  C   UNL     1      -4.621  -3.738   0.524  0.00  0.00    -0.010 C 
ATOM     11  C   UNL     1      -1.635  -7.453  -0.723  0.00  0.00    +0.236 C 
ATOM     12  O   UNL     1      -2.377  -8.396  -0.901  0.00  0.00    -0.274 OA
ATOM     13  H   UNL     1      -7.282  -5.292   1.787  0.00  0.00    -0.086 HD
ATOM     14  H   UNL     1      -6.217  -4.276   2.524  0.00  0.00    -0.086 HD
ENDROOT
BRANCH  11  15
ATOM     15  C   UNL     1      -0.142  -7.645  -0.794  0.00  0.00    +0.162 C 
ATOM     16  C   UNL     1       0.382  -7.187  -2.171  0.00  0.00    +0.033 C 
ATOM     17  C   UNL     1       1.475  -8.239  -2.495  0.00  0.00    +0.021 C 
ATOM     18  C   UNL     1       0.861  -9.524  -1.885  0.00  0.00    +0.109 C 
ATOM     19  N   UNL     1       0.186  -9.071  -0.651  0.00  0.00    -0.283 N 
ATOM     20  C   UNL     1      -0.085  -9.836   0.425  0.00  0.00    +0.320 C 
ATOM     21  O   UNL     1      -0.646  -9.353   1.386  0.00  0.00    -0.266 OA
BRANCH  20  22
ATOM     22  C   UNL     1       0.310 -11.290   0.436  0.00  0.00    +0.470 C 
ATOM     23  F   UNL     1      -0.073 -11.869   1.650  0.00  0.00    -0.162 F 
ATOM     24  F   UNL     1      -0.327 -11.953  -0.619  0.00  0.00    -0.162 F 
ATOM     25  F   UNL     1       1.697 -11.398   0.285  0.00  0.00    -0.162 F 
ENDBRANCH  20  22
ENDBRANCH  11  15
BRANCH   1  27
ATOM     26  N   UNL     1      -2.357  -1.941   1.729  0.00  0.00    -0.313 N 
ATOM     27  C   UNL     1      -2.219  -2.780   0.683  0.00  0.00    +0.218 C 
ATOM     28  O   UNL     1      -2.113  -2.335  -0.441  0.00  0.00    -0.275 OA
ATOM     29  H   UNL     1      -2.441  -2.296   2.628  0.00  0.00    +0.149 HD
BRANCH  26  30
ATOM     30  C   UNL     1      -2.381  -0.493   1.508  0.00  0.00    +0.126 C 
BRANCH  30  32
ATOM     31  C   UNL     1      -1.145  -0.057   3.636  0.00  0.00    +0.029 C 
ATOM     32  C   UNL     1      -2.431   0.228   2.857  0.00  0.00    +0.032 C 
ATOM     33  C   UNL     1      -2.564   1.734   2.626  0.00  0.00    +0.029 C 
BRANCH  32  34
ATOM     34  N   UNL     1      -3.586  -0.254   3.627  0.00  0.00    -0.291 NA
ATOM     35  C   UNL     1      -4.840  -0.026   2.893  0.00  0.00    +0.113 C 
ATOM     36  C   UNL     1      -6.008  -0.595   3.702  0.00  0.00    +0.175 C 
ATOM     37  O   UNL     1      -6.023   0.008   4.999  0.00  0.00    -0.377 OA
ATOM     38  C   UNL     1      -4.817  -0.194   5.741  0.00  0.00    +0.175 C 
ATOM     39  C   UNL     1      -3.636   0.379   4.953  0.00  0.00    +0.113 C 
ENDBRANCH  32  34
ENDBRANCH  30  32
ENDBRANCH  26  30
ENDBRANCH   1  27
TORSDOF 6
