REMARK  Name = ZINC58372987
REMARK  12 active torsions:
REMARK  status: ('A' for Active; 'I' for Inactive)
REMARK    1  A    between atoms: C_1  and  C_2
REMARK    2  A    between atoms: C_3  and  C_26
REMARK    3  A    between atoms: C_4  and  N_10
REMARK    4  A    between atoms: C_6  and  C_7
REMARK    5  A    between atoms: C_11  and  C_13
REMARK    6  A    between atoms: C_13  and  N_14
REMARK    7  A    between atoms: N_14  and  C_15
REMARK    8  A    between atoms: C_26  and  O_28
REMARK    9  A    between atoms: O_28  and  C_29
REMARK   10  A    between atoms: C_29  and  C_30
REMARK   11  A    between atoms: C_30  and  O_31
REMARK   12  A    between atoms: O_31  and  C_32
REMARK                            x       y       z     vdW  Elec       q    Type
REMARK                         _______ _______ _______ _____ _____    ______ ____
ROOT
ATOM      1  C   UNL     1       0.239   1.514  -0.030  0.00  0.00    +0.046 C 
ATOM      2  C   UNL     1       0.190   0.007  -0.032  0.00  0.00    -0.015 A 
ATOM      3  C   UNL     1       0.221  -0.725  -1.211  0.00  0.00    +0.091 A 
ATOM      4  C   UNL     1       0.172  -2.117  -1.109  0.00  0.00    +0.087 A 
ATOM      5  S   UNL     1       0.087  -2.396   0.545  0.00  0.00    -0.068 S 
ATOM      6  C   UNL     1       0.120  -0.714   1.129  0.00  0.00    +0.079 A 
ENDROOT
BRANCH   6   7
ATOM      7  C   UNL     1       0.079  -0.224   2.509  0.00  0.00    +0.248 C 
ATOM      8  O   UNL     1       0.108   0.973   2.731  0.00  0.00    -0.270 OA
ATOM      9  N   UNL     1       0.009  -1.098   3.533  0.00  0.00    -0.325 N 
ATOM     10  H   UNL     1      -0.015  -2.051   3.356  0.00  0.00    +0.145 HD
ATOM     11  H   UNL     1      -0.019  -0.773   4.446  0.00  0.00    +0.145 HD
ENDBRANCH   6   7
BRANCH   4  12
ATOM     12  N   UNL     1       0.189  -3.047  -2.130  0.00  0.00    -0.278 N 
ATOM     13  C   UNL     1       0.134  -4.363  -1.844  0.00  0.00    +0.231 C 
ATOM     14  O   UNL     1       0.070  -4.730  -0.690  0.00  0.00    -0.274 OA
ATOM     15  H   UNL     1       0.240  -2.753  -3.053  0.00  0.00    +0.155 HD
BRANCH  13  16
ATOM     16  C   UNL     1       0.152  -5.378  -2.958  0.00  0.00    +0.178 C 
BRANCH  16  17
ATOM     17  N   UNL     1       0.083  -6.730  -2.389  0.00  0.00    -0.301 NA
ATOM     18  H   UNL     1       0.878  -6.914  -1.796  0.00  0.00    +0.123 HD
BRANCH  17  19
ATOM     19  C   UNL     1      -0.028  -7.742  -3.449  0.00  0.00    +0.085 C 
ATOM     20  C   UNL     1       1.368  -8.097  -3.954  0.00  0.00    +0.024 C 
ATOM     21  C   UNL     1       1.250  -9.301  -4.896  0.00  0.00    +0.006 C 
ATOM     22  C   UNL     1       0.888 -10.530  -4.064  0.00  0.00    +0.035 C 
ATOM     23  C   UNL     1      -0.301 -10.242  -3.186  0.00  0.00    -0.043 A 
ATOM     24  C   UNL     1      -0.719  -8.963  -2.899  0.00  0.00    -0.027 A 
ATOM     25  C   UNL     1      -1.819  -8.767  -2.075  0.00  0.00    +0.005 A 
ATOM     26  C   UNL     1      -2.498  -9.845  -1.545  0.00  0.00    +0.000 A 
ATOM     27  C   UNL     1      -2.080 -11.130  -1.835  0.00  0.00    +0.000 A 
ATOM     28  C   UNL     1      -0.987 -11.326  -2.652  0.00  0.00    +0.004 A 
ENDBRANCH  17  19
ENDBRANCH  16  17
ENDBRANCH  13  16
ENDBRANCH   4  12
BRANCH   3  29
ATOM     29  C   UNL     1       0.301  -0.061  -2.517  0.00  0.00    +0.342 C 
ATOM     30  O   UNL     1       1.386   0.181  -3.010  0.00  0.00    -0.245 OA
BRANCH  29  31
ATOM     31  O   UNL     1      -0.828   0.281  -3.170  0.00  0.00    -0.459 OA
BRANCH  31  32
ATOM     32  C   UNL     1      -0.675   0.924  -4.436  0.00  0.00    +0.260 C 
BRANCH  32  33
ATOM     33  C   UNL     1      -2.054   1.233  -5.021  0.00  0.00    +0.200 C 
BRANCH  33  34
ATOM     34  O   UNL     1      -2.721   2.187  -4.191  0.00  0.00    -0.380 OA
ATOM     35  C   UNL     1      -4.025   2.546  -4.651  0.00  0.00    +0.194 C 
ENDBRANCH  33  34
ENDBRANCH  32  33
ENDBRANCH  31  32
ENDBRANCH  29  31
ENDBRANCH   3  29
TORSDOF 10
