REMARK  Name = ZINC01129931
REMARK  6 active torsions:
REMARK  status: ('A' for Active; 'I' for Inactive)
REMARK    1  A    between atoms: C_1  and  C_2
REMARK    2  A    between atoms: C_3  and  C_29
REMARK    3  A    between atoms: C_4  and  C_20
REMARK    4  A    between atoms: C_10  and  C_15
REMARK    5  A    between atoms: C_29  and  O_31
REMARK    6  A    between atoms: O_31  and  C_32
REMARK                            x       y       z     vdW  Elec       q    Type
REMARK                         _______ _______ _______ _____ _____    ______ ____
ROOT
ATOM      1  C   UNL     1       3.143   6.181  -1.918  0.00  0.00    +0.061 C 
ATOM      2  C   UNL     1       2.248   5.554  -0.880  0.00  0.00    +0.016 C 
ATOM      3  C   UNL     1       1.302   6.296  -0.279  0.00  0.00    +0.065 C 
ATOM      4  C   UNL     1       0.398   5.707   0.764  0.00  0.00    +0.092 C 
ATOM      5  C   UNL     1       0.406   4.201   0.699  0.00  0.00    +0.024 C 
ATOM      6  C   UNL     1       1.395   3.544   0.059  0.00  0.00    +0.016 C 
ATOM      7  N   UNL     1       2.404   4.236  -0.557  0.00  0.00    -0.321 N 
ATOM      8  C   UNL     1       1.416   2.037  -0.001  0.00  0.00    +0.062 C 
ATOM      9  C   UNL     1      -0.018   1.503   0.010  0.00  0.00    +0.068 C 
ATOM     10  C   UNL     1      -0.713   2.001   1.282  0.00  0.00    +0.091 C 
ATOM     11  C   UNL     1      -0.645   3.503   1.320  0.00  0.00    +0.162 C 
ATOM     12  O   UNL     1      -1.515   4.125   1.898  0.00  0.00    -0.292 OA
ATOM     13  H   UNL     1       3.347   3.720  -0.790  0.00  0.00    +0.152 HD
ENDROOT
BRANCH   4  14
ATOM     14  C   UNL     1       0.865   6.145   2.128  0.00  0.00    -0.032 A 
ATOM     15  C   UNL     1       2.137   5.818   2.559  0.00  0.00    +0.008 A 
ATOM     16  C   UNL     1       2.571   6.217   3.810  0.00  0.00    +0.050 A 
ATOM     17  C   UNL     1       1.730   6.946   4.635  0.00  0.00    +0.166 A 
ATOM     18  C   UNL     1       0.448   7.275   4.201  0.00  0.00    +0.167 A 
ATOM     19  C   UNL     1       0.022   6.877   2.944  0.00  0.00    +0.054 A 
ATOM     20  O   UNL     1      -0.176   7.988   5.184  0.00  0.00    -0.453 OA
ATOM     21  C   UNL     1       0.586   7.741   6.380  0.00  0.00    +0.466 C 
ATOM     22  O   UNL     1       1.909   7.452   5.890  0.00  0.00    -0.453 OA
ENDBRANCH   4  14
BRANCH   9  23
ATOM     23  C   UNL     1       0.002  -0.004   0.002  0.00  0.00    +0.109 A 
ATOM     24  C   UNL     1      -0.542  -0.793  -0.942  0.00  0.00    +0.045 A 
ATOM     25  C   UNL     1      -0.290  -2.129  -0.554  0.00  0.00    +0.041 A 
ATOM     26  C   UNL     1       0.392  -2.077   0.604  0.00  0.00    +0.195 A 
ATOM     27  O   UNL     1       0.571  -0.787   0.933  0.00  0.00    -0.468 OA
ENDBRANCH   9  23
BRANCH   3  28
ATOM     28  C   UNL     1       1.156   7.657  -0.636  0.00  0.00    +0.338 C 
ATOM     29  O   UNL     1       1.883   8.146  -1.480  0.00  0.00    -0.245 OA
BRANCH  28  30
ATOM     30  O   UNL     1       0.210   8.413  -0.040  0.00  0.00    -0.458 OA
BRANCH  30  31
ATOM     31  C   UNL     1       0.118   9.779  -0.450  0.00  0.00    +0.177 C 
ATOM     32  C   UNL     1       1.029  10.637   0.431  0.00  0.00    +0.044 C 
ATOM     33  C   UNL     1       0.931  12.100  -0.008  0.00  0.00    +0.004 C 
ATOM     34  C   UNL     1      -0.515  12.579   0.134  0.00  0.00    +0.000 C 
ATOM     35  C   UNL     1      -1.426  11.720  -0.747  0.00  0.00    +0.004 C 
ATOM     36  C   UNL     1      -1.328  10.258  -0.308  0.00  0.00    +0.044 C 
ENDBRANCH  30  31
ENDBRANCH  28  30
ENDBRANCH   3  28
TORSDOF 5
