REMARK  Name = ZINC06678336
REMARK  5 active torsions:
REMARK  status: ('A' for Active; 'I' for Inactive)
REMARK    1  A    between atoms: C_1  and  C_2
REMARK    2  A    between atoms: C_2  and  C_3
REMARK    3  A    between atoms: C_6  and  C_9
REMARK    4  A    between atoms: C_12  and  C_24
REMARK    5  A    between atoms: C_20  and  C_23
REMARK                            x       y       z     vdW  Elec       q    Type
REMARK                         _______ _______ _______ _____ _____    ______ ____
ROOT
ATOM      1  C   UNL     1       2.304  -1.924   4.729  0.00  0.00    +0.112 C 
ATOM      2  C   UNL     1       2.525  -0.862   5.760  0.00  0.00    +0.032 A 
ATOM      3  C   UNL     1       2.591   0.506   5.422  0.00  0.00    +0.066 A 
ATOM      4  N   UNL     1       2.787   1.196   6.509  0.00  0.00    -0.177 NA
ATOM      5  N   UNL     1       2.855   0.306   7.581  0.00  0.00    -0.263 N 
ATOM      6  H   UNL     1       2.992   0.546   8.510  0.00  0.00    +0.190 HD
ATOM      7  C   UNL     1       2.693  -0.965   7.096  0.00  0.00    +0.125 A 
ATOM      8  N   UNL     1       2.724  -2.053   7.936  0.00  0.00    -0.270 N 
ATOM      9  C   UNL     1       2.558  -3.333   7.786  0.00  0.00    +0.231 C 
ATOM     10  O   UNL     1       2.560  -3.971   8.817  0.00  0.00    -0.274 OA
ATOM     11  C   UNL     1       2.368  -4.134   6.558  0.00  0.00    +0.130 C 
ATOM     12  S   UNL     1       1.338  -3.310   5.337  0.00  0.00    -0.135 S 
ATOM     13  C   UNL     1       1.713  -5.465   6.935  0.00  0.00    +0.029 C 
ATOM     14  C   UNL     1       2.456   1.075   4.033  0.00  0.00    +0.068 C 
ATOM     15  H   UNL     1       2.913  -1.808   8.855  0.00  0.00    +0.156 HD
ENDROOT
BRANCH   1  19
ATOM     16  C   UNL     1       0.272  -0.193   1.394  0.00  0.00    -0.048 A 
ATOM     17  C   UNL     1      -0.328  -0.203   2.639  0.00  0.00    +0.004 A 
ATOM     18  C   UNL     1       0.330  -0.763   3.719  0.00  0.00    +0.005 A 
ATOM     19  C   UNL     1       1.587  -1.314   3.552  0.00  0.00    -0.030 A 
ATOM     20  C   UNL     1       2.186  -1.304   2.307  0.00  0.00    +0.005 A 
ATOM     21  C   UNL     1       1.527  -0.748   1.227  0.00  0.00    +0.004 A 
BRANCH  16  23
ATOM     22  C   UNL     1      -1.291  -0.651  -0.475  0.00  0.00    +0.009 C 
ATOM     23  C   UNL     1      -0.445   0.419   0.218  0.00  0.00    +0.032 C 
ENDBRANCH  16  23
ENDBRANCH   1  19
TORSDOF 2
