REMARK  Name = ZINC67499439
REMARK  9 active torsions:
REMARK  status: ('A' for Active; 'I' for Inactive)
REMARK    1  A    between atoms: C_1  and  C_2
REMARK    2  A    between atoms: C_4  and  C_7
REMARK    3  A    between atoms: C_7  and  N_8
REMARK    4  A    between atoms: C_9  and  C_11
REMARK    5  A    between atoms: C_13  and  C_20
REMARK    6  A    between atoms: N_14  and  C_16
REMARK    7  A    between atoms: C_16  and  C_17
REMARK    8  A    between atoms: C_16  and  C_18
REMARK    9  A    between atoms: C_16  and  C_19
REMARK                            x       y       z     vdW  Elec       q    Type
REMARK                         _______ _______ _______ _____ _____    ______ ____
ROOT
ATOM      1  C   UNL     1      -2.635  -5.387  -3.024  0.00  0.00    +0.147 A 
ATOM      2  C   UNL     1      -3.396  -6.505  -3.440  0.00  0.00    +0.058 A 
ATOM      3  C   UNL     1      -3.284  -6.538  -4.789  0.00  0.00    +0.044 A 
ATOM      4  N   UNL     1      -2.502  -5.498  -5.150  0.00  0.00    -0.262 N 
ATOM      5  N   UNL     1      -2.137  -4.835  -4.112  0.00  0.00    -0.166 NA
ENDROOT
BRANCH   1   7
ATOM      6  N   UNL     1      -1.691  -3.832  -1.387  0.00  0.00    -0.304 N 
ATOM      7  C   UNL     1      -2.442  -4.923  -1.635  0.00  0.00    +0.264 C 
ATOM      8  O   UNL     1      -2.961  -5.526  -0.715  0.00  0.00    -0.268 OA
ATOM      9  H   UNL     1      -1.278  -3.351  -2.121  0.00  0.00    +0.149 HD
BRANCH   6  10
ATOM     10  C   UNL     1      -1.500  -3.372  -0.010  0.00  0.00    +0.163 C 
BRANCH  10  14
ATOM     11  C   UNL     1      -0.018   1.503   0.010  0.00  0.00    +0.089 C 
ATOM     12  C   UNL     1       0.002  -0.004   0.002  0.00  0.00    +0.135 A 
ATOM     13  C   UNL     1      -1.077  -0.810   0.003  0.00  0.00    +0.072 A 
ATOM     14  C   UNL     1      -0.627  -2.143  -0.007  0.00  0.00    +0.101 A 
ATOM     15  N   UNL     1       0.676  -2.130  -0.013  0.00  0.00    -0.081 NA
ATOM     16  O   UNL     1       1.098  -0.778  -0.013  0.00  0.00    -0.360 OA
ENDBRANCH  10  14
ENDBRANCH   6  10
ENDBRANCH   1   7
BRANCH   4  17
ATOM     17  C   UNL     1      -2.127  -5.170  -6.528  0.00  0.00    +0.056 C 
ATOM     18  C   UNL     1      -3.389  -4.895  -7.347  0.00  0.00    +0.036 C 
ATOM     19  C   UNL     1      -1.235  -3.927  -6.532  0.00  0.00    +0.036 C 
ATOM     20  C   UNL     1      -1.366  -6.346  -7.143  0.00  0.00    +0.036 C 
ENDBRANCH   4  17
BRANCH   3  21
ATOM     21  C   UNL     1      -3.914  -7.546  -5.714  0.00  0.00    +0.038 C 
ATOM     22  C   UNL     1      -5.283  -8.106  -5.322  0.00  0.00    +0.010 C 
ATOM     23  C   UNL     1      -4.036  -8.986  -5.212  0.00  0.00    +0.010 C 
ENDBRANCH   3  21
TORSDOF 5
