REMARK  Name = ZINC17820325
REMARK  5 active torsions:
REMARK  status: ('A' for Active; 'I' for Inactive)
REMARK    1  A    between atoms: C_1  and  C_2
REMARK    2  A    between atoms: N_10  and  N_11
REMARK    3  A    between atoms: C_12  and  C_13
REMARK    4  A    between atoms: N_15  and  C_23
REMARK    5  A    between atoms: C_17  and  C_18
REMARK                            x       y       z     vdW  Elec       q    Type
REMARK                         _______ _______ _______ _____ _____    ______ ____
ROOT
ATOM      1  C   UNL     1       6.040  -1.635  -0.295  0.00  0.00    +0.041 A 
ATOM      2  C   UNL     1       7.263  -2.085  -0.707  0.00  0.00    +0.124 A 
ATOM      3  N   UNL     1       8.030  -1.011  -0.991  0.00  0.00    -0.239 N 
ATOM      4  N   UNL     1       7.298   0.158  -0.761  0.00  0.00    -0.165 NA
ATOM      5  C   UNL     1       6.092  -0.170  -0.346  0.00  0.00    +0.108 A 
ENDROOT
BRANCH   3   6
ATOM      6  C   UNL     1       9.354  -1.061  -1.445  0.00  0.00    +0.065 A 
ATOM      7  C   UNL     1       9.976  -2.286  -1.642  0.00  0.00    +0.028 A 
ATOM      8  C   UNL     1      11.282  -2.332  -2.090  0.00  0.00    +0.002 A 
ATOM      9  C   UNL     1      11.969  -1.158  -2.342  0.00  0.00    +0.000 A 
ATOM     10  C   UNL     1      11.352   0.064  -2.147  0.00  0.00    +0.002 A 
ATOM     11  C   UNL     1      10.044   0.116  -1.705  0.00  0.00    +0.028 A 
ENDBRANCH   3   6
BRANCH   5  12
ATOM     12  C   UNL     1       5.000   0.760   0.005  0.00  0.00    +0.040 A 
ATOM     13  C   UNL     1       5.058   1.930   0.716  0.00  0.00    +0.018 A 
ATOM     14  C   UNL     1       3.895   2.639   0.920  0.00  0.00    +0.008 A 
ATOM     15  C   UNL     1       2.730   2.159   0.413  0.00  0.00    +0.046 A 
ATOM     16  S   UNL     1       3.263   0.659  -0.394  0.00  0.00    -0.095 S 
ENDBRANCH   5  12
BRANCH   1  18
ATOM     17  N   UNL     1       3.749  -1.901   0.379  0.00  0.00    -0.187 NA
ATOM     18  C   UNL     1       4.890  -2.461   0.115  0.00  0.00    +0.142 C 
BRANCH  17  28
ATOM     19  C   UNL     1      -0.113   1.173   0.407  0.00  0.00    +0.066 C 
ATOM     20  C   UNL     1       0.078  -0.257   0.845  0.00  0.00    +0.047 A 
ATOM     21  C   UNL     1      -0.958  -0.939   1.415  0.00  0.00    +0.093 A 
ATOM     22  C   UNL     1      -0.756  -2.271   1.815  0.00  0.00    +0.253 A 
ATOM     23  O   UNL     1      -1.660  -2.910   2.328  0.00  0.00    -0.268 OA
ATOM     24  N   UNL     1       0.458  -2.830   1.622  0.00  0.00    -0.294 N 
ATOM     25  H   UNL     1       0.619  -3.748   1.890  0.00  0.00    +0.172 HD
ATOM     26  C   UNL     1       1.454  -2.101   1.048  0.00  0.00    +0.216 A 
ATOM     27  N   UNL     1       1.255  -0.853   0.670  0.00  0.00    -0.220 NA
ATOM     28  N   UNL     1       2.682  -2.674   0.854  0.00  0.00    -0.207 N 
ATOM     29  H   UNL     1       2.814  -3.615   1.047  0.00  0.00    +0.177 HD
ENDBRANCH  17  28
ENDBRANCH   1  18
TORSDOF 4
