REMARK  Name = ZINC35496416
REMARK  14 active torsions:
REMARK  status: ('A' for Active; 'I' for Inactive)
REMARK    1  A    between atoms: C_1  and  C_2
REMARK    2  A    between atoms: N_7  and  C_8
REMARK    3  A    between atoms: C_8  and  C_10
REMARK    4  A    between atoms: C_10  and  N_11
REMARK    5  A    between atoms: N_11  and  C_12
REMARK    6  A    between atoms: C_12  and  C_13
REMARK    7  A    between atoms: C_13  and  C_14
REMARK    8  A    between atoms: C_13  and  C_15
REMARK    9  A    between atoms: C_16  and  C_18
REMARK   10  A    between atoms: C_18  and  C_19
REMARK   11  A    between atoms: C_19  and  C_20
REMARK   12  A    between atoms: C_20  and  C_21
REMARK   13  A    between atoms: C_21  and  C_22
REMARK   14  A    between atoms: C_22  and  N_23
REMARK                            x       y       z     vdW  Elec       q    Type
REMARK                         _______ _______ _______ _____ _____    ______ ____
ROOT
ATOM      1  N   UNL     1       0.104  -6.610   2.429  0.00  0.00    -0.292 N 
ATOM      2  C   UNL     1      -1.056  -7.252   2.184  0.00  0.00    +0.216 C 
ATOM      3  O   UNL     1      -2.113  -6.703   2.413  0.00  0.00    -0.276 OA
ENDROOT
BRANCH   1   4
ATOM      4  C   UNL     1       0.087  -5.250   2.972  0.00  0.00    +0.205 C 
BRANCH   4   5
ATOM      5  C   UNL     1       0.069  -4.257   1.838  0.00  0.00    +0.256 C 
ATOM      6  O   UNL     1       0.069  -4.648   0.686  0.00  0.00    -0.272 OA
BRANCH   5  13
ATOM      7  C   UNL     1      -0.018   1.503   0.010  0.00  0.00    +0.064 C 
ATOM      8  C   UNL     1       0.002  -0.004   0.002  0.00  0.00    +0.021 A 
ATOM      9  C   UNL     1       0.006  -0.694  -1.144  0.00  0.00    +0.069 A 
ATOM     10  S   UNL     1       0.033  -2.379  -0.561  0.00  0.00    -0.060 S 
ATOM     11  C   UNL     1       0.036  -2.076   1.093  0.00  0.00    +0.163 A 
ATOM     12  N   UNL     1       0.023  -0.718   1.159  0.00  0.00    -0.340 N 
ATOM     13  N   UNL     1       0.052  -2.955   2.096  0.00  0.00    -0.155 NA
ATOM     14  H   UNL     1       0.025  -0.266   2.018  0.00  0.00    +0.167 HD
ENDBRANCH   5  13
ENDBRANCH   4   5
ENDBRANCH   1   4
BRANCH   1  15
ATOM     15  C   UNL     1       1.380  -7.273   2.152  0.00  0.00    +0.111 C 
BRANCH  15  16
ATOM     16  C   UNL     1       1.838  -8.039   3.395  0.00  0.00    +0.000 C 
ATOM     17  C   UNL     1       3.105  -8.831   3.068  0.00  0.00    +0.009 C 
ATOM     18  C   UNL     1       2.132  -7.049   4.524  0.00  0.00    +0.009 C 
ENDBRANCH  15  16
ENDBRANCH   1  15
BRANCH   2  19
ATOM     19  C   UNL     1      -1.039  -8.652   1.625  0.00  0.00    +0.096 C 
BRANCH  19  20
ATOM     20  C   UNL     1      -2.476  -9.145   1.443  0.00  0.00    +0.009 C 
BRANCH  20  21
ATOM     21  C   UNL     1      -2.459 -10.566   0.875  0.00  0.00    -0.001 C 
BRANCH  21  22
ATOM     22  C   UNL     1      -3.896 -11.059   0.693  0.00  0.00    -0.020 C 
BRANCH  22  23
ATOM     23  C   UNL     1      -3.879 -12.480   0.126  0.00  0.00    -0.086 C 
BRANCH  23  24
ATOM     24  N   UNL     1      -5.258 -12.954  -0.050  0.00  0.00    +0.378 N 
ATOM     25  H   UNL     1      -5.247 -13.891  -0.424  0.00  0.00    -0.090 HD
ATOM     26  H   UNL     1      -5.730 -12.953   0.842  0.00  0.00    -0.090 HD
ATOM     27  H   UNL     1      -5.745 -12.343  -0.688  0.00  0.00    -0.090 HD
ENDBRANCH  23  24
ENDBRANCH  22  23
ENDBRANCH  21  22
ENDBRANCH  20  21
ENDBRANCH  19  20
ENDBRANCH   2  19
TORSDOF 11
