REMARK  Name = ZINC42026440
REMARK  5 active torsions:
REMARK  status: ('A' for Active; 'I' for Inactive)
REMARK    1  A    between atoms: C_1  and  C_2
REMARK    2  A    between atoms: C_8  and  N_10
REMARK    3  A    between atoms: C_11  and  C_15
REMARK    4  A    between atoms: C_18  and  N_22
REMARK    5  A    between atoms: C_20  and  N_21
REMARK                            x       y       z     vdW  Elec       q    Type
REMARK                         _______ _______ _______ _____ _____    ______ ____
ROOT
ATOM      1  N   UNL     1       2.196  -0.055   1.284  0.00  0.00    -0.222 N 
ATOM      2  C   UNL     1       2.734   0.849   2.149  0.00  0.00    +0.184 A 
ATOM      3  N   UNL     1       3.971   1.071   1.751  0.00  0.00    -0.108 NA
ATOM      4  N   UNL     1       4.239   0.374   0.707  0.00  0.00    -0.023 NA
ATOM      5  N   UNL     1       3.222  -0.338   0.364  0.00  0.00    -0.043 NA
ENDROOT
BRANCH   1  12
ATOM      6  C   UNL     1       0.054   1.216  -0.193  0.00  0.00    +0.009 C 
ATOM      7  C   UNL     1       0.135  -0.300  -0.009  0.00  0.00    +0.011 C 
ATOM      8  C   UNL     1       0.919  -0.914  -1.170  0.00  0.00    +0.005 C 
ATOM      9  C   UNL     1       1.000  -2.431  -0.986  0.00  0.00    +0.000 C 
ATOM     10  C   UNL     1       1.709  -2.747   0.332  0.00  0.00    +0.002 C 
ATOM     11  C   UNL     1       0.924  -2.134   1.494  0.00  0.00    +0.027 C 
ATOM     12  C   UNL     1       0.843  -0.617   1.310  0.00  0.00    +0.114 C 
ENDBRANCH   1  12
BRANCH   2  13
ATOM     13  C   UNL     1       2.060   1.464   3.310  0.00  0.00    +0.041 A 
ATOM     14  C   UNL     1       1.364   0.666   4.220  0.00  0.00    +0.015 A 
ATOM     15  C   UNL     1       0.737   1.241   5.302  0.00  0.00    +0.023 A 
ATOM     16  C   UNL     1       0.793   2.619   5.494  0.00  0.00    +0.026 A 
ATOM     17  C   UNL     1       1.482   3.422   4.596  0.00  0.00    +0.046 A 
ATOM     18  C   UNL     1       2.121   2.852   3.506  0.00  0.00    +0.037 A 
BRANCH  18  19
ATOM     19  N   UNL     1       2.818   3.655   2.606  0.00  0.00    -0.357 N 
ATOM     20  H   UNL     1       3.185   3.268   1.795  0.00  0.00    +0.142 HD
ATOM     21  H   UNL     1       2.937   4.599   2.790  0.00  0.00    +0.142 HD
ENDBRANCH  18  19
BRANCH  16  22
ATOM     22  N   UNL     1       0.155   3.194   6.592  0.00  0.00    -0.358 N 
ATOM     23  H   UNL     1      -0.327   2.634   7.221  0.00  0.00    +0.142 HD
ATOM     24  H   UNL     1       0.193   4.154   6.728  0.00  0.00    +0.142 HD
ENDBRANCH  16  22
ENDBRANCH   2  13
TORSDOF 4
