REMARK  Name = ZINC46342305
REMARK  11 active torsions:
REMARK  status: ('A' for Active; 'I' for Inactive)
REMARK    1  A    between atoms: C_2  and  C_3
REMARK    2  A    between atoms: C_3  and  C_4
REMARK    3  A    between atoms: C_9  and  O_10
REMARK    4  A    between atoms: O_10  and  C_11
REMARK    5  A    between atoms: C_11  and  C_12
REMARK    6  A    between atoms: C_12  and  C_14
REMARK    7  A    between atoms: C_12  and  O_28
REMARK    8  A    between atoms: C_14  and  N_15
REMARK    9  A    between atoms: N_24  and  C_25
REMARK   10  A    between atoms: C_25  and  C_26
REMARK   11  A    between atoms: C_26  and  O_27
REMARK                            x       y       z     vdW  Elec       q    Type
REMARK                         _______ _______ _______ _____ _____    ______ ____
ROOT
ATOM      1  N   UNL     1       2.524  -6.393   2.808  0.00  0.00    -0.311 N 
ATOM      2  C   UNL     1       3.817  -5.988   3.097  0.00  0.00    +0.068 A 
ATOM      3  C   UNL     1       4.810  -5.350   2.370  0.00  0.00    +0.028 A 
ATOM      4  C   UNL     1       6.028  -5.080   2.960  0.00  0.00    +0.002 A 
ATOM      5  C   UNL     1       6.266  -5.444   4.277  0.00  0.00    +0.002 A 
ATOM      6  C   UNL     1       5.292  -6.079   5.014  0.00  0.00    +0.028 A 
ATOM      7  C   UNL     1       4.053  -6.359   4.431  0.00  0.00    +0.065 A 
ATOM      8  N   UNL     1       2.922  -6.958   4.886  0.00  0.00    -0.327 N 
ATOM      9  C   UNL     1       2.020  -6.973   3.936  0.00  0.00    +0.174 A 
ATOM     10  N   UNL     1       0.752  -7.501   4.057  0.00  0.00    -0.314 N 
ATOM     11  H   UNL     1       0.142  -7.476   3.302  0.00  0.00    +0.149 HD
ATOM     12  H   UNL     1       2.799  -7.316   5.780  0.00  0.00    +0.169 HD
ENDROOT
BRANCH   1  13
ATOM     13  C   UNL     1       1.826  -6.223   1.532  0.00  0.00    +0.159 C 
BRANCH  13  14
ATOM     14  C   UNL     1       1.089  -4.881   1.528  0.00  0.00    +0.172 C 
BRANCH  14  15
ATOM     15  O   UNL     1       0.063  -4.899   2.522  0.00  0.00    -0.387 OA
ATOM     16  H   UNL     1      -0.601  -5.589   2.389  0.00  0.00    +0.210 HD
ENDBRANCH  14  15
BRANCH  14  17
ATOM     17  C   UNL     1       0.463  -4.647   0.152  0.00  0.00    +0.262 C 
BRANCH  17  18
ATOM     18  O   UNL     1      -0.124  -3.345   0.111  0.00  0.00    -0.489 OA
BRANCH  18  24
ATOM     19  C   UNL     1      -1.318  -1.726  -1.159  0.00  0.00    -0.002 A 
ATOM     20  C   UNL     1      -1.925  -1.351  -2.342  0.00  0.00    +0.007 A 
ATOM     21  C   UNL     1      -1.950  -2.223  -3.414  0.00  0.00    +0.001 A 
ATOM     22  C   UNL     1      -1.367  -3.473  -3.306  0.00  0.00    +0.004 A 
ATOM     23  C   UNL     1      -0.758  -3.852  -2.125  0.00  0.00    +0.046 A 
ATOM     24  C   UNL     1      -0.727  -2.976  -1.049  0.00  0.00    +0.124 A 
BRANCH  19  25
ATOM     25  C   UNL     1      -1.293  -0.775   0.010  0.00  0.00    +0.065 C 
BRANCH  25  27
ATOM     26  C   UNL     1      -0.016   1.306   0.009  0.00  0.00    +0.004 C 
ATOM     27  C   UNL     1       0.002  -0.004   0.002  0.00  0.00    -0.030 C 
ENDBRANCH  25  27
ENDBRANCH  19  25
ENDBRANCH  18  24
ENDBRANCH  17  18
ENDBRANCH  14  17
ENDBRANCH  13  14
ENDBRANCH   1  13
BRANCH  10  28
ATOM     28  C   UNL     1       0.325  -8.100   5.324  0.00  0.00    +0.132 C 
BRANCH  28  29
ATOM     29  C   UNL     1      -1.113  -8.606   5.189  0.00  0.00    +0.174 C 
BRANCH  29  30
ATOM     30  O   UNL     1      -1.158  -9.668   4.235  0.00  0.00    -0.393 OA
ATOM     31  H   UNL     1      -2.041 -10.038   4.099  0.00  0.00    +0.209 HD
ENDBRANCH  29  30
ENDBRANCH  28  29
ENDBRANCH  10  28
TORSDOF 11
