REMARK  Name = ZINC64788404
REMARK  6 active torsions:
REMARK  status: ('A' for Active; 'I' for Inactive)
REMARK    1  A    between atoms: C_1  and  C_2
REMARK    2  A    between atoms: C_2  and  C_3
REMARK    3  A    between atoms: C_3  and  C_4
REMARK    4  A    between atoms: C_4  and  N_5
REMARK    5  A    between atoms: C_18  and  C_21
REMARK    6  A    between atoms: C_24  and  O_27
REMARK                            x       y       z     vdW  Elec       q    Type
REMARK                         _______ _______ _______ _____ _____    ______ ____
ROOT
ATOM      1  N   UNL     1       1.471  -2.526   2.420  0.00  0.00    -0.222 N 
ATOM      2  C   UNL     1       2.804  -2.722   2.357  0.00  0.00    +0.261 C 
ATOM      3  O   UNL     1       3.421  -2.501   1.332  0.00  0.00    -0.269 OA
ATOM      4  C   UNL     1       3.494  -3.211   3.565  0.00  0.00    +0.117 C 
ATOM      5  C   UNL     1       2.666  -3.450   4.760  0.00  0.00    +0.258 C 
ATOM      6  N   UNL     1       1.341  -3.210   4.676  0.00  0.00    -0.235 N 
ATOM      7  H   UNL     1       0.782  -3.362   5.454  0.00  0.00    +0.159 HD
ATOM      8  C   UNL     1       0.781  -2.760   3.545  0.00  0.00    +0.315 C 
ATOM      9  O   UNL     1      -0.418  -2.558   3.537  0.00  0.00    -0.252 OA
ATOM     10  O   UNL     1       3.164  -3.854   5.794  0.00  0.00    -0.270 OA
ATOM     11  C   UNL     1       4.858  -3.435   3.575  0.00  0.00    +0.038 C 
ATOM     12  N   UNL     1       5.701  -3.243   2.543  0.00  0.00    -0.283 N 
ATOM     13  N   UNL     1       6.988  -3.583   2.837  0.00  0.00    -0.235 NA
ATOM     14  C   UNL     1       7.121  -3.625   4.312  0.00  0.00    +0.108 C 
ATOM     15  C   UNL     1       5.672  -3.935   4.755  0.00  0.00    +0.077 C 
ATOM     16  H   UNL     1       7.231  -4.472   2.426  0.00  0.00    +0.145 HD
ATOM     17  H   UNL     1       5.421  -2.900   1.680  0.00  0.00    +0.166 HD
ENDROOT
BRANCH  14  18
ATOM     18  C   UNL     1       8.065  -4.720   4.737  0.00  0.00    -0.028 A 
ATOM     19  C   UNL     1       8.065  -5.930   4.067  0.00  0.00    +0.009 A 
ATOM     20  C   UNL     1       8.929  -6.935   4.455  0.00  0.00    +0.046 A 
ATOM     21  C   UNL     1       9.799  -6.730   5.516  0.00  0.00    +0.117 A 
ATOM     22  C   UNL     1       9.797  -5.515   6.186  0.00  0.00    +0.046 A 
ATOM     23  C   UNL     1       8.934  -4.511   5.791  0.00  0.00    +0.009 A 
BRANCH  21  24
ATOM     24  O   UNL     1      10.650  -7.717   5.900  0.00  0.00    -0.507 OA
ATOM     25  H   UNL     1      11.506  -7.695   5.452  0.00  0.00    +0.292 HD
ENDBRANCH  21  24
ENDBRANCH  14  18
BRANCH   1  26
ATOM     26  C   UNL     1       0.763  -2.041   1.233  0.00  0.00    +0.118 C 
BRANCH  26  27
ATOM     27  C   UNL     1       0.742  -0.511   1.242  0.00  0.00    +0.019 C 
BRANCH  27  29
ATOM     28  C   UNL     1      -0.019   1.526   0.010  0.00  0.00    +0.004 C 
ATOM     29  C   UNL     1       0.002  -0.004   0.002  0.00  0.00    -0.002 C 
ENDBRANCH  27  29
ENDBRANCH  26  27
ENDBRANCH   1  26
TORSDOF 5
