REMARK  Name = ZINC12426919
REMARK  8 active torsions:
REMARK  status: ('A' for Active; 'I' for Inactive)
REMARK    1  A    between atoms: C_1  and  N_2
REMARK    2  A    between atoms: C_6  and  C_8
REMARK    3  A    between atoms: C_8  and  C_10
REMARK    4  A    between atoms: C_8  and  O_16
REMARK    5  A    between atoms: O_16  and  C_17
REMARK    6  A    between atoms: C_17  and  C_19
REMARK    7  A    between atoms: C_19  and  C_20
REMARK    8  A    between atoms: C_27  and  C_32
REMARK                            x       y       z     vdW  Elec       q    Type
REMARK                         _______ _______ _______ _____ _____    ______ ____
ROOT
ATOM      1  C   UNL     1      -5.871   1.387  -0.698  0.00  0.00    +0.310 C 
ATOM      2  O   UNL     1      -5.938   2.519  -1.116  0.00  0.00    -0.251 OA
ENDROOT
BRANCH   1   3
ATOM      3  O   UNL     1      -4.753   0.962  -0.089  0.00  0.00    -0.447 OA
BRANCH   3   4
ATOM      4  C   UNL     1      -3.664   1.915   0.030  0.00  0.00    +0.292 C 
BRANCH   4  10
ATOM      5  C   UNL     1       2.422   1.186  -0.015  0.00  0.00    +0.129 C 
ATOM      6  N   UNL     1       1.143   1.901   0.001  0.00  0.00    -0.302 N 
ATOM      7  C   UNL     1      -0.014   1.211   0.009  0.00  0.00    +0.306 C 
ATOM      8  O   UNL     1       0.002  -0.004   0.002  0.00  0.00    -0.252 OA
ATOM      9  N   UNL     1      -1.191   1.869   0.018  0.00  0.00    -0.237 N 
ATOM     10  C   UNL     1      -2.349   1.179   0.020  0.00  0.00    +0.266 C 
ATOM     11  O   UNL     1      -2.332  -0.033   0.013  0.00  0.00    -0.271 OA
ATOM     12  H   UNL     1       1.130   2.871   0.007  0.00  0.00    +0.150 HD
ATOM     13  H   UNL     1      -1.204   2.839   0.023  0.00  0.00    +0.159 HD
ENDBRANCH   4  10
BRANCH   4  14
ATOM     14  C   UNL     1      -3.803   2.677   1.322  0.00  0.00    +0.002 A 
ATOM     15  C   UNL     1      -4.206   2.022   2.471  0.00  0.00    +0.008 A 
ATOM     16  C   UNL     1      -4.329   2.721   3.658  0.00  0.00    +0.000 A 
ATOM     17  C   UNL     1      -4.059   4.076   3.693  0.00  0.00    +0.000 A 
ATOM     18  C   UNL     1      -3.661   4.732   2.544  0.00  0.00    +0.000 A 
ATOM     19  C   UNL     1      -3.533   4.033   1.358  0.00  0.00    +0.008 A 
ENDBRANCH   4  14
ENDBRANCH   3   4
ENDBRANCH   1   3
BRANCH   1  20
ATOM     20  C   UNL     1      -7.043   0.454  -0.858  0.00  0.00    +0.144 C 
BRANCH  20  21
ATOM     21  C   UNL     1      -8.180   1.181  -1.578  0.00  0.00    +0.148 C 
ATOM     22  C   UNL     1      -9.388   0.284  -1.655  0.00  0.00    +0.231 C 
ATOM     23  O   UNL     1     -10.270   0.432  -0.835  0.00  0.00    -0.274 OA
ATOM     24  N   UNL     1      -9.534  -0.662  -2.576  0.00  0.00    -0.284 N 
ATOM     25  C   UNL     1      -8.694  -0.905  -3.659  0.00  0.00    +0.047 A 
ATOM     26  C   UNL     1      -8.773  -2.127  -4.319  0.00  0.00    +0.036 A 
ATOM     27  C   UNL     1      -7.935  -2.399  -5.383  0.00  0.00    +0.057 A 
ATOM     28  C   UNL     1      -7.011  -1.462  -5.805  0.00  0.00    +0.013 A 
ATOM     29  C   UNL     1      -6.924  -0.241  -5.162  0.00  0.00    +0.017 A 
ATOM     30  C   UNL     1      -7.763   0.038  -4.095  0.00  0.00    +0.030 A 
ATOM     31  S   UNL     1      -7.663   1.597  -3.272  0.00  0.00    -0.110 S 
ATOM     32  H   UNL     1     -10.305  -1.244  -2.485  0.00  0.00    +0.155 HD
BRANCH  27  33
ATOM     33  C   UNL     1      -8.030  -3.728  -6.088  0.00  0.00    +0.417 C 
ATOM     34  F   UNL     1      -8.950  -3.634  -7.137  0.00  0.00    -0.166 F 
ATOM     35  F   UNL     1      -6.774  -4.075  -6.599  0.00  0.00    -0.166 F 
ATOM     36  F   UNL     1      -8.452  -4.707  -5.183  0.00  0.00    -0.166 F 
ENDBRANCH  27  33
ENDBRANCH  20  21
ENDBRANCH   1  20
TORSDOF 7
