REMARK  Name = ZINC36571185
REMARK  16 active torsions:
REMARK  status: ('A' for Active; 'I' for Inactive)
REMARK    1  A    between atoms: C_1  and  C_2
REMARK    2  A    between atoms: C_2  and  C_3
REMARK    3  A    between atoms: C_3  and  N_4
REMARK    4  A    between atoms: N_4  and  C_5
REMARK    5  A    between atoms: C_5  and  C_7
REMARK    6  A    between atoms: C_5  and  C_16
REMARK    7  A    between atoms: C_10  and  O_15
REMARK    8  A    between atoms: C_11  and  O_13
REMARK    9  A    between atoms: O_13  and  C_14
REMARK   10  A    between atoms: N_18  and  C_19
REMARK   11  A    between atoms: C_19  and  C_20
REMARK   12  A    between atoms: C_19  and  C_21
REMARK   13  A    between atoms: C_19  and  C_22
REMARK   14  A    between atoms: C_23  and  C_25
REMARK   15  A    between atoms: C_26  and  O_32
REMARK   16  A    between atoms: C_30  and  O_31
REMARK                            x       y       z     vdW  Elec       q    Type
REMARK                         _______ _______ _______ _____ _____    ______ ____
ROOT
ATOM      1  C   UNL     1       1.859  -2.668   0.807  0.00  0.00    +0.193 C 
ENDROOT
BRANCH   1   2
ATOM      2  C   UNL     1       3.085  -2.415   1.645  0.00  0.00    -0.015 A 
ATOM      3  C   UNL     1       3.401  -1.127   2.036  0.00  0.00    +0.010 A 
ATOM      4  C   UNL     1       4.525  -0.890   2.805  0.00  0.00    +0.049 A 
ATOM      5  C   UNL     1       5.338  -1.945   3.186  0.00  0.00    +0.158 A 
ATOM      6  C   UNL     1       5.021  -3.242   2.793  0.00  0.00    +0.162 A 
ATOM      7  C   UNL     1       3.890  -3.473   2.027  0.00  0.00    +0.055 A 
BRANCH   6   8
ATOM      8  O   UNL     1       5.816  -4.280   3.165  0.00  0.00    -0.491 OA
ATOM      9  C   UNL     1       5.429  -5.584   2.726  0.00  0.00    +0.277 C 
ENDBRANCH   6   8
BRANCH   5  10
ATOM     10  O   UNL     1       6.445  -1.713   3.942  0.00  0.00    -0.503 OA
ATOM     11  H   UNL     1       6.285  -1.751   4.895  0.00  0.00    +0.292 HD
ENDBRANCH   5  10
ENDBRANCH   1   2
BRANCH   1  12
ATOM     12  C   UNL     1       2.109  -2.200  -0.603  0.00  0.00    +0.238 C 
ATOM     13  O   UNL     1       1.435  -1.309  -1.075  0.00  0.00    -0.273 OA
ATOM     14  N   UNL     1       3.081  -2.772  -1.340  0.00  0.00    -0.309 N 
ATOM     15  H   UNL     1       3.620  -3.485  -0.963  0.00  0.00    +0.149 HD
BRANCH  14  16
ATOM     16  C   UNL     1       3.324  -2.317  -2.712  0.00  0.00    +0.026 C 
ATOM     17  C   UNL     1       3.695  -0.833  -2.698  0.00  0.00    +0.031 C 
ATOM     18  C   UNL     1       4.472  -3.125  -3.321  0.00  0.00    +0.031 C 
ATOM     19  C   UNL     1       2.059  -2.519  -3.548  0.00  0.00    +0.031 C 
ENDBRANCH  14  16
ENDBRANCH   1  12
BRANCH   1  20
ATOM     20  N   UNL     1       0.723  -1.935   1.371  0.00  0.00    -0.282 N 
ATOM     21  C   UNL     1       0.033  -2.453   2.407  0.00  0.00    +0.255 C 
ATOM     22  O   UNL     1       0.354  -3.529   2.873  0.00  0.00    -0.270 OA
BRANCH  21  23
ATOM     23  C   UNL     1      -1.109  -1.716   2.973  0.00  0.00    +0.119 A 
ATOM     24  C   UNL     1      -2.402  -1.924   2.473  0.00  0.00    +0.133 A 
ATOM     25  C   UNL     1      -3.470  -1.226   3.014  0.00  0.00    +0.046 A 
ATOM     26  C   UNL     1      -3.263  -0.326   4.043  0.00  0.00    +0.007 A 
ATOM     27  C   UNL     1      -1.992  -0.112   4.543  0.00  0.00    +0.046 A 
ATOM     28  C   UNL     1      -0.911  -0.804   4.021  0.00  0.00    +0.133 A 
BRANCH  28  29
ATOM     29  O   UNL     1       0.334  -0.597   4.517  0.00  0.00    -0.506 OA
ATOM     30  H   UNL     1       0.822   0.111   4.073  0.00  0.00    +0.292 HD
ENDBRANCH  28  29
BRANCH  24  31
ATOM     31  O   UNL     1      -2.608  -2.807   1.464  0.00  0.00    -0.506 OA
ATOM     32  H   UNL     1      -2.791  -3.709   1.761  0.00  0.00    +0.292 HD
ENDBRANCH  24  31
ENDBRANCH  21  23
BRANCH  20  33
ATOM     33  C   UNL     1       0.336  -0.638   0.809  0.00  0.00    +0.109 C 
BRANCH  33  35
ATOM     34  C   UNL     1      -1.060   0.478  -0.936  0.00  0.00    +0.005 C 
ATOM     35  C   UNL     1      -0.799  -0.836  -0.198  0.00  0.00    +0.016 C 
ENDBRANCH  33  35
ENDBRANCH  20  33
ENDBRANCH   1  20
TORSDOF 11
