REMARK  Name = ZINC63280040
REMARK  4 active torsions:
REMARK  status: ('A' for Active; 'I' for Inactive)
REMARK    1  A    between atoms: C_6  and  C_10
REMARK    2  A    between atoms: C_16  and  C_18
REMARK    3  A    between atoms: C_18  and  O_19
REMARK    4  A    between atoms: O_19  and  C_20
REMARK                            x       y       z     vdW  Elec       q    Type
REMARK                         _______ _______ _______ _____ _____    ______ ____
ROOT
ATOM      1  C   UNL     1       3.542  -2.787  -1.302  0.00  0.00    +0.035 C 
ATOM      2  C   UNL     1       5.071  -2.801  -1.342  0.00  0.00    +0.026 C 
ATOM      3  C   UNL     1       5.538  -3.497  -2.624  0.00  0.00    +0.108 C 
ATOM      4  N   UNL     1       4.920  -4.828  -2.692  0.00  0.00    -0.299 N 
ATOM      5  C   UNL     1       3.459  -4.936  -2.572  0.00  0.00    +0.108 C 
ATOM      6  C   UNL     1       3.016  -4.224  -1.290  0.00  0.00    +0.026 C 
ATOM      7  C   UNL     1       5.678  -5.930  -2.860  0.00  0.00    +0.253 C 
ATOM      8  O   UNL     1       6.883  -5.828  -2.958  0.00  0.00    -0.272 OA
ENDROOT
BRANCH   1  14
ATOM      9  C   UNL     1      -0.016   1.344   0.009  0.00  0.00    +0.002 A 
ATOM     10  C   UNL     1       1.158   2.118   0.002  0.00  0.00    +0.002 A 
ATOM     11  C   UNL     1       2.389   1.570  -0.013  0.00  0.00    +0.027 A 
ATOM     12  C   UNL     1       2.533   0.108  -0.022  0.00  0.00    +0.060 A 
ATOM     13  N   UNL     1       3.569  -0.680  -0.036  0.00  0.00    -0.363 N 
ATOM     14  C   UNL     1       3.071  -2.062  -0.039  0.00  0.00    +0.177 C 
ATOM     15  N   UNL     1       1.606  -1.974  -0.024  0.00  0.00    -0.363 N 
ATOM     16  C   UNL     1       1.290  -0.712  -0.014  0.00  0.00    +0.060 A 
ATOM     17  C   UNL     1       0.002  -0.004   0.002  0.00  0.00    +0.027 A 
ATOM     18  H   UNL     1       4.499  -0.405  -0.045  0.00  0.00    +0.162 HD
ATOM     19  H   UNL     1       0.987  -2.721  -0.022  0.00  0.00    +0.162 HD
ENDBRANCH   1  14
BRANCH   7  20
ATOM     20  C   UNL     1       5.029  -7.288  -2.928  0.00  0.00    +0.324 C 
BRANCH  20  21
ATOM     21  O   UNL     1       6.034  -8.288  -3.109  0.00  0.00    -0.483 OA
BRANCH  21  22
ATOM     22  C   UNL     1       5.613  -9.579  -3.191  0.00  0.00    +0.122 A 
ATOM     23  C   UNL     1       4.257  -9.871  -3.102  0.00  0.00    +0.047 A 
ATOM     24  C   UNL     1       3.815 -11.177  -3.179  0.00  0.00    +0.027 A 
ATOM     25  C   UNL     1       4.728 -12.207  -3.348  0.00  0.00    +0.041 A 
ATOM     26  C   UNL     1       6.099 -11.915  -3.445  0.00  0.00    +0.061 A 
ATOM     27  C   UNL     1       6.537 -10.594  -3.366  0.00  0.00    +0.060 A 
ATOM     28  C   UNL     1       7.055 -13.024  -3.647  0.00  0.00    +0.250 C 
ATOM     29  O   UNL     1       8.257 -12.844  -3.597  0.00  0.00    -0.270 OA
ATOM     30  N   UNL     1       6.534 -14.247  -3.889  0.00  0.00    -0.279 N 
ATOM     31  C   UNL     1       7.229 -15.536  -3.856  0.00  0.00    +0.110 C 
ATOM     32  C   UNL     1       6.167 -16.633  -4.089  0.00  0.00    +0.022 C 
ATOM     33  C   UNL     1       4.840 -15.923  -3.706  0.00  0.00    +0.044 C 
ATOM     34  C   UNL     1       5.108 -14.482  -4.202  0.00  0.00    +0.161 C 
ATOM     35  N   UNL     1       4.305 -13.534  -3.418  0.00  0.00    -0.325 N 
ATOM     36  H   UNL     1       3.501 -13.824  -2.961  0.00  0.00    +0.148 HD
ENDBRANCH  21  22
ENDBRANCH  20  21
ENDBRANCH   7  20
TORSDOF 4
