REMARK  Name = ZINC67649903
REMARK  7 active torsions:
REMARK  status: ('A' for Active; 'I' for Inactive)
REMARK    1  A    between atoms: C_1  and  N_2
REMARK    2  A    between atoms: N_2  and  C_3
REMARK    3  A    between atoms: C_4  and  C_6
REMARK    4  A    between atoms: C_6  and  N_7
REMARK    5  A    between atoms: C_10  and  C_14
REMARK    6  A    between atoms: C_10  and  C_22
REMARK    7  A    between atoms: C_14  and  C_15
REMARK                            x       y       z     vdW  Elec       q    Type
REMARK                         _______ _______ _______ _____ _____    ______ ____
ROOT
ATOM      1  N   UNL     1       0.014  -2.659  -2.561  0.00  0.00    -0.215 N 
ATOM      2  C   UNL     1      -1.104  -2.918  -3.267  0.00  0.00    +0.248 C 
ATOM      3  O   UNL     1      -2.251  -2.801  -2.892  0.00  0.00    -0.273 OA
ATOM      4  C   UNL     1      -0.630  -3.385  -4.629  0.00  0.00    +0.119 C 
ATOM      5  N   UNL     1       0.838  -3.329  -4.522  0.00  0.00    -0.284 N 
ATOM      6  C   UNL     1       1.117  -2.890  -3.281  0.00  0.00    +0.310 C 
ATOM      7  O   UNL     1       2.246  -2.725  -2.861  0.00  0.00    -0.252 OA
ATOM      8  H   UNL     1       1.479  -3.562  -5.213  0.00  0.00    +0.151 HD
ENDROOT
BRANCH   4   9
ATOM      9  C   UNL     1      -1.097  -4.816  -4.900  0.00  0.00    +0.018 C 
ATOM     10  C   UNL     1      -2.625  -4.848  -4.994  0.00  0.00    -0.013 C 
ATOM     11  C   UNL     1      -3.089  -6.293  -5.186  0.00  0.00    -0.082 C 
ATOM     12  N   UNL     1      -2.651  -7.107  -4.046  0.00  0.00    +0.379 N 
ATOM     13  C   UNL     1      -1.184  -7.140  -3.992  0.00  0.00    -0.082 C 
ATOM     14  C   UNL     1      -0.646  -5.727  -3.755  0.00  0.00    -0.013 C 
ATOM     15  H   UNL     1      -3.008  -6.707  -3.191  0.00  0.00    -0.086 HD
ATOM     16  H   UNL     1      -3.003  -8.046  -4.149  0.00  0.00    -0.086 HD
ENDBRANCH   4   9
BRANCH   1  17
ATOM     17  C   UNL     1       0.021  -2.178  -1.177  0.00  0.00    +0.213 C 
BRANCH  17  21
ATOM     18  C   UNL     1      -0.018   1.461   0.010  0.00  0.00    +0.131 C 
ATOM     19  N   UNL     1       0.002  -0.004   0.002  0.00  0.00    -0.306 N 
ATOM     20  C   UNL     1       0.024  -0.743   1.267  0.00  0.00    +0.131 C 
ATOM     21  C   UNL     1       0.000  -0.672  -1.169  0.00  0.00    +0.233 C 
ATOM     22  O   UNL     1      -0.018  -0.060  -2.216  0.00  0.00    -0.274 OA
ENDBRANCH  17  21
ENDBRANCH   1  17
BRANCH   4  23
ATOM     23  C   UNL     1      -1.126  -2.439  -5.725  0.00  0.00    +0.070 C 
BRANCH  23  24
ATOM     24  C   UNL     1      -0.508  -1.078  -5.531  0.00  0.00    -0.045 A 
ATOM     25  C   UNL     1      -1.145  -0.136  -4.744  0.00  0.00    +0.006 A 
ATOM     26  C   UNL     1      -0.579   1.112  -4.565  0.00  0.00    +0.038 A 
ATOM     27  C   UNL     1       0.625   1.419  -5.174  0.00  0.00    +0.123 A 
ATOM     28  C   UNL     1       1.262   0.475  -5.962  0.00  0.00    +0.038 A 
ATOM     29  C   UNL     1       0.697  -0.774  -6.135  0.00  0.00    +0.006 A 
ATOM     30  F   UNL     1       1.179   2.639  -5.000  0.00  0.00    -0.205 F 
ENDBRANCH  23  24
ENDBRANCH   4  23
TORSDOF 5
