REMARK  Name = ZINC51608673
REMARK  8 active torsions:
REMARK  status: ('A' for Active; 'I' for Inactive)
REMARK    1  A    between atoms: C_1  and  C_2
REMARK    2  A    between atoms: C_4  and  C_21
REMARK    3  A    between atoms: C_6  and  S_8
REMARK    4  A    between atoms: S_8  and  C_9
REMARK    5  A    between atoms: C_9  and  C_10
REMARK    6  A    between atoms: C_12  and  N_18
REMARK    7  A    between atoms: C_15  and  N_16
REMARK    8  A    between atoms: N_16  and  N_17
REMARK                            x       y       z     vdW  Elec       q    Type
REMARK                         _______ _______ _______ _____ _____    ______ ____
ROOT
ATOM      1  C   UNL     1       0.056  -2.148   5.299  0.00  0.00    -0.013 A 
ATOM      2  C   UNL     1      -1.133  -2.448   5.935  0.00  0.00    +0.039 A 
ATOM      3  C   UNL     1      -1.121  -3.004   7.201  0.00  0.00    +0.127 A 
ATOM      4  C   UNL     1       0.082  -3.263   7.834  0.00  0.00    +0.034 A 
ATOM      5  C   UNL     1       1.274  -2.966   7.204  0.00  0.00    +0.027 A 
ATOM      6  C   UNL     1       1.265  -2.412   5.930  0.00  0.00    +0.045 A 
ENDROOT
BRANCH   3   7
ATOM      7  N   UNL     1      -2.396  -3.324   7.880  0.00  0.00    +0.056 N 
ATOM      8  O   UNL     1      -3.448  -3.098   7.327  0.00  0.00    -0.126 OA
ATOM      9  O   UNL     1      -2.387  -3.810   8.986  0.00  0.00    -0.126 OA
ENDBRANCH   3   7
BRANCH   6  10
ATOM     10  N   UNL     1       2.469  -2.115   5.287  0.00  0.00    -0.283 N 
ATOM     11  H   UNL     1       2.461  -1.725   4.399  0.00  0.00    +0.166 HD
BRANCH  10  12
ATOM     12  N   UNL     1       3.657  -2.375   5.909  0.00  0.00    -0.257 NA
ATOM     13  H   UNL     1       4.436  -2.110   5.325  0.00  0.00    +0.140 HD
ATOM     14  H   UNL     1       3.704  -1.915   6.806  0.00  0.00    +0.140 HD
ENDBRANCH  10  12
ENDBRANCH   6  10
BRANCH   1  15
ATOM     15  C   UNL     1       0.041  -1.542   3.919  0.00  0.00    +0.114 C 
BRANCH  15  16
ATOM     16  S   UNL     1       0.053  -2.864   2.678  0.00  0.00    -0.081 S 
BRANCH  16  22
ATOM     17  C   UNL     1      -0.018   1.503   0.010  0.00  0.00    +0.066 C 
ATOM     18  C   UNL     1       0.002  -0.004   0.002  0.00  0.00    +0.043 A 
ATOM     19  C   UNL     1       0.006  -0.699  -1.198  0.00  0.00    +0.046 A 
ATOM     20  C   UNL     1       0.025  -2.084  -1.161  0.00  0.00    +0.043 A 
ATOM     21  N   UNL     1       0.039  -2.699   0.010  0.00  0.00    -0.227 NA
ATOM     22  C   UNL     1       0.035  -2.005   1.140  0.00  0.00    +0.189 A 
ATOM     23  N   UNL     1       0.022  -0.679   1.139  0.00  0.00    -0.227 NA
ATOM     24  C   UNL     1       0.029  -2.881  -2.440  0.00  0.00    +0.066 C 
ENDBRANCH  16  22
ENDBRANCH  15  16
ENDBRANCH   1  15
TORSDOF 6
