REMARK  Name = ZINC01624386
REMARK  6 active torsions:
REMARK  status: ('A' for Active; 'I' for Inactive)
REMARK    1  A    between atoms: C_1  and  C_2
REMARK    2  A    between atoms: C_11  and  C_12
REMARK    3  A    between atoms: C_11  and  O_28
REMARK    4  A    between atoms: C_12  and  C_14
REMARK    5  A    between atoms: C_12  and  C_20
REMARK    6  A    between atoms: C_20  and  C_22
REMARK                            x       y       z     vdW  Elec       q    Type
REMARK                         _______ _______ _______ _____ _____    ______ ____
ROOT
ATOM      1  C   UNL     1      -4.209   1.671  -5.022  0.00  0.00    +0.047 C 
ATOM      2  C   UNL     1      -3.094   1.111  -4.176  0.00  0.00    -0.011 A 
ATOM      3  C   UNL     1      -2.039   0.452  -4.775  0.00  0.00    +0.046 A 
ATOM      4  C   UNL     1      -1.011  -0.065  -4.007  0.00  0.00    +0.021 A 
ATOM      5  C   UNL     1      -1.040   0.079  -2.631  0.00  0.00    +0.010 A 
ATOM      6  C   UNL     1      -2.090   0.732  -2.030  0.00  0.00    +0.015 A 
ATOM      7  C   UNL     1      -3.130   1.259  -2.791  0.00  0.00    +0.044 A 
ATOM      8  N   UNL     1      -4.070   1.875  -1.964  0.00  0.00    -0.282 N 
ATOM      9  C   UNL     1      -3.731   1.802  -0.666  0.00  0.00    +0.255 C 
ATOM     10  O   UNL     1      -4.360   2.249   0.269  0.00  0.00    -0.272 OA
ATOM     11  C   UNL     1      -2.416   1.055  -0.590  0.00  0.00    +0.182 C 
ATOM     12 CL   UNL     1      -2.001   0.273  -6.502  0.00  0.00    -0.083 Cl
ATOM     13  H   UNL     1      -4.876   2.307  -2.289  0.00  0.00    +0.155 HD
ENDROOT
BRANCH  11  14
ATOM     14  O   UNL     1      -2.564  -0.145   0.171  0.00  0.00    -0.374 OA
ATOM     15  H   UNL     1      -3.240  -0.746  -0.171  0.00  0.00    +0.211 HD
ENDBRANCH  11  14
BRANCH  11  16
ATOM     16  C   UNL     1      -1.330   1.944   0.019  0.00  0.00    +0.135 C 
BRANCH  16  17
ATOM     17  C   UNL     1      -1.701   2.290   1.438  0.00  0.00    -0.033 A 
ATOM     18  C   UNL     1      -1.878   1.285   2.370  0.00  0.00    +0.004 A 
ATOM     19  C   UNL     1      -2.215   1.602   3.673  0.00  0.00    +0.000 A 
ATOM     20  C   UNL     1      -2.382   2.924   4.041  0.00  0.00    +0.000 A 
ATOM     21  C   UNL     1      -2.210   3.928   3.108  0.00  0.00    +0.000 A 
ATOM     22  C   UNL     1      -1.869   3.611   1.806  0.00  0.00    +0.004 A 
ENDBRANCH  16  17
BRANCH  16  23
ATOM     23  C   UNL     1      -0.014   1.208   0.009  0.00  0.00    +0.174 C 
ATOM     24  O   UNL     1       0.002  -0.004   0.002  0.00  0.00    -0.291 OA
BRANCH  23  25
ATOM     25  C   UNL     1       1.250   1.961   0.001  0.00  0.00    +0.018 A 
ATOM     26  C   UNL     1       1.235   3.360   0.003  0.00  0.00    +0.011 A 
ATOM     27  C   UNL     1       2.424   4.058  -0.000  0.00  0.00    +0.001 A 
ATOM     28  C   UNL     1       3.630   3.379  -0.015  0.00  0.00    +0.000 A 
ATOM     29  C   UNL     1       3.653   1.995  -0.023  0.00  0.00    +0.001 A 
ATOM     30  C   UNL     1       2.473   1.282  -0.015  0.00  0.00    +0.011 A 
ENDBRANCH  23  25
ENDBRANCH  16  23
ENDBRANCH  11  16
TORSDOF 5
