REMARK  Name = ZINC04347032
REMARK  12 active torsions:
REMARK  status: ('A' for Active; 'I' for Inactive)
REMARK    1  A    between atoms: C_1  and  C_2
REMARK    2  A    between atoms: N_4  and  C_5
REMARK    3  A    between atoms: C_7  and  O_30
REMARK    4  A    between atoms: C_9  and  O_29
REMARK    5  A    between atoms: C_11  and  C_27
REMARK    6  A    between atoms: C_14  and  O_16
REMARK    7  A    between atoms: O_16  and  C_17
REMARK    8  A    between atoms: C_20  and  C_23
REMARK    9  A    between atoms: C_23  and  C_24
REMARK   10  A    between atoms: C_23  and  C_25
REMARK   11  A    between atoms: C_23  and  C_26
REMARK   12  A    between atoms: C_27  and  O_28
REMARK                            x       y       z     vdW  Elec       q    Type
REMARK                         _______ _______ _______ _____ _____    ______ ____
ROOT
ATOM      1  C   UNL     1       3.627   5.898   0.124  0.00  0.00    +0.173 C 
ATOM      2  C   UNL     1       3.520   7.425   0.072  0.00  0.00    +0.172 C 
ATOM      3  C   UNL     1       2.815   7.833  -1.225  0.00  0.00    +0.176 C 
ATOM      4  C   UNL     1       1.445   7.152  -1.288  0.00  0.00    +0.179 C 
ATOM      5  O   UNL     1       1.614   5.736  -1.203  0.00  0.00    -0.332 OA
ATOM      6  C   UNL     1       2.225   5.292   0.010  0.00  0.00    +0.331 C 
ENDROOT
BRANCH   1  10
ATOM      7  C   UNL     1       5.500   3.895   2.795  0.00  0.00    +0.109 C 
ATOM      8  C   UNL     1       4.877   4.312   1.488  0.00  0.00    +0.210 C 
ATOM      9  O   UNL     1       4.954   3.585   0.520  0.00  0.00    -0.276 OA
ATOM     10  N   UNL     1       4.233   5.492   1.395  0.00  0.00    -0.304 N 
ATOM     11  H   UNL     1       4.171   6.073   2.169  0.00  0.00    +0.149 HD
ENDBRANCH   1  10
BRANCH   3  12
ATOM     12  O   UNL     1       2.646   9.251  -1.251  0.00  0.00    -0.387 OA
ATOM     13  H   UNL     1       2.200   9.580  -2.044  0.00  0.00    +0.210 HD
ENDBRANCH   3  12
BRANCH   2  14
ATOM     14  O   UNL     1       4.830   7.997   0.105  0.00  0.00    -0.387 OA
ATOM     15  H   UNL     1       4.838   8.963   0.068  0.00  0.00    +0.210 HD
ENDBRANCH   2  14
BRANCH   6  16
ATOM     16  O   UNL     1       2.322   3.866   0.001  0.00  0.00    -0.462 OA
BRANCH  16  17
ATOM     17  C   UNL     1       1.155   3.169   0.008  0.00  0.00    +0.124 A 
ATOM     18  C   UNL     1       1.175   1.782   0.000  0.00  0.00    +0.046 A 
ATOM     19  C   UNL     1      -0.013   1.076   0.008  0.00  0.00    +0.008 A 
ATOM     20  C   UNL     1      -1.220   1.750   0.017  0.00  0.00    -0.042 A 
ATOM     21  C   UNL     1      -1.242   3.133   0.031  0.00  0.00    +0.008 A 
ATOM     22  C   UNL     1      -0.057   3.844   0.023  0.00  0.00    +0.046 A 
BRANCH  20  23
ATOM     23  C   UNL     1      -2.513   0.977   0.019  0.00  0.00    -0.013 C 
ATOM     24  C   UNL     1      -2.575   0.090   1.264  0.00  0.00    +0.015 C 
ATOM     25  C   UNL     1      -3.691   1.954   0.030  0.00  0.00    +0.015 C 
ATOM     26  C   UNL     1      -2.587   0.103  -1.234  0.00  0.00    +0.015 C 
ENDBRANCH  20  23
ENDBRANCH  16  17
ENDBRANCH   6  16
BRANCH   4  27
ATOM     27  C   UNL     1       0.759   7.507  -2.609  0.00  0.00    +0.190 C 
BRANCH  27  28
ATOM     28  O   UNL     1      -0.564   6.968  -2.618  0.00  0.00    -0.392 OA
ATOM     29  H   UNL     1      -1.059   7.154  -3.428  0.00  0.00    +0.210 HD
ENDBRANCH  27  28
ENDBRANCH   4  27
TORSDOF 8
