REMARK  Name = ZINC36570930
REMARK  14 active torsions:
REMARK  status: ('A' for Active; 'I' for Inactive)
REMARK    1  A    between atoms: C_1  and  C_2
REMARK    2  A    between atoms: C_2  and  C_3
REMARK    3  A    between atoms: C_3  and  N_4
REMARK    4  A    between atoms: N_4  and  C_5
REMARK    5  A    between atoms: C_5  and  C_7
REMARK    6  A    between atoms: C_5  and  C_14
REMARK    7  A    between atoms: C_10  and  O_13
REMARK    8  A    between atoms: N_16  and  C_17
REMARK    9  A    between atoms: C_17  and  C_18
REMARK   10  A    between atoms: C_17  and  C_19
REMARK   11  A    between atoms: C_17  and  C_20
REMARK   12  A    between atoms: C_21  and  C_23
REMARK   13  A    between atoms: C_24  and  O_30
REMARK   14  A    between atoms: C_28  and  O_29
REMARK                            x       y       z     vdW  Elec       q    Type
REMARK                         _______ _______ _______ _____ _____    ______ ____
ROOT
ATOM      1  C   UNL     1      -1.291  -2.821   1.087  0.00  0.00    +0.192 C 
ENDROOT
BRANCH   1   2
ATOM      2  C   UNL     1      -0.273  -3.571   1.907  0.00  0.00    -0.018 A 
ATOM      3  C   UNL     1       0.517  -2.893   2.816  0.00  0.00    +0.009 A 
ATOM      4  C   UNL     1       1.451  -3.578   3.568  0.00  0.00    +0.046 A 
ATOM      5  C   UNL     1       1.595  -4.949   3.412  0.00  0.00    +0.117 A 
ATOM      6  C   UNL     1       0.801  -5.628   2.499  0.00  0.00    +0.046 A 
ATOM      7  C   UNL     1      -0.135  -4.939   1.753  0.00  0.00    +0.009 A 
BRANCH   5   8
ATOM      8  O   UNL     1       2.514  -5.626   4.150  0.00  0.00    -0.507 OA
ATOM      9  H   UNL     1       2.174  -5.958   4.993  0.00  0.00    +0.292 HD
ENDBRANCH   5   8
ENDBRANCH   1   2
BRANCH   1  10
ATOM     10  C   UNL     1      -2.552  -2.644   1.893  0.00  0.00    +0.238 C 
ATOM     11  O   UNL     1      -3.464  -1.975   1.452  0.00  0.00    -0.273 OA
ATOM     12  N   UNL     1      -2.668  -3.228   3.102  0.00  0.00    -0.309 N 
ATOM     13  H   UNL     1      -1.939  -3.763   3.454  0.00  0.00    +0.149 HD
BRANCH  12  14
ATOM     14  C   UNL     1      -3.894  -3.056   3.884  0.00  0.00    +0.026 C 
ATOM     15  C   UNL     1      -5.085  -3.603   3.094  0.00  0.00    +0.031 C 
ATOM     16  C   UNL     1      -3.767  -3.816   5.206  0.00  0.00    +0.031 C 
ATOM     17  C   UNL     1      -4.112  -1.569   4.170  0.00  0.00    +0.031 C 
ENDBRANCH  12  14
ENDBRANCH   1  10
BRANCH   1  18
ATOM     18  N   UNL     1      -0.753  -1.507   0.726  0.00  0.00    -0.282 N 
ATOM     19  C   UNL     1       0.377  -1.418  -0.002  0.00  0.00    +0.255 C 
ATOM     20  O   UNL     1       0.952  -2.429  -0.359  0.00  0.00    -0.270 OA
BRANCH  19  21
ATOM     21  C   UNL     1       0.917  -0.097  -0.365  0.00  0.00    +0.119 A 
ATOM     22  C   UNL     1       1.836   0.546   0.477  0.00  0.00    +0.133 A 
ATOM     23  C   UNL     1       2.338   1.789   0.126  0.00  0.00    +0.046 A 
ATOM     24  C   UNL     1       1.937   2.394  -1.051  0.00  0.00    +0.007 A 
ATOM     25  C   UNL     1       1.032   1.769  -1.888  0.00  0.00    +0.046 A 
ATOM     26  C   UNL     1       0.521   0.524  -1.558  0.00  0.00    +0.133 A 
BRANCH  26  27
ATOM     27  O   UNL     1      -0.362  -0.090  -2.385  0.00  0.00    -0.506 OA
ATOM     28  H   UNL     1      -1.287   0.122  -2.199  0.00  0.00    +0.292 HD
ENDBRANCH  26  27
BRANCH  22  29
ATOM     29  O   UNL     1       2.231  -0.046   1.632  0.00  0.00    -0.506 OA
ATOM     30  H   UNL     1       3.012  -0.608   1.539  0.00  0.00    +0.292 HD
ENDBRANCH  22  29
ENDBRANCH  19  21
BRANCH  18  31
ATOM     31  C   UNL     1      -1.445  -0.289   1.156  0.00  0.00    +0.109 C 
BRANCH  31  33
ATOM     32  C   UNL     1      -2.004   1.150   3.120  0.00  0.00    +0.005 C 
ATOM     33  C   UNL     1      -1.201  -0.064   2.650  0.00  0.00    +0.016 C 
ENDBRANCH  31  33
ENDBRANCH  18  31
ENDBRANCH   1  18
TORSDOF 10
