REMARK  Name = ZINC01040131
REMARK  7 active torsions:
REMARK  status: ('A' for Active; 'I' for Inactive)
REMARK    1  A    between atoms: C_1  and  C_2
REMARK    2  A    between atoms: C_2  and  O_3
REMARK    3  A    between atoms: O_3  and  C_4
REMARK    4  A    between atoms: C_9  and  C_10
REMARK    5  A    between atoms: C_10  and  N_11
REMARK    6  A    between atoms: N_20  and  C_23
REMARK    7  A    between atoms: C_28  and  C_29
REMARK                            x       y       z     vdW  Elec       q    Type
REMARK                         _______ _______ _______ _____ _____    ______ ____
ROOT
ATOM      1  N   UNL     1      -4.157   0.005   1.228  0.00  0.00    -0.254 N 
ATOM      2  C   UNL     1      -4.790  -0.360   0.094  0.00  0.00    +0.283 A 
ATOM      3  O   UNL     1      -5.836  -0.981   0.145  0.00  0.00    -0.265 OA
ATOM      4  C   UNL     1      -4.225  -0.014  -1.153  0.00  0.00    +0.149 A 
ATOM      5  C   UNL     1      -3.033   0.699  -1.181  0.00  0.00    +0.172 A 
ATOM      6  N   UNL     1      -2.723   0.900  -2.465  0.00  0.00    -0.218 NA
ATOM      7  C   UNL     1      -3.640   0.367  -3.231  0.00  0.00    +0.199 A 
ATOM      8  N   UNL     1      -4.585  -0.217  -2.470  0.00  0.00    -0.339 N 
ATOM      9  H   UNL     1      -5.395  -0.705  -2.796  0.00  0.00    +0.167 HD
ATOM     10  N   UNL     1      -2.429   1.040   0.019  0.00  0.00    -0.244 N 
ATOM     11  C   UNL     1      -3.002   0.691   1.187  0.00  0.00    +0.338 A 
ATOM     12  O   UNL     1      -2.460   1.003   2.229  0.00  0.00    -0.246 OA
ENDROOT
BRANCH  10  13
ATOM     13  C   UNL     1      -1.224   1.755   0.017  0.00  0.00    +0.056 A 
ATOM     14  C   UNL     1      -0.013   1.076   0.008  0.00  0.00    +0.026 A 
ATOM     15  C   UNL     1       1.173   1.783   0.000  0.00  0.00    +0.002 A 
ATOM     16  C   UNL     1       1.155   3.166   0.008  0.00  0.00    +0.000 A 
ATOM     17  C   UNL     1      -0.049   3.845   0.023  0.00  0.00    +0.005 A 
ATOM     18  C   UNL     1      -1.239   3.143   0.031  0.00  0.00    -0.026 A 
ATOM     19  C   UNL     1      -2.551   3.883   0.048  0.00  0.00    +0.046 C 
ENDBRANCH  10  13
BRANCH   1  20
ATOM     20  C   UNL     1      -4.738  -0.351   2.525  0.00  0.00    +0.168 C 
BRANCH  20  26
ATOM     21  C   UNL     1      -6.946   0.836   2.463  0.00  0.00    +0.125 A 
ATOM     22  C   UNL     1      -7.795   1.847   2.888  0.00  0.00    +0.046 A 
ATOM     23  C   UNL     1      -7.358   2.769   3.819  0.00  0.00    +0.004 A 
ATOM     24  C   UNL     1      -6.076   2.683   4.330  0.00  0.00    +0.001 A 
ATOM     25  C   UNL     1      -5.229   1.674   3.911  0.00  0.00    +0.009 A 
ATOM     26  C   UNL     1      -5.662   0.749   2.981  0.00  0.00    +0.014 A 
BRANCH  21  27
ATOM     27  O   UNL     1      -7.372  -0.070   1.544  0.00  0.00    -0.492 OA
BRANCH  27  29
ATOM     28  C   UNL     1      -9.004  -1.022   0.037  0.00  0.00    +0.048 C 
ATOM     29  C   UNL     1      -8.706   0.081   1.055  0.00  0.00    +0.225 C 
ENDBRANCH  27  29
ENDBRANCH  21  27
ENDBRANCH  20  26
ENDBRANCH   1  20
TORSDOF 5
