REMARK  Name = ZINC04499996
REMARK  6 active torsions:
REMARK  status: ('A' for Active; 'I' for Inactive)
REMARK    1  A    between atoms: C_4  and  C_7
REMARK    2  A    between atoms: C_8  and  C_9
REMARK    3  A    between atoms: C_9  and  C_11
REMARK    4  A    between atoms: N_18  and  S_19
REMARK    5  A    between atoms: S_19  and  C_22
REMARK    6  A    between atoms: C_25  and  N_28
REMARK                            x       y       z     vdW  Elec       q    Type
REMARK                         _______ _______ _______ _____ _____    ______ ____
ROOT
ATOM      1  C   UNL     1       1.950  -1.651  -0.025  0.00  0.00    +0.079 C 
ATOM      2  C   UNL     1       1.437  -0.398  -0.014  0.00  0.00    +0.102 C 
ATOM      3  C   UNL     1       0.002  -0.004   0.002  0.00  0.00    +0.284 C 
ATOM      4  O   UNL     1      -0.962  -0.749   0.008  0.00  0.00    -0.267 OA
ATOM      5  N   UNL     1      -0.016   1.335   0.009  0.00  0.00    -0.145 NA
ATOM      6  C   UNL     1       1.212   1.810   0.000  0.00  0.00    +0.196 C 
ATOM      7  N   UNL     1       2.134   0.804  -0.014  0.00  0.00    -0.284 N 
ATOM      8  N   UNL     1       1.522   3.139   0.004  0.00  0.00    -0.189 N 
ATOM      9  H   UNL     1       3.098   0.909  -0.023  0.00  0.00    +0.155 HD
ATOM     10  H   UNL     1       2.450   3.420  -0.004  0.00  0.00    +0.176 HD
ENDROOT
BRANCH   8  11
ATOM     11  S   UNL     1       0.314   4.271   0.022  0.00  0.00    +0.074 S 
ATOM     12  O   UNL     1       0.949   5.542   0.049  0.00  0.00    -0.150 OA
ATOM     13  O   UNL     1      -0.605   3.901  -0.997  0.00  0.00    -0.150 OA
BRANCH  11  14
ATOM     14  C   UNL     1      -0.537   4.101   1.555  0.00  0.00    +0.109 A 
ATOM     15  C   UNL     1      -1.622   3.249   1.650  0.00  0.00    +0.030 A 
ATOM     16  C   UNL     1      -2.288   3.108   2.852  0.00  0.00    +0.024 A 
ATOM     17  C   UNL     1      -1.875   3.833   3.962  0.00  0.00    +0.025 A 
ATOM     18  C   UNL     1      -0.788   4.693   3.861  0.00  0.00    +0.024 A 
ATOM     19  C   UNL     1      -0.123   4.824   2.658  0.00  0.00    +0.030 A 
BRANCH  17  20
ATOM     20  N   UNL     1      -2.549   3.698   5.178  0.00  0.00    -0.358 N 
ATOM     21  H   UNL     1      -2.259   4.204   5.952  0.00  0.00    +0.142 HD
ATOM     22  H   UNL     1      -3.308   3.097   5.247  0.00  0.00    +0.142 HD
ENDBRANCH  17  20
ENDBRANCH  11  14
ENDBRANCH   8  11
BRANCH   1  23
ATOM     23  C   UNL     1       3.406  -1.849  -0.040  0.00  0.00    +0.181 C 
ATOM     24  O   UNL     1       4.151  -0.886  -0.041  0.00  0.00    -0.288 OA
BRANCH  23  26
ATOM     25  C   UNL     1       5.299  -3.385  -0.066  0.00  0.00    +0.011 C 
ATOM     26  C   UNL     1       3.960  -3.203  -0.052  0.00  0.00    +0.051 C 
BRANCH  25  30
ATOM     27  C   UNL     1       6.906  -7.309  -0.102  0.00  0.00    +0.000 A 
ATOM     28  C   UNL     1       7.757  -6.217  -0.103  0.00  0.00    +0.001 A 
ATOM     29  C   UNL     1       7.242  -4.938  -0.092  0.00  0.00    +0.008 A 
ATOM     30  C   UNL     1       5.856  -4.746  -0.078  0.00  0.00    -0.025 A 
ATOM     31  C   UNL     1       5.003  -5.855  -0.071  0.00  0.00    +0.008 A 
ATOM     32  C   UNL     1       5.534  -7.128  -0.088  0.00  0.00    +0.001 A 
ENDBRANCH  25  30
ENDBRANCH  23  26
ENDBRANCH   1  23
TORSDOF 6
