REMARK  Name = ZINC33244599
REMARK  8 active torsions:
REMARK  status: ('A' for Active; 'I' for Inactive)
REMARK    1  A    between atoms: C_1  and  C_2
REMARK    2  A    between atoms: C_2  and  C_4
REMARK    3  A    between atoms: C_2  and  O_23
REMARK    4  A    between atoms: N_6  and  C_7
REMARK    5  A    between atoms: C_10  and  N_13
REMARK    6  A    between atoms: N_16  and  C_17
REMARK    7  A    between atoms: C_17  and  C_18
REMARK    8  A    between atoms: O_23  and  C_24
REMARK                            x       y       z     vdW  Elec       q    Type
REMARK                         _______ _______ _______ _____ _____    ______ ____
ROOT
ATOM      1  C   UNL     1       3.720  -6.286  -1.223  0.00  0.00    +0.034 A 
ATOM      2  C   UNL     1       2.550  -6.891  -1.662  0.00  0.00    +0.025 A 
ATOM      3  C   UNL     1       2.587  -8.169  -2.182  0.00  0.00    +0.025 A 
ATOM      4  C   UNL     1       3.792  -8.855  -2.254  0.00  0.00    +0.035 A 
ATOM      5  C   UNL     1       4.961  -8.253  -1.809  0.00  0.00    +0.025 A 
ATOM      6  C   UNL     1       4.926  -6.972  -1.295  0.00  0.00    +0.025 A 
ENDROOT
BRANCH   4   7
ATOM      7  N   UNL     1       3.828 -10.155  -2.775  0.00  0.00    -0.269 N 
ATOM      8  C   UNL     1       2.976 -10.511  -3.757  0.00  0.00    +0.304 C 
ATOM      9  O   UNL     1       2.245  -9.680  -4.259  0.00  0.00    -0.252 OA
ATOM     10  N   UNL     1       2.935 -11.790  -4.182  0.00  0.00    -0.292 N 
ATOM     11  H   UNL     1       4.552 -10.885  -2.383  0.00  0.00    +0.156 HD
ATOM     12  H   UNL     1       3.596 -12.542  -3.728  0.00  0.00    +0.151 HD
BRANCH  10  13
ATOM     13  C   UNL     1       2.009 -12.177  -5.250  0.00  0.00    +0.180 C 
BRANCH  13  14
ATOM     14  C   UNL     1       2.160 -13.649  -5.536  0.00  0.00    +0.122 A 
ATOM     15  C   UNL     1       1.473 -14.640  -4.940  0.00  0.00    +0.046 A 
ATOM     16  C   UNL     1       1.929 -15.852  -5.508  0.00  0.00    +0.041 A 
ATOM     17  C   UNL     1       2.867 -15.529  -6.416  0.00  0.00    +0.195 A 
ATOM     18  O   UNL     1       2.998 -14.192  -6.433  0.00  0.00    -0.466 OA
ENDBRANCH  13  14
ENDBRANCH  10  13
ENDBRANCH   4   7
BRANCH   1  21
ATOM     19  C   UNL     1       4.721  -4.150  -0.904  0.00  0.00    +0.258 C 
ATOM     20  O   UNL     1       5.645  -4.489  -1.613  0.00  0.00    -0.271 OA
ATOM     21  N   UNL     1       3.684  -4.986  -0.702  0.00  0.00    -0.282 N 
ATOM     22  H   UNL     1       2.809  -4.648  -0.127  0.00  0.00    +0.155 HD
BRANCH  19  24
ATOM     23  C   UNL     1       3.516  -1.991  -0.715  0.00  0.00    +0.062 C 
ATOM     24  C   UNL     1       4.733  -2.792  -0.250  0.00  0.00    +0.256 C 
BRANCH  24  25
ATOM     25  O   UNL     1       5.928  -2.098  -0.614  0.00  0.00    -0.479 OA
BRANCH  25  26
ATOM     26  C   UNL     1       6.408  -1.187   0.273  0.00  0.00    +0.136 A 
ATOM     27  C   UNL     1       5.681  -0.880   1.414  0.00  0.00    +0.049 A 
ATOM     28  C   UNL     1       6.170   0.046   2.315  0.00  0.00    +0.042 A 
ATOM     29  C   UNL     1       7.385   0.667   2.081  0.00  0.00    +0.125 A 
ATOM     30  C   UNL     1       8.112   0.362   0.943  0.00  0.00    +0.057 A 
ATOM     31  C   UNL     1       7.626  -0.564   0.039  0.00  0.00    +0.062 A 
ATOM     32 BR   UNL     1       8.619  -0.982  -1.515  0.00  0.00    -0.046 Br
ATOM     33  F   UNL     1       7.862   1.573   2.963  0.00  0.00    -0.205 F 
ENDBRANCH  25  26
ENDBRANCH  24  25
ENDBRANCH  19  24
ENDBRANCH   1  21
TORSDOF 7
