REMARK  Name = ZINC08312439
REMARK  5 active torsions:
REMARK  status: ('A' for Active; 'I' for Inactive)
REMARK    1  A    between atoms: C_1  and  C_2
REMARK    2  A    between atoms: C_2  and  C_4
REMARK    3  A    between atoms: C_2  and  N_13
REMARK    4  A    between atoms: C_14  and  C_16
REMARK    5  A    between atoms: C_16  and  N_17
REMARK                            x       y       z     vdW  Elec       q    Type
REMARK                         _______ _______ _______ _____ _____    ______ ____
ROOT
ATOM      1  N   UNL     1      -0.862   3.269   1.472  0.00  0.00    -0.304 N 
ATOM      2  C   UNL     1      -0.723   1.947   1.250  0.00  0.00    +0.232 C 
ATOM      3  O   UNL     1      -1.166   1.148   2.048  0.00  0.00    -0.274 OA
ATOM      4  H   UNL     1      -0.508   3.908   0.833  0.00  0.00    +0.149 HD
ENDROOT
BRANCH   1   6
ATOM      5  C   UNL     1      -3.057   3.774   2.426  0.00  0.00    +0.036 C 
ATOM      6  C   UNL     1      -1.548   3.741   2.677  0.00  0.00    +0.136 C 
BRANCH   6   7
ATOM      7  C   UNL     1      -1.066   5.128   3.018  0.00  0.00    +0.126 A 
ATOM      8  C   UNL     1      -0.826   5.572   4.260  0.00  0.00    +0.055 A 
ATOM      9  C   UNL     1      -0.376   6.962   4.116  0.00  0.00    +0.020 A 
ATOM     10  C   UNL     1       0.021   7.955   5.010  0.00  0.00    +0.011 A 
ATOM     11  C   UNL     1       0.387   9.185   4.538  0.00  0.00    +0.001 A 
ATOM     12  C   UNL     1       0.365   9.450   3.177  0.00  0.00    +0.004 A 
ATOM     13  C   UNL     1      -0.025   8.481   2.278  0.00  0.00    +0.047 A 
ATOM     14  C   UNL     1      -0.401   7.224   2.736  0.00  0.00    +0.135 A 
ATOM     15  O   UNL     1      -0.819   6.099   2.123  0.00  0.00    -0.458 OA
ENDBRANCH   6   7
ENDBRANCH   1   6
BRANCH   2  16
ATOM     16  C   UNL     1      -0.018   1.461   0.010  0.00  0.00    +0.213 C 
BRANCH  16  17
ATOM     17  N   UNL     1       0.002  -0.004   0.002  0.00  0.00    -0.215 N 
ATOM     18  C   UNL     1      -0.958  -0.770  -0.550  0.00  0.00    +0.247 C 
ATOM     19  O   UNL     1      -1.964  -0.391  -1.110  0.00  0.00    -0.273 OA
ATOM     20  C   UNL     1      -0.521  -2.208  -0.326  0.00  0.00    +0.113 C 
ATOM     21  C   UNL     1      -0.211  -2.830  -1.707  0.00  0.00    +0.035 C 
ATOM     22  C   UNL     1       0.744  -3.976  -1.518  0.00  0.00    +0.003 C 
ATOM     23  C   UNL     1       0.025  -5.333  -1.387  0.00  0.00    +0.000 C 
ATOM     24  C   UNL     1      -1.235  -5.259  -0.504  0.00  0.00    +0.000 C 
ATOM     25  C   UNL     1      -1.024  -4.415   0.724  0.00  0.00    +0.003 C 
ATOM     26  C   UNL     1      -1.504  -2.983   0.419  0.00  0.00    +0.035 C 
ATOM     27  N   UNL     1       0.757  -2.063   0.400  0.00  0.00    -0.285 N 
ATOM     28  C   UNL     1       0.979  -0.745   0.537  0.00  0.00    +0.310 C 
ATOM     29  O   UNL     1       1.956  -0.278   1.089  0.00  0.00    -0.252 OA
ATOM     30  H   UNL     1       1.329  -2.782   0.715  0.00  0.00    +0.151 HD
ENDBRANCH  16  17
ENDBRANCH   2  16
TORSDOF 4
