REMARK  Name = ZINC64581118
REMARK  11 active torsions:
REMARK  status: ('A' for Active; 'I' for Inactive)
REMARK    1  A    between atoms: C_1  and  C_2
REMARK    2  A    between atoms: C_2  and  C_3
REMARK    3  A    between atoms: C_3  and  N_4
REMARK    4  A    between atoms: C_10  and  C_31
REMARK    5  A    between atoms: N_16  and  C_19
REMARK    6  A    between atoms: C_19  and  C_20
REMARK    7  A    between atoms: N_22  and  C_23
REMARK    8  A    between atoms: N_33  and  C_34
REMARK    9  A    between atoms: C_34  and  C_36
REMARK   10  A    between atoms: C_34  and  C_37
REMARK   11  A    between atoms: C_37  and  C_38
REMARK                            x       y       z     vdW  Elec       q    Type
REMARK                         _______ _______ _______ _____ _____    ______ ____
ROOT
ATOM      1  N   UNL     1      -1.400  -1.959   0.009  0.00  0.00    -0.277 N 
ATOM      2  C   UNL     1      -1.401  -2.611  -1.171  0.00  0.00    +0.263 A 
ATOM      3  O   UNL     1      -1.409  -1.992  -2.218  0.00  0.00    -0.267 OA
ATOM      4  C   UNL     1      -1.391  -4.088  -1.173  0.00  0.00    +0.064 A 
ATOM      5  C   UNL     1      -1.391  -4.805  -2.369  0.00  0.00    +0.016 A 
ATOM      6  C   UNL     1      -1.380  -6.182  -2.341  0.00  0.00    +0.014 A 
ATOM      7  C   UNL     1      -1.371  -6.861  -1.120  0.00  0.00    +0.039 A 
ATOM      8  C   UNL     1      -1.372  -6.150   0.079  0.00  0.00    +0.040 A 
ATOM      9  C   UNL     1      -1.381  -4.765   0.056  0.00  0.00    +0.067 A 
ATOM     10  N   UNL     1      -1.381  -4.030   1.241  0.00  0.00    -0.229 N 
ATOM     11  C   UNL     1      -1.385  -2.653   1.211  0.00  0.00    +0.240 A 
ATOM     12  N   UNL     1      -1.377  -2.214   2.440  0.00  0.00    -0.129 NA
ATOM     13  N   UNL     1      -1.362  -3.320   3.299  0.00  0.00    -0.202 N 
ATOM     14  C   UNL     1      -1.373  -4.428   2.531  0.00  0.00    +0.353 A 
ATOM     15  O   UNL     1      -1.365  -5.579   2.929  0.00  0.00    -0.244 OA
ENDROOT
BRANCH   7  16
ATOM     16  C   UNL     1      -1.361  -8.341  -1.099  0.00  0.00    +0.244 C 
ATOM     17  O   UNL     1      -1.353  -8.934  -0.038  0.00  0.00    -0.270 OA
ATOM     18  N   UNL     1      -1.361  -9.032  -2.256  0.00  0.00    -0.309 N 
ATOM     19  H   UNL     1      -1.367  -8.559  -3.103  0.00  0.00    +0.149 HD
BRANCH  18  20
ATOM     20  C   UNL     1      -1.351 -10.496  -2.236  0.00  0.00    +0.070 C 
ATOM     21  C   UNL     1      -2.784 -11.014  -2.098  0.00  0.00    +0.028 C 
BRANCH  20  22
ATOM     22  C   UNL     1      -0.743 -11.021  -3.538  0.00  0.00    +0.018 C 
ATOM     23  C   UNL     1       0.728 -10.607  -3.617  0.00  0.00    +0.005 C 
ENDBRANCH  20  22
ENDBRANCH  18  20
ENDBRANCH   7  16
BRANCH   1  24
ATOM     24  C   UNL     1      -1.410  -0.494   0.023  0.00  0.00    +0.128 C 
BRANCH  24  26
ATOM     25  C   UNL     1       0.020   1.555   0.029  0.00  0.00    +0.005 C 
ATOM     26  C   UNL     1       0.030   0.025   0.015  0.00  0.00    +0.018 C 
ENDBRANCH  24  26
ENDBRANCH   1  24
BRANCH  13  27
ATOM     27  C   UNL     1      -1.349  -3.280   4.764  0.00  0.00    +0.245 C 
BRANCH  27  28
ATOM     28  C   UNL     1       0.076  -3.256   5.253  0.00  0.00    +0.239 C 
ATOM     29  O   UNL     1       0.991  -3.271   4.457  0.00  0.00    -0.273 OA
ATOM     30  N   UNL     1       0.334  -3.219   6.575  0.00  0.00    -0.282 N 
ATOM     31  H   UNL     1      -0.396  -3.142   7.210  0.00  0.00    +0.155 HD
BRANCH  30  32
ATOM     32  C   UNL     1       1.655  -3.291   7.033  0.00  0.00    +0.072 A 
ATOM     33  C   UNL     1       2.679  -2.708   6.299  0.00  0.00    +0.064 A 
ATOM     34  C   UNL     1       3.983  -2.780   6.754  0.00  0.00    +0.125 A 
ATOM     35  C   UNL     1       4.268  -3.434   7.941  0.00  0.00    +0.041 A 
ATOM     36  C   UNL     1       3.251  -4.017   8.674  0.00  0.00    +0.043 A 
ATOM     37  C   UNL     1       1.944  -3.942   8.227  0.00  0.00    +0.145 A 
ATOM     38  F   UNL     1       0.950  -4.507   8.947  0.00  0.00    -0.204 F 
ATOM     39  F   UNL     1       4.979  -2.213   6.040  0.00  0.00    -0.205 F 
ENDBRANCH  30  32
ENDBRANCH  27  28
ENDBRANCH  13  27
TORSDOF 8
