REMARK  Name = ZINC26338182
REMARK  6 active torsions:
REMARK  status: ('A' for Active; 'I' for Inactive)
REMARK    1  A    between atoms: C_1  and  C_2
REMARK    2  A    between atoms: C_5  and  N_9
REMARK    3  A    between atoms: C_11  and  C_16
REMARK    4  A    between atoms: N_18  and  C_19
REMARK    5  A    between atoms: C_21  and  C_30
REMARK    6  A    between atoms: C_24  and  N_25
REMARK                            x       y       z     vdW  Elec       q    Type
REMARK                         _______ _______ _______ _____ _____    ______ ____
ROOT
ATOM      1  C   UNL     1       5.407   1.344   3.309  0.00  0.00    +0.222 C 
ATOM      2  O   UNL     1       6.514   1.048   2.911  0.00  0.00    -0.275 OA
ATOM      3  N   UNL     1       4.345   1.244   2.485  0.00  0.00    -0.284 N 
ATOM      4  H   UNL     1       3.354   1.580   2.822  0.00  0.00    +0.155 HD
ENDROOT
BRANCH   1   7
ATOM      5  N   UNL     1       6.136   1.322   6.884  0.00  0.00    -0.271 N 
ATOM      6  C   UNL     1       6.535   1.711   5.526  0.00  0.00    +0.127 C 
ATOM      7  C   UNL     1       5.219   1.823   4.726  0.00  0.00    +0.102 C 
ATOM      8  C   UNL     1       4.290   0.870   5.513  0.00  0.00    +0.110 C 
ATOM      9  C   UNL     1       4.881   0.841   6.905  0.00  0.00    +0.221 C 
ATOM     10  O   UNL     1       4.307   0.441   7.896  0.00  0.00    -0.275 OA
BRANCH   5  15
ATOM     11  C   UNL     1       9.465   1.796  11.455  0.00  0.00    +0.047 C 
ATOM     12  C   UNL     1       8.581   1.669  10.241  0.00  0.00    -0.015 A 
ATOM     13  C   UNL     1       9.005   2.167   9.023  0.00  0.00    +0.008 A 
ATOM     14  C   UNL     1       8.197   2.053   7.909  0.00  0.00    +0.024 A 
ATOM     15  C   UNL     1       6.956   1.438   8.011  0.00  0.00    +0.039 A 
ATOM     16  C   UNL     1       6.529   0.943   9.236  0.00  0.00    +0.062 A 
ATOM     17  C   UNL     1       7.344   1.055  10.348  0.00  0.00    +0.128 A 
ATOM     18  F   UNL     1       6.931   0.571  11.540  0.00  0.00    -0.205 F 
ENDBRANCH   5  15
ENDBRANCH   1   7
BRANCH   3  19
ATOM     19  C   UNL     1       4.505   0.713   1.197  0.00  0.00    +0.055 A 
ATOM     20  C   UNL     1       5.673   0.941   0.495  0.00  0.00    +0.038 A 
ATOM     21  C   UNL     1       5.826   0.414  -0.791  0.00  0.00    +0.038 A 
ATOM     22  C   UNL     1       4.800  -0.346  -1.359  0.00  0.00    +0.015 A 
ATOM     23  C   UNL     1       3.640  -0.576  -0.654  0.00  0.00    +0.026 A 
ATOM     24  C   UNL     1       3.485  -0.053   0.625  0.00  0.00    +0.051 A 
BRANCH  24  25
ATOM     25  N   UNL     1       2.311  -0.287   1.335  0.00  0.00    -0.328 N 
ATOM     26  C   UNL     1       1.141   0.267   0.621  0.00  0.00    +0.105 C 
ATOM     27  C   UNL     1      -0.018  -0.709   0.942  0.00  0.00    +0.020 C 
ATOM     28  C   UNL     1       0.715  -2.077   0.941  0.00  0.00    +0.020 C 
ATOM     29  C   UNL     1       2.095  -1.732   1.538  0.00  0.00    +0.105 C 
ENDBRANCH  24  25
BRANCH  21  30
ATOM     30  C   UNL     1       7.069   0.661  -1.547  0.00  0.00    +0.242 C 
ATOM     31  O   UNL     1       7.961   1.322  -1.051  0.00  0.00    -0.270 OA
ATOM     32  N   UNL     1       7.215   0.152  -2.786  0.00  0.00    -0.325 N 
ATOM     33  H   UNL     1       8.142   0.336  -3.350  0.00  0.00    +0.145 HD
ATOM     34  H   UNL     1       6.408  -0.446  -3.234  0.00  0.00    +0.145 HD
ENDBRANCH  21  30
ENDBRANCH   3  19
TORSDOF 5
