REMARK  Name = ZINC50650024
REMARK  5 active torsions:
REMARK  status: ('A' for Active; 'I' for Inactive)
REMARK    1  A    between atoms: C_1  and  C_2
REMARK    2  A    between atoms: N_8  and  S_9
REMARK    3  A    between atoms: S_9  and  C_12
REMARK    4  A    between atoms: C_14  and  N_19
REMARK    5  A    between atoms: C_17  and  N_18
REMARK                            x       y       z     vdW  Elec       q    Type
REMARK                         _______ _______ _______ _____ _____    ______ ____
ROOT
ATOM      1  S   UNL     1       0.072  -4.449   2.227  0.00  0.00    +0.102 S 
ATOM      2  O   UNL     1      -1.171  -4.858   1.672  0.00  0.00    -0.146 OA
ATOM      3  O   UNL     1       1.319  -4.825   1.660  0.00  0.00    -0.146 OA
ENDROOT
BRANCH   1  11
ATOM      4  C   UNL     1      -0.018   1.503   0.010  0.00  0.00    +0.044 C 
ATOM      5  C   UNL     1       0.002  -0.004   0.002  0.00  0.00    -0.046 A 
ATOM      6  C   UNL     1       0.006  -0.704  -1.217  0.00  0.00    +0.021 A 
ATOM      7  C   UNL     1       0.024  -2.053  -1.230  0.00  0.00    +0.084 A 
ATOM      8  N   UNL     1       0.039  -2.761  -0.066  0.00  0.00    -0.345 N 
ATOM      9  C   UNL     1       0.036  -2.108   1.143  0.00  0.00    +0.153 A 
ATOM     10  C   UNL     1       0.022  -0.693   1.173  0.00  0.00    +0.051 A 
ATOM     11  N   UNL     1       0.051  -2.794   2.267  0.00  0.00    -0.111 NA
ATOM     12  H   UNL     1       0.052  -3.731  -0.090  0.00  0.00    +0.167 HD
ENDBRANCH   1  11
BRANCH   1  13
ATOM     13  C   UNL     1       0.087  -5.011   3.896  0.00  0.00    +0.135 A 
ATOM     14  C   UNL     1      -0.983  -5.729   4.394  0.00  0.00    +0.063 A 
ATOM     15  C   UNL     1      -0.972  -6.171   5.704  0.00  0.00    +0.128 A 
ATOM     16  C   UNL     1       0.110  -5.895   6.521  0.00  0.00    +0.034 A 
ATOM     17  C   UNL     1       1.182  -5.177   6.030  0.00  0.00    +0.027 A 
ATOM     18  C   UNL     1       1.177  -4.737   4.712  0.00  0.00    +0.052 A 
BRANCH  18  19
ATOM     19  N   UNL     1       2.263  -4.016   4.211  0.00  0.00    -0.356 N 
ATOM     20  H   UNL     1       2.256  -3.706   3.292  0.00  0.00    +0.142 HD
ATOM     21  H   UNL     1       3.024  -3.825   4.782  0.00  0.00    +0.142 HD
ENDBRANCH  18  19
BRANCH  15  22
ATOM     22  N   UNL     1      -2.120  -6.940   6.234  0.00  0.00    +0.056 N 
ATOM     23  O   UNL     1      -3.066  -7.182   5.521  0.00  0.00    -0.126 OA
ATOM     24  O   UNL     1      -2.112  -7.327   7.379  0.00  0.00    -0.126 OA
ENDBRANCH  15  22
ENDBRANCH   1  13
TORSDOF 4
