REMARK  Name = ZINC33904194
REMARK  8 active torsions:
REMARK  status: ('A' for Active; 'I' for Inactive)
REMARK    1  A    between atoms: C_1  and  C_2
REMARK    2  A    between atoms: C_5  and  N_9
REMARK    3  A    between atoms: C_14  and  C_32
REMARK    4  A    between atoms: C_17  and  C_22
REMARK    5  A    between atoms: C_17  and  C_29
REMARK    6  A    between atoms: C_22  and  C_23
REMARK    7  A    between atoms: C_23  and  C_24
REMARK    8  A    between atoms: C_24  and  N_25
REMARK                            x       y       z     vdW  Elec       q    Type
REMARK                         _______ _______ _______ _____ _____    ______ ____
ROOT
ATOM      1  N   UNL     1       0.059  -4.173  -0.022  0.00  0.00    -0.210 N 
ATOM      2  C   UNL     1       0.069  -4.926  -1.170  0.00  0.00    +0.229 C 
ATOM      3  O   UNL     1       0.282  -4.548  -2.301  0.00  0.00    -0.275 OA
ATOM      4  C   UNL     1      -0.231  -6.267  -0.733  0.00  0.00    +0.079 C 
ATOM      5  C   UNL     1      -0.090  -7.666  -1.174  0.00  0.00    -0.008 C 
ATOM      6  N   UNL     1      -0.471  -8.427   0.066  0.00  0.00    +0.396 N 
ATOM      7  C   UNL     1      -0.255  -7.529   1.239  0.00  0.00    +0.048 C 
ATOM      8  C   UNL     1       0.493  -6.312   0.671  0.00  0.00    +0.086 C 
ATOM      9  C   UNL     1       0.075  -4.937   1.111  0.00  0.00    +0.229 C 
ATOM     10  O   UNL     1      -0.195  -4.580   2.237  0.00  0.00    -0.275 OA
ATOM     11  H   UNL     1      -1.443  -8.696   0.016  0.00  0.00    -0.083 HD
ATOM     12  H   UNL     1       0.107  -9.249   0.153  0.00  0.00    -0.083 HD
ENDROOT
BRANCH   1  17
ATOM     13  C   UNL     1      -0.018   1.503   0.010  0.00  0.00    +0.045 C 
ATOM     14  C   UNL     1       0.002  -0.004   0.002  0.00  0.00    -0.032 A 
ATOM     15  C   UNL     1       0.006  -0.688  -1.200  0.00  0.00    +0.006 A 
ATOM     16  C   UNL     1       0.025  -2.068  -1.211  0.00  0.00    +0.024 A 
ATOM     17  C   UNL     1       0.040  -2.771  -0.013  0.00  0.00    +0.045 A 
ATOM     18  C   UNL     1       0.037  -2.084   1.192  0.00  0.00    +0.044 A 
ATOM     19  C   UNL     1       0.023  -0.701   1.197  0.00  0.00    +0.046 A 
ATOM     20 CL   UNL     1       0.025   0.161   2.704  0.00  0.00    -0.083 Cl
ENDBRANCH   1  17
BRANCH   5  21
ATOM     21  C   UNL     1      -1.036  -7.971  -2.306  0.00  0.00    +0.028 A 
ATOM     22  C   UNL     1      -0.542  -8.487  -3.489  0.00  0.00    +0.021 A 
ATOM     23  C   UNL     1      -1.421  -8.764  -4.524  0.00  0.00    +0.003 A 
ATOM     24  C   UNL     1      -2.771  -8.511  -4.330  0.00  0.00    +0.020 A 
ATOM     25  C   UNL     1      -3.191  -7.994  -3.120  0.00  0.00    +0.111 A 
ATOM     26  N   UNL     1      -2.327  -7.747  -2.155  0.00  0.00    -0.262 NA
ENDBRANCH   5  21
BRANCH   7  27
ATOM     27  C   UNL     1       0.600  -8.216   2.272  0.00  0.00    +0.346 C 
ATOM     28  O   UNL     1       0.981  -9.359   2.085  0.00  0.00    -0.248 OA
ATOM     29  O   UNL     1       0.910  -7.630   3.295  0.00  0.00    -0.248 OA
ENDBRANCH   7  27
BRANCH   7  30
ATOM     30  C   UNL     1      -1.597  -7.119   1.848  0.00  0.00    +0.001 C 
BRANCH  30  31
ATOM     31  C   UNL     1      -2.335  -8.366   2.340  0.00  0.00    +0.018 C 
BRANCH  31  32
ATOM     32  C   UNL     1      -3.678  -7.956   2.949  0.00  0.00    +0.105 C 
BRANCH  32  33
ATOM     33  N   UNL     1      -4.384  -9.150   3.421  0.00  0.00    -0.300 N 
ATOM     34  C   UNL     1      -5.596  -9.031   3.998  0.00  0.00    +0.297 C 
ATOM     35  O   UNL     1      -6.104  -7.934   4.127  0.00  0.00    -0.253 OA
ATOM     36  N   UNL     1      -6.246 -10.130   4.432  0.00  0.00    -0.313 N 
ATOM     37  H   UNL     1      -3.979 -10.025   3.318  0.00  0.00    +0.150 HD
ATOM     38  H   UNL     1      -5.841 -11.005   4.329  0.00  0.00    +0.146 HD
ATOM     39  H   UNL     1      -7.119 -10.044   4.847  0.00  0.00    +0.146 HD
ENDBRANCH  32  33
ENDBRANCH  31  32
ENDBRANCH  30  31
ENDBRANCH   7  30
TORSDOF 7
