REMARK  Name = ZINC14624293
REMARK  12 active torsions:
REMARK  status: ('A' for Active; 'I' for Inactive)
REMARK    1  A    between atoms: C_1  and  C_2
REMARK    2  A    between atoms: C_2  and  C_3
REMARK    3  A    between atoms: C_3  and  C_4
REMARK    4  A    between atoms: C_4  and  N_5
REMARK    5  A    between atoms: C_6  and  N_32
REMARK    6  A    between atoms: C_7  and  N_14
REMARK    7  A    between atoms: N_14  and  C_15
REMARK    8  A    between atoms: C_15  and  C_16
REMARK    9  A    between atoms: C_16  and  O_17
REMARK   10  A    between atoms: O_17  and  C_18
REMARK   11  A    between atoms: C_19  and  C_21
REMARK   12  A    between atoms: C_22  and  C_31
REMARK                            x       y       z     vdW  Elec       q    Type
REMARK                         _______ _______ _______ _____ _____    ______ ____
ROOT
ATOM      1  N   UNL     1       2.255   3.547   0.074  0.00  0.00    -0.255 N 
ATOM      2  C   UNL     1       2.400   4.882  -0.035  0.00  0.00    +0.287 C 
ATOM      3  O   UNL     1       1.417   5.598  -0.095  0.00  0.00    -0.266 OA
ENDROOT
BRANCH   2   4
ATOM      4  C   UNL     1       3.744   5.474  -0.080  0.00  0.00    +0.194 A 
ATOM      5  C   UNL     1       4.013   6.806  -0.069  0.00  0.00    +0.008 A 
ATOM      6  C   UNL     1       5.469   6.926  -0.124  0.00  0.00    +0.025 A 
ATOM      7  C   UNL     1       6.357   8.004  -0.140  0.00  0.00    +0.012 A 
ATOM      8  C   UNL     1       7.702   7.773  -0.203  0.00  0.00    +0.002 A 
ATOM      9  C   UNL     1       8.192   6.475  -0.251  0.00  0.00    +0.024 A 
ATOM     10  C   UNL     1       7.332   5.397  -0.237  0.00  0.00    +0.084 A 
ATOM     11  C   UNL     1       5.959   5.608  -0.173  0.00  0.00    +0.154 A 
ATOM     12  O   UNL     1       4.898   4.778  -0.144  0.00  0.00    -0.448 OA
ATOM     13 CL   UNL     1       7.963   3.781  -0.298  0.00  0.00    -0.080 Cl
ATOM     14  C   UNL     1       3.012   7.931  -0.010  0.00  0.00    +0.048 C 
ENDBRANCH   2   4
BRANCH   1  17
ATOM     15  N   UNL     1      -0.816   1.762   1.012  0.00  0.00    -0.280 N 
ATOM     16  C   UNL     1       0.440   2.316   1.105  0.00  0.00    +0.127 A 
ATOM     17  C   UNL     1       0.970   2.970   0.011  0.00  0.00    +0.140 A 
ATOM     18  C   UNL     1       0.206   3.050  -1.169  0.00  0.00    +0.277 A 
ATOM     19  O   UNL     1       0.651   3.621  -2.150  0.00  0.00    -0.266 OA
ATOM     20  N   UNL     1      -1.019   2.490  -1.207  0.00  0.00    -0.273 N 
ATOM     21  H   UNL     1      -1.561   2.543  -2.046  0.00  0.00    +0.173 HD
ATOM     22  C   UNL     1      -1.522   1.862  -0.129  0.00  0.00    +0.331 A 
ATOM     23  O   UNL     1      -2.632   1.370  -0.189  0.00  0.00    -0.246 OA
BRANCH  16  24
ATOM     24  N   UNL     1       1.158   2.219   2.272  0.00  0.00    -0.343 N 
ATOM     25  H   UNL     1       2.000   2.691   2.364  0.00  0.00    +0.144 HD
ATOM     26  H   UNL     1       0.823   1.678   3.004  0.00  0.00    +0.144 HD
ENDBRANCH  16  24
BRANCH  15  27
ATOM     27  C   UNL     1      -1.392   1.066   2.165  0.00  0.00    +0.128 C 
BRANCH  27  28
ATOM     28  C   UNL     1      -2.172   2.063   3.026  0.00  0.00    +0.021 C 
BRANCH  28  30
ATOM     29  C   UNL     1      -3.553   2.332   5.090  0.00  0.00    +0.004 C 
ATOM     30  C   UNL     1      -2.773   1.335   4.230  0.00  0.00    -0.002 C 
ENDBRANCH  28  30
ENDBRANCH  27  28
ENDBRANCH  15  27
ENDBRANCH   1  17
BRANCH   1  31
ATOM     31  C   UNL     1       3.433   2.695   0.257  0.00  0.00    +0.142 C 
BRANCH  31  32
ATOM     32  C   UNL     1       3.886   2.152  -1.099  0.00  0.00    +0.179 C 
BRANCH  32  33
ATOM     33  O   UNL     1       4.327   3.234  -1.922  0.00  0.00    -0.381 OA
ATOM     34  C   UNL     1       4.774   2.834  -3.219  0.00  0.00    +0.194 C 
ENDBRANCH  32  33
ENDBRANCH  31  32
ENDBRANCH   1  31
TORSDOF 9
