REMARK  Name = ZINC67164850
REMARK  12 active torsions:
REMARK  status: ('A' for Active; 'I' for Inactive)
REMARK    1  A    between atoms: C_1  and  C_2
REMARK    2  A    between atoms: C_2  and  C_3
REMARK    3  A    between atoms: N_5  and  C_6
REMARK    4  A    between atoms: C_9  and  C_24
REMARK    5  A    between atoms: C_10  and  N_12
REMARK    6  A    between atoms: C_13  and  C_15
REMARK    7  A    between atoms: C_15  and  N_16
REMARK    8  A    between atoms: C_17  and  O_19
REMARK    9  A    between atoms: O_19  and  C_20
REMARK   10  A    between atoms: C_20  and  C_21
REMARK   11  A    between atoms: C_20  and  C_22
REMARK   12  A    between atoms: C_20  and  C_23
REMARK                            x       y       z     vdW  Elec       q    Type
REMARK                         _______ _______ _______ _____ _____    ______ ____
ROOT
ATOM      1  N   UNL     1       2.573  -5.624   3.716  0.00  0.00    -0.284 N 
ATOM      2  C   UNL     1       2.116  -6.426   2.735  0.00  0.00    +0.234 C 
ATOM      3  O   UNL     1       1.492  -5.955   1.808  0.00  0.00    -0.274 OA
ATOM      4  H   UNL     1       3.014  -6.007   4.490  0.00  0.00    +0.155 HD
ENDROOT
BRANCH   1   9
ATOM      5  C   UNL     1       1.121  -2.336   2.921  0.00  0.00    +0.035 A 
ATOM      6  C   UNL     1       2.099  -1.490   3.429  0.00  0.00    +0.024 A 
ATOM      7  C   UNL     1       3.227  -2.017   4.029  0.00  0.00    +0.007 A 
ATOM      8  C   UNL     1       3.386  -3.386   4.125  0.00  0.00    -0.029 A 
ATOM      9  C   UNL     1       2.411  -4.237   3.618  0.00  0.00    +0.038 A 
ATOM     10  C   UNL     1       1.275  -3.711   3.021  0.00  0.00    +0.047 A 
ATOM     11  C   UNL     1       4.618  -3.957   4.778  0.00  0.00    +0.045 C 
BRANCH   5  14
ATOM     12  C   UNL     1       0.069  -0.670   1.588  0.00  0.00    +0.217 C 
ATOM     13  O   UNL     1       1.121  -0.069   1.528  0.00  0.00    -0.275 OA
ATOM     14  N   UNL     1      -0.021  -1.801   2.314  0.00  0.00    -0.285 N 
ATOM     15  H   UNL     1      -0.877  -2.245   2.416  0.00  0.00    +0.155 HD
BRANCH  12  17
ATOM     16  C   UNL     1      -0.768   1.138   0.111  0.00  0.00    +0.013 C 
ATOM     17  C   UNL     1      -1.138  -0.150   0.850  0.00  0.00    +0.093 C 
ENDBRANCH  12  17
ENDBRANCH   5  14
ENDBRANCH   1   9
BRANCH   2  18
ATOM     18  C   UNL     1       2.380  -7.909   2.789  0.00  0.00    +0.203 C 
BRANCH  18  19
ATOM     19  N   UNL     1       1.785  -8.555   1.616  0.00  0.00    -0.273 N 
ATOM     20  C   UNL     1       1.896  -9.888   1.452  0.00  0.00    +0.401 C 
ATOM     21  O   UNL     1       2.490 -10.554   2.276  0.00  0.00    -0.226 OA
ATOM     22  H   UNL     1       1.311  -8.023   0.958  0.00  0.00    +0.153 HD
BRANCH  20  23
ATOM     23  O   UNL     1       1.349 -10.481   0.374  0.00  0.00    -0.445 OA
BRANCH  23  24
ATOM     24  C   UNL     1       1.505 -11.897   0.264  0.00  0.00    +0.107 C 
ATOM     25  C   UNL     1       0.866 -12.577   1.477  0.00  0.00    +0.055 C 
ATOM     26  C   UNL     1       0.822 -12.388  -1.014  0.00  0.00    +0.055 C 
ATOM     27  C   UNL     1       2.994 -12.243   0.212  0.00  0.00    +0.055 C 
ENDBRANCH  23  24
ENDBRANCH  20  23
ENDBRANCH  18  19
ENDBRANCH   2  18
TORSDOF 7
