REMARK  Name = ZINC63162308
REMARK  4 active torsions:
REMARK  status: ('A' for Active; 'I' for Inactive)
REMARK    1  A    between atoms: C_8  and  C_11
REMARK    2  A    between atoms: C_11  and  N_12
REMARK    3  A    between atoms: N_15  and  C_16
REMARK    4  A    between atoms: C_18  and  C_24
REMARK                            x       y       z     vdW  Elec       q    Type
REMARK                         _______ _______ _______ _____ _____    ______ ____
ROOT
ATOM      1  N   UNL     1       3.968  -4.747   0.443  0.00  0.00    -0.299 N 
ATOM      2  C   UNL     1       4.272  -6.051   0.295  0.00  0.00    +0.304 C 
ATOM      3  O   UNL     1       3.571  -6.764  -0.398  0.00  0.00    -0.253 OA
ATOM      4  N   UNL     1       5.352  -6.566   0.914  0.00  0.00    -0.265 N 
ATOM      5  H   UNL     1       4.527  -4.178   0.996  0.00  0.00    +0.150 HD
ATOM      6  H   UNL     1       5.952  -5.985   1.406  0.00  0.00    +0.157 HD
ENDROOT
BRANCH   4   7
ATOM      7  C   UNL     1       5.608  -7.943   0.848  0.00  0.00    +0.100 A 
ATOM      8  C   UNL     1       6.787  -8.404   0.328  0.00  0.00    +0.042 A 
ATOM      9  C   UNL     1       7.018  -9.786   0.273  0.00  0.00    +0.073 A 
ATOM     10  C   UNL     1       6.081 -10.647   0.732  0.00  0.00    +0.098 A 
ATOM     11  N   UNL     1       4.909 -10.192   1.248  0.00  0.00    -0.327 N 
ATOM     12  H   UNL     1       4.250 -10.825   1.572  0.00  0.00    +0.168 HD
ATOM     13  C   UNL     1       4.655  -8.871   1.322  0.00  0.00    +0.270 A 
ATOM     14  O   UNL     1       3.601  -8.477   1.793  0.00  0.00    -0.266 OA
BRANCH   9  15
ATOM     15  C   UNL     1       8.310 -10.311  -0.297  0.00  0.00    +0.419 C 
ATOM     16  F   UNL     1       8.308 -11.709  -0.244  0.00  0.00    -0.166 F 
ATOM     17  F   UNL     1       8.437  -9.894  -1.626  0.00  0.00    -0.166 F 
ATOM     18  F   UNL     1       9.384  -9.818   0.451  0.00  0.00    -0.166 F 
ENDBRANCH   9  15
ENDBRANCH   4   7
BRANCH   1  19
ATOM     19  C   UNL     1       2.794  -4.187  -0.231  0.00  0.00    +0.113 C 
BRANCH  19  27
ATOM     20  C   UNL     1       0.204   1.443  -0.527  0.00  0.00    +0.000 A 
ATOM     21  C   UNL     1       1.384   2.141  -0.343  0.00  0.00    +0.004 A 
ATOM     22  C   UNL     1       2.573   1.456  -0.202  0.00  0.00    +0.046 A 
ATOM     23  C   UNL     1       2.591   0.066  -0.245  0.00  0.00    +0.124 A 
ATOM     24  C   UNL     1       1.409  -0.629  -0.433  0.00  0.00    -0.005 A 
ATOM     25  C   UNL     1       0.217   0.063  -0.571  0.00  0.00    +0.007 A 
ATOM     26  C   UNL     1       1.385  -2.135  -0.497  0.00  0.00    +0.047 C 
ATOM     27  C   UNL     1       2.677  -2.698   0.101  0.00  0.00    +0.048 C 
ATOM     28  C   UNL     1       3.862  -1.938  -0.509  0.00  0.00    +0.234 C 
ATOM     29  O   UNL     1       3.781  -0.572  -0.098  0.00  0.00    -0.491 OA
ENDBRANCH  19  27
ENDBRANCH   1  19
TORSDOF 4
