REMARK  Name = ZINC33024206
REMARK  7 active torsions:
REMARK  status: ('A' for Active; 'I' for Inactive)
REMARK    1  A    between atoms: C_3  and  C_6
REMARK    2  A    between atoms: C_6  and  C_8
REMARK    3  A    between atoms: C_6  and  N_21
REMARK    4  A    between atoms: C_8  and  N_9
REMARK    5  A    between atoms: C_10  and  C_12
REMARK    6  A    between atoms: C_12  and  N_13
REMARK    7  A    between atoms: C_14  and  C_16
REMARK                            x       y       z     vdW  Elec       q    Type
REMARK                         _______ _______ _______ _____ _____    ______ ____
ROOT
ATOM      1  C   UNL     1       3.984   0.324   1.446  0.00  0.00    +0.096 C 
ENDROOT
BRANCH   1   2
ATOM      2  N   UNL     1       3.349  -0.922   1.882  0.00  0.00    -0.315 N 
ATOM      3  C   UNL     1       3.462  -1.324   3.164  0.00  0.00    +0.230 C 
ATOM      4  O   UNL     1       4.089  -0.654   3.956  0.00  0.00    -0.274 OA
ATOM      5  H   UNL     1       2.847  -1.458   1.248  0.00  0.00    +0.149 HD
BRANCH   3   6
ATOM      6  C   UNL     1       2.808  -2.606   3.612  0.00  0.00    +0.200 C 
BRANCH   6   7
ATOM      7  N   UNL     1       3.076  -2.818   5.037  0.00  0.00    -0.300 N 
ATOM      8  C   UNL     1       2.587  -3.909   5.659  0.00  0.00    +0.280 C 
ATOM      9  O   UNL     1       1.923  -4.717   5.038  0.00  0.00    -0.267 OA
ATOM     10  H   UNL     1       3.605  -2.173   5.532  0.00  0.00    +0.150 HD
BRANCH   8  11
ATOM     11  C   UNL     1       2.855  -4.121   7.085  0.00  0.00    +0.189 A 
ATOM     12  C   UNL     1       2.427  -5.180   7.833  0.00  0.00    +0.054 A 
ATOM     13  C   UNL     1       2.911  -4.977   9.135  0.00  0.00    +0.042 A 
ATOM     14  C   UNL     1       3.605  -3.817   9.125  0.00  0.00    +0.196 A 
ATOM     15  O   UNL     1       3.573  -3.307   7.887  0.00  0.00    -0.458 OA
ENDBRANCH   8  11
ENDBRANCH   6   7
ENDBRANCH   3   6
ENDBRANCH   1   2
BRANCH   1  16
ATOM     16  C   UNL     1       3.617   0.600  -0.013  0.00  0.00    +0.016 C 
BRANCH  16  17
ATOM     17  N   UNL     1       3.970  -0.565  -0.836  0.00  0.00    +0.387 N 
ATOM     18  C   UNL     1       5.413  -0.814  -0.735  0.00  0.00    -0.078 C 
ATOM     19  C   UNL     1       5.773  -2.075  -1.525  0.00  0.00    -0.019 C 
ATOM     20  C   UNL     1       5.389  -1.877  -2.994  0.00  0.00    -0.004 C 
ATOM     21  C   UNL     1       3.896  -1.545  -3.080  0.00  0.00    -0.019 C 
ATOM     22  C   UNL     1       3.606  -0.304  -2.233  0.00  0.00    -0.078 C 
ATOM     23  H   UNL     1       3.467  -1.375  -0.504  0.00  0.00    -0.081 HD
ENDBRANCH  16  17
BRANCH  16  26
ATOM     24  C   UNL     1       0.160   1.847  -0.287  0.00  0.00    +0.041 A 
ATOM     25  C   UNL     1       1.554   2.068  -0.206  0.00  0.00    +0.043 A 
ATOM     26  C   UNL     1       2.136   0.859  -0.119  0.00  0.00    +0.093 A 
ATOM     27  O   UNL     1       1.175  -0.078  -0.142  0.00  0.00    -0.469 OA
ATOM     28  C   UNL     1      -0.026   0.515  -0.244  0.00  0.00    +0.195 A 
ENDBRANCH  16  26
ENDBRANCH   1  16
TORSDOF 7
