REMARK  Name = ZINC45482826
REMARK  8 active torsions:
REMARK  status: ('A' for Active; 'I' for Inactive)
REMARK    1  A    between atoms: C_1  and  C_2
REMARK    2  A    between atoms: C_2  and  C_3
REMARK    3  A    between atoms: C_2  and  C_4
REMARK    4  A    between atoms: C_4  and  C_6
REMARK    5  A    between atoms: C_4  and  N_23
REMARK    6  A    between atoms: C_6  and  N_7
REMARK    7  A    between atoms: N_10  and  N_11
REMARK    8  A    between atoms: N_23  and  C_24
REMARK                            x       y       z     vdW  Elec       q    Type
REMARK                         _______ _______ _______ _____ _____    ______ ____
ROOT
ATOM      1  N   UNL     1      -3.300   0.056  -1.466  0.00  0.00    -0.296 N 
ATOM      2  C   UNL     1      -3.877   0.530  -2.587  0.00  0.00    +0.316 C 
ATOM      3  O   UNL     1      -3.190   1.004  -3.471  0.00  0.00    -0.251 OA
ATOM      4  N   UNL     1      -5.216   0.478  -2.729  0.00  0.00    -0.219 N 
ATOM      5  H   UNL     1      -3.848  -0.323  -0.761  0.00  0.00    +0.150 HD
ATOM      6  H   UNL     1      -5.632   0.819  -3.537  0.00  0.00    +0.174 HD
ENDROOT
BRANCH   4   7
ATOM      7  N   UNL     1      -6.008  -0.069  -1.711  0.00  0.00    -0.246 N 
ATOM      8  C   UNL     1      -7.391  -0.122  -1.858  0.00  0.00    +0.158 A 
ATOM      9  C   UNL     1      -8.182  -0.661  -0.842  0.00  0.00    +0.050 A 
ATOM     10  C   UNL     1      -9.553  -0.691  -1.034  0.00  0.00    +0.053 A 
ATOM     11  C   UNL     1     -10.057  -0.182  -2.230  0.00  0.00    +0.176 A 
ATOM     12  N   UNL     1      -9.231   0.309  -3.138  0.00  0.00    -0.128 NA
ATOM     13  N   UNL     1      -7.961   0.343  -2.959  0.00  0.00    -0.131 NA
ATOM     14  N   UNL     1     -11.437  -0.192  -2.470  0.00  0.00    -0.220 N 
ATOM     15  C   UNL     1     -12.058   0.265  -3.588  0.00  0.00    +0.116 A 
ATOM     16  C   UNL     1     -13.387   0.075  -3.424  0.00  0.00    +0.041 A 
ATOM     17  C   UNL     1     -13.588  -0.515  -2.171  0.00  0.00    +0.135 A 
ATOM     18  N   UNL     1     -12.422  -0.681  -1.602  0.00  0.00    -0.173 NA
ATOM     19  H   UNL     1      -5.593  -0.410  -0.904  0.00  0.00    +0.172 HD
ENDBRANCH   4   7
BRANCH   1  20
ATOM     20  C   UNL     1      -1.844   0.112  -1.311  0.00  0.00    +0.128 C 
BRANCH  20  21
ATOM     21  C   UNL     1      -1.451  -0.487   0.041  0.00  0.00    +0.090 C 
BRANCH  21  23
ATOM     22  C   UNL     1       0.386   1.173   0.373  0.00  0.00    +0.009 C 
ATOM     23  C   UNL     1       0.054  -0.315   0.256  0.00  0.00    +0.005 C 
ATOM     24  C   UNL     1       0.470  -1.033   1.542  0.00  0.00    +0.009 C 
ENDBRANCH  21  23
BRANCH  21  25
ATOM     25  N   UNL     1      -2.179   0.202   1.110  0.00  0.00    -0.339 N 
ATOM     26  H   UNL     1      -2.321   1.160   1.060  0.00  0.00    +0.146 HD
BRANCH  25  27
ATOM     27  C   UNL     1      -2.667  -0.521   2.200  0.00  0.00    +0.027 A 
ATOM     28  C   UNL     1      -2.556  -1.905   2.224  0.00  0.00    +0.023 A 
ATOM     29  C   UNL     1      -3.039  -2.617   3.304  0.00  0.00    +0.002 A 
ATOM     30  C   UNL     1      -3.635  -1.953   4.361  0.00  0.00    +0.000 A 
ATOM     31  C   UNL     1      -3.747  -0.575   4.341  0.00  0.00    +0.002 A 
ATOM     32  C   UNL     1      -3.260   0.143   3.266  0.00  0.00    +0.023 A 
ENDBRANCH  25  27
ENDBRANCH  21  25
ENDBRANCH  20  21
ENDBRANCH   1  20
TORSDOF 6
