REMARK  Name = ZINC60092713
REMARK  11 active torsions:
REMARK  status: ('A' for Active; 'I' for Inactive)
REMARK    1  A    between atoms: C_1  and  C_2
REMARK    2  A    between atoms: C_2  and  N_3
REMARK    3  A    between atoms: N_6  and  C_9
REMARK    4  A    between atoms: C_9  and  C_10
REMARK    5  A    between atoms: C_10  and  C_11
REMARK    6  A    between atoms: C_11  and  N_12
REMARK    7  A    between atoms: C_13  and  C_15
REMARK    8  A    between atoms: C_20  and  C_25
REMARK    9  A    between atoms: C_25  and  C_26
REMARK   10  A    between atoms: C_25  and  C_27
REMARK   11  A    between atoms: C_25  and  C_28
REMARK                            x       y       z     vdW  Elec       q    Type
REMARK                         _______ _______ _______ _____ _____    ______ ____
ROOT
ATOM      1  N   UNL     1      -6.169  -6.184  -1.351  0.00  0.00    -0.310 N 
ATOM      2  C   UNL     1      -7.312  -6.898  -1.399  0.00  0.00    +0.260 C 
ATOM      3  O   UNL     1      -8.386  -6.329  -1.359  0.00  0.00    -0.269 OA
ATOM      4  H   UNL     1      -5.313  -6.638  -1.383  0.00  0.00    +0.149 HD
ENDROOT
BRANCH   2   5
ATOM      5  C   UNL     1      -7.260  -8.364  -1.499  0.00  0.00    +0.103 A 
ATOM      6  C   UNL     1      -8.338  -9.188  -1.560  0.00  0.00    +0.040 A 
ATOM      7  C   UNL     1      -7.859 -10.518  -1.649  0.00  0.00    +0.000 A 
ATOM      8  C   UNL     1      -8.493 -11.765  -1.736  0.00  0.00    +0.010 A 
ATOM      9  C   UNL     1      -7.744 -12.903  -1.810  0.00  0.00    +0.005 A 
ATOM     10  C   UNL     1      -6.356 -12.838  -1.800  0.00  0.00    -0.040 A 
ATOM     11  C   UNL     1      -5.710 -11.626  -1.714  0.00  0.00    +0.030 A 
ATOM     12  C   UNL     1      -6.453 -10.450  -1.638  0.00  0.00    +0.047 A 
ATOM     13  N   UNL     1      -6.106  -9.123  -1.552  0.00  0.00    -0.351 N 
ATOM     14  H   UNL     1      -5.200  -8.776  -1.529  0.00  0.00    +0.166 HD
BRANCH  10  15
ATOM     15  C   UNL     1      -5.550 -14.109  -1.882  0.00  0.00    -0.013 C 
ATOM     16  C   UNL     1      -6.495 -15.309  -1.968  0.00  0.00    +0.015 C 
ATOM     17  C   UNL     1      -4.662 -14.069  -3.127  0.00  0.00    +0.015 C 
ATOM     18  C   UNL     1      -4.673 -14.239  -0.635  0.00  0.00    +0.015 C 
ENDBRANCH  10  15
ENDBRANCH   2   5
BRANCH   1  19
ATOM     19  C   UNL     1      -6.222  -4.724  -1.252  0.00  0.00    +0.106 C 
BRANCH  19  20
ATOM     20  C   UNL     1      -4.798  -4.164  -1.215  0.00  0.00    +0.034 C 
BRANCH  20  21
ATOM     21  C   UNL     1      -4.853  -2.639  -1.111  0.00  0.00    +0.086 C 
BRANCH  21  25
ATOM     22  N   UNL     1      -1.376  -0.512   0.012  0.00  0.00    +0.381 N 
ATOM     23  C   UNL     1      -2.050  -0.124  -1.234  0.00  0.00    -0.063 C 
ATOM     24  C   UNL     1      -3.492  -0.638  -1.215  0.00  0.00    +0.066 C 
ATOM     25  N   UNL     1      -3.486  -2.101  -1.076  0.00  0.00    -0.306 NA
ATOM     26  C   UNL     1      -2.792  -2.506   0.155  0.00  0.00    +0.066 C 
ATOM     27  C   UNL     1      -1.357  -1.977   0.125  0.00  0.00    -0.063 C 
ATOM     28  H   UNL     1      -1.873  -0.121   0.799  0.00  0.00    -0.082 HD
BRANCH  22  30
ATOM     29  C   UNL     1      -0.019   1.526   0.010  0.00  0.00    -0.017 C 
ATOM     30  C   UNL     1       0.002  -0.004   0.002  0.00  0.00    -0.082 C 
ENDBRANCH  22  30
ENDBRANCH  21  25
ENDBRANCH  20  21
ENDBRANCH  19  20
ENDBRANCH   1  19
TORSDOF 7
