REMARK  Name = ZINC15150537
REMARK  7 active torsions:
REMARK  status: ('A' for Active; 'I' for Inactive)
REMARK    1  A    between atoms: C_1  and  C_2
REMARK    2  A    between atoms: C_4  and  C_27
REMARK    3  A    between atoms: C_5  and  N_9
REMARK    4  A    between atoms: N_9  and  C_10
REMARK    5  A    between atoms: C_10  and  N_12
REMARK    6  A    between atoms: N_12  and  N_13
REMARK    7  A    between atoms: C_14  and  C_16
REMARK                            x       y       z     vdW  Elec       q    Type
REMARK                         _______ _______ _______ _____ _____    ______ ____
ROOT
ATOM      1  N   UNL     1      -1.093   5.011   0.884  0.00  0.00    -0.246 N 
ATOM      2  H   UNL     1      -1.986   5.248   1.179  0.00  0.00    +0.172 HD
ENDROOT
BRANCH   1   3
ATOM      3  N   UNL     1      -0.176   6.017   0.549  0.00  0.00    -0.232 N 
ATOM      4  C   UNL     1      -0.535   7.313   0.637  0.00  0.00    +0.273 C 
ATOM      5  O   UNL     1      -1.652   7.609   1.005  0.00  0.00    -0.270 OA
ATOM      6  H   UNL     1       0.717   5.780   0.254  0.00  0.00    +0.173 HD
BRANCH   4   7
ATOM      7  C   UNL     1       0.451   8.394   0.277  0.00  0.00    +0.297 C 
ATOM      8  C   UNL     1       0.767   8.327  -1.224  0.00  0.00    +0.283 C 
ATOM      9  O   UNL     1       1.694   9.373  -1.533  0.00  0.00    -0.484 OA
ATOM     10  C   UNL     1       1.417  10.605  -1.025  0.00  0.00    +0.162 A 
ATOM     11  C   UNL     1       2.046  11.720  -1.561  0.00  0.00    +0.049 A 
ATOM     12  C   UNL     1       1.777  12.977  -1.054  0.00  0.00    +0.004 A 
ATOM     13  C   UNL     1       0.882  13.128  -0.011  0.00  0.00    +0.004 A 
ATOM     14  C   UNL     1       0.251  12.022   0.526  0.00  0.00    +0.049 A 
ATOM     15  C   UNL     1       0.515  10.757   0.021  0.00  0.00    +0.163 A 
ATOM     16  O   UNL     1      -0.116   9.678   0.558  0.00  0.00    -0.472 OA
ENDBRANCH   4   7
ENDBRANCH   1   3
BRANCH   1  17
ATOM     17  C   UNL     1      -0.733   3.715   0.796  0.00  0.00    +0.151 C 
ATOM     18  S   UNL     1      -1.853   2.487   1.205  0.00  0.00    -0.017 S 
BRANCH  17  19
ATOM     19  N   UNL     1       0.508   3.386   0.387  0.00  0.00    -0.294 N 
ATOM     20  H   UNL     1       1.163   4.081   0.218  0.00  0.00    +0.154 HD
BRANCH  19  25
ATOM     21  C   UNL     1       1.896  -2.065  -0.354  0.00  0.00    +0.044 C 
ATOM     22  C   UNL     1       1.528  -0.617  -0.157  0.00  0.00    -0.049 A 
ATOM     23  C   UNL     1       0.726   0.023  -1.084  0.00  0.00    +0.008 A 
ATOM     24  C   UNL     1       0.387   1.350  -0.907  0.00  0.00    -0.028 A 
ATOM     25  C   UNL     1       0.851   2.042   0.204  0.00  0.00    +0.054 A 
ATOM     26  C   UNL     1       1.657   1.396   1.134  0.00  0.00    +0.063 A 
ATOM     27  C   UNL     1       1.993   0.068   0.950  0.00  0.00    +0.025 A 
ATOM     28 CL   UNL     1       2.235   2.254   2.528  0.00  0.00    -0.082 Cl
ATOM     29  C   UNL     1      -0.487   2.046  -1.918  0.00  0.00    +0.046 C 
ENDBRANCH  19  25
ENDBRANCH  17  19
ENDBRANCH   1  17
TORSDOF 5
