REMARK  Name = ZINC12477686
REMARK  14 active torsions:
REMARK  status: ('A' for Active; 'I' for Inactive)
REMARK    1  A    between atoms: C_1  and  C_2
REMARK    2  A    between atoms: C_5  and  C_7
REMARK    3  A    between atoms: N_10  and  C_12
REMARK    4  A    between atoms: C_12  and  C_13
REMARK    5  A    between atoms: N_15  and  C_16
REMARK    6  A    between atoms: N_15  and  C_23
REMARK    7  A    between atoms: C_20  and  O_22
REMARK    8  A    between atoms: C_23  and  C_25
REMARK    9  A    between atoms: C_23  and  C_32
REMARK   10  A    between atoms: C_28  and  O_31
REMARK   11  A    between atoms: N_34  and  C_35
REMARK   12  A    between atoms: C_35  and  C_36
REMARK   13  A    between atoms: C_35  and  C_37
REMARK   14  A    between atoms: C_35  and  C_38
REMARK                            x       y       z     vdW  Elec       q    Type
REMARK                         _______ _______ _______ _____ _____    ______ ____
ROOT
ATOM      1  C   UNL     1      -1.224   5.971  -0.604  0.00  0.00    +0.244 C 
ATOM      2  O   UNL     1      -1.311   7.140  -0.294  0.00  0.00    -0.273 OA
ATOM      3  N   UNL     1      -0.045   5.329  -0.486  0.00  0.00    -0.254 N 
ENDROOT
BRANCH   3   4
ATOM      4  C   UNL     1       0.083   4.012  -0.941  0.00  0.00    +0.041 A 
ATOM      5  C   UNL     1      -0.566   2.980  -0.275  0.00  0.00    +0.024 A 
ATOM      6  C   UNL     1      -0.440   1.680  -0.724  0.00  0.00    +0.005 A 
ATOM      7  C   UNL     1       0.331   1.402  -1.836  0.00  0.00    +0.045 A 
ATOM      8  C   UNL     1       0.986   2.428  -2.502  0.00  0.00    +0.119 A 
ATOM      9  C   UNL     1       0.858   3.735  -2.058  0.00  0.00    +0.069 A 
BRANCH   8  10
ATOM     10  O   UNL     1       1.749   2.152  -3.593  0.00  0.00    -0.507 OA
ATOM     11  H   UNL     1       1.265   2.183  -4.429  0.00  0.00    +0.292 HD
ENDBRANCH   8  10
ENDBRANCH   3   4
BRANCH   1  12
ATOM     12  C   UNL     1      -2.434   5.236  -1.119  0.00  0.00    +0.264 C 
BRANCH  12  16
ATOM     13  C   UNL     1      -5.333   7.097  -0.350  0.00  0.00    +0.239 A 
ATOM     14  N   UNL     1      -5.057   7.527  -1.590  0.00  0.00    -0.105 NA
ATOM     15  N   UNL     1      -3.998   6.906  -1.984  0.00  0.00    -0.045 NA
ATOM     16  N   UNL     1      -3.605   6.113  -1.049  0.00  0.00    -0.154 N 
ATOM     17  N   UNL     1      -4.406   6.208  -0.044  0.00  0.00    -0.127 NA
BRANCH  13  22
ATOM     18  C   UNL     1      -8.437   7.478   3.578  0.00  0.00    +0.086 C 
ATOM     19  C   UNL     1      -7.819   7.700   2.221  0.00  0.00    +0.103 A 
ATOM     20  C   UNL     1      -8.277   8.547   1.279  0.00  0.00    +0.045 A 
ATOM     21  C   UNL     1      -7.405   8.447   0.176  0.00  0.00    +0.053 A 
ATOM     22  C   UNL     1      -6.459   7.529   0.506  0.00  0.00    +0.175 A 
ATOM     23  O   UNL     1      -6.721   7.087   1.751  0.00  0.00    -0.457 OA
ENDBRANCH  13  22
ENDBRANCH  12  16
ENDBRANCH   1  12
BRANCH   3  24
ATOM     24  C   UNL     1       1.104   6.010   0.117  0.00  0.00    +0.197 C 
BRANCH  24  25
ATOM     25  C   UNL     1       2.324   5.133   0.004  0.00  0.00    -0.018 A 
ATOM     26  C   UNL     1       2.302   3.850   0.517  0.00  0.00    +0.009 A 
ATOM     27  C   UNL     1       3.417   3.042   0.410  0.00  0.00    +0.046 A 
ATOM     28  C   UNL     1       4.565   3.524  -0.203  0.00  0.00    +0.117 A 
ATOM     29  C   UNL     1       4.586   4.814  -0.713  0.00  0.00    +0.046 A 
ATOM     30  C   UNL     1       3.466   5.616  -0.608  0.00  0.00    +0.009 A 
BRANCH  28  31
ATOM     31  O   UNL     1       5.666   2.734  -0.304  0.00  0.00    -0.507 OA
ATOM     32  H   UNL     1       6.273   2.808   0.444  0.00  0.00    +0.292 HD
ENDBRANCH  28  31
ENDBRANCH  24  25
BRANCH  24  33
ATOM     33  C   UNL     1       0.817   6.287   1.570  0.00  0.00    +0.239 C 
ATOM     34  O   UNL     1      -0.242   5.948   2.054  0.00  0.00    -0.273 OA
ATOM     35  N   UNL     1       1.737   6.910   2.332  0.00  0.00    -0.309 N 
ATOM     36  H   UNL     1       2.584   7.181   1.945  0.00  0.00    +0.149 HD
BRANCH  35  37
ATOM     37  C   UNL     1       1.458   7.179   3.745  0.00  0.00    +0.026 C 
ATOM     38  C   UNL     1       1.207   5.859   4.476  0.00  0.00    +0.031 C 
ATOM     39  C   UNL     1       2.657   7.891   4.375  0.00  0.00    +0.031 C 
ATOM     40  C   UNL     1       0.219   8.069   3.860  0.00  0.00    +0.031 C 
ENDBRANCH  35  37
ENDBRANCH  24  33
ENDBRANCH   3  24
TORSDOF 10
