REMARK  Name = ZINC01781943
REMARK  6 active torsions:
REMARK  status: ('A' for Active; 'I' for Inactive)
REMARK    1  A    between atoms: C_4  and  C_7
REMARK    2  A    between atoms: C_9  and  C_32
REMARK    3  A    between atoms: C_10  and  N_12
REMARK    4  A    between atoms: C_13  and  C_15
REMARK    5  A    between atoms: C_15  and  N_16
REMARK    6  A    between atoms: C_23  and  C_26
REMARK                            x       y       z     vdW  Elec       q    Type
REMARK                         _______ _______ _______ _____ _____    ______ ____
ROOT
ATOM      1  N   UNL     1      -1.069  -0.882   0.007  0.00  0.00    -0.278 N 
ATOM      2  C   UNL     1      -2.330  -0.406   0.022  0.00  0.00    +0.237 C 
ATOM      3  O   UNL     1      -2.527   0.791   0.030  0.00  0.00    -0.273 OA
ATOM      4  H   UNL     1      -0.912  -1.839   0.000  0.00  0.00    +0.155 HD
ENDROOT
BRANCH   1   8
ATOM      5  C   UNL     1       1.735   2.032  -0.004  0.00  0.00    +0.022 A 
ATOM      6  C   UNL     1       2.257   0.775  -0.015  0.00  0.00    +0.031 A 
ATOM      7  C   UNL     1       1.364  -0.297  -0.013  0.00  0.00    +0.066 A 
ATOM      8  C   UNL     1       0.002  -0.004   0.002  0.00  0.00    +0.084 A 
ATOM      9  S   UNL     1      -0.021   1.729   0.011  0.00  0.00    -0.073 S 
BRANCH   5  13
ATOM     10  C   UNL     1       3.784   5.753  -0.003  0.00  0.00    +0.000 A 
ATOM     11  C   UNL     1       2.400   5.728   0.011  0.00  0.00    +0.001 A 
ATOM     12  C   UNL     1       1.729   4.523   0.010  0.00  0.00    +0.009 A 
ATOM     13  C   UNL     1       2.448   3.327  -0.003  0.00  0.00    -0.011 A 
ATOM     14  C   UNL     1       3.843   3.359  -0.011  0.00  0.00    +0.009 A 
ATOM     15  C   UNL     1       4.503   4.571  -0.017  0.00  0.00    +0.001 A 
ENDBRANCH   5  13
BRANCH   7  16
ATOM     16  C   UNL     1       1.843  -1.683  -0.025  0.00  0.00    +0.244 C 
ATOM     17  O   UNL     1       1.045  -2.603  -0.023  0.00  0.00    -0.270 OA
ATOM     18  N   UNL     1       3.166  -1.940  -0.039  0.00  0.00    -0.325 N 
ATOM     19  H   UNL     1       3.802  -1.207  -0.041  0.00  0.00    +0.145 HD
ATOM     20  H   UNL     1       3.482  -2.856  -0.047  0.00  0.00    +0.145 HD
ENDBRANCH   7  16
ENDBRANCH   1   8
BRANCH   2  21
ATOM     21  C   UNL     1      -3.496  -1.361   0.027  0.00  0.00    +0.222 C 
BRANCH  21  22
ATOM     22  N   UNL     1      -4.749  -0.602   0.043  0.00  0.00    -0.290 N 
ATOM     23  C   UNL     1      -5.310  -0.269   1.234  0.00  0.00    +0.203 A 
ATOM     24  N   UNL     1      -6.423   0.412   1.289  0.00  0.00    -0.230 NA
ATOM     25  C   UNL     1      -7.050   0.791   0.179  0.00  0.00    +0.116 A 
ATOM     26  C   UNL     1      -6.548   0.488  -1.097  0.00  0.00    +0.080 A 
ATOM     27  C   UNL     1      -5.324  -0.254  -1.122  0.00  0.00    +0.263 A 
ATOM     28  O   UNL     1      -4.811  -0.565  -2.183  0.00  0.00    -0.267 OA
ATOM     29  C   UNL     1      -7.354   0.976  -2.210  0.00  0.00    +0.004 A 
ATOM     30  C   UNL     1      -8.489   1.664  -1.940  0.00  0.00    +0.056 A 
ATOM     31  S   UNL     1      -8.540   1.694  -0.158  0.00  0.00    -0.076 S 
BRANCH  29  32
ATOM     32  C   UNL     1      -6.939   0.724  -3.611  0.00  0.00    -0.017 A 
ATOM     33  C   UNL     1      -5.639   1.021  -4.020  0.00  0.00    +0.008 A 
ATOM     34  C   UNL     1      -5.257   0.779  -5.323  0.00  0.00    +0.001 A 
ATOM     35  C   UNL     1      -6.164   0.254  -6.227  0.00  0.00    +0.000 A 
ATOM     36  C   UNL     1      -7.456  -0.037  -5.828  0.00  0.00    +0.001 A 
ATOM     37  C   UNL     1      -7.848   0.195  -4.526  0.00  0.00    +0.008 A 
ENDBRANCH  29  32
ENDBRANCH  21  22
ENDBRANCH   2  21
TORSDOF 6
