REMARK  Name = ZINC21246628
REMARK  7 active torsions:
REMARK  status: ('A' for Active; 'I' for Inactive)
REMARK    1  A    between atoms: C_1  and  O_2
REMARK    2  A    between atoms: O_2  and  C_3
REMARK    3  A    between atoms: C_6  and  C_9
REMARK    4  A    between atoms: C_14  and  C_24
REMARK    5  A    between atoms: C_28  and  O_31
REMARK    6  A    between atoms: C_29  and  O_30
REMARK    7  A    between atoms: O_31  and  C_32
REMARK                            x       y       z     vdW  Elec       q    Type
REMARK                         _______ _______ _______ _____ _____    ______ ____
ROOT
ATOM      1  C   UNL     1      -0.398   1.190   0.156  0.00  0.00    +0.032 C 
ATOM      2  C   UNL     1       1.016   1.737  -0.031  0.00  0.00    +0.059 C 
ATOM      3  C   UNL     1       1.884   1.339   1.152  0.00  0.00    +0.017 C 
ATOM      4  C   UNL     1       1.684   0.167   1.776  0.00  0.00    +0.037 C 
ATOM      5  C   UNL     1       2.492  -0.370   2.934  0.00  0.00    +0.140 C 
ATOM      6  N   UNL     1       3.382   0.597   3.541  0.00  0.00    -0.331 N 
ATOM      7  C   UNL     1       4.450   1.140   2.829  0.00  0.00    +0.049 A 
ATOM      8  C   UNL     1       5.763   0.849   3.163  0.00  0.00    +0.025 A 
ATOM      9  C   UNL     1       6.789   1.323   2.364  0.00  0.00    +0.002 A 
ATOM     10  C   UNL     1       6.509   2.081   1.242  0.00  0.00    +0.002 A 
ATOM     11  C   UNL     1       5.200   2.390   0.917  0.00  0.00    +0.025 A 
ATOM     12  C   UNL     1       4.174   1.932   1.725  0.00  0.00    +0.052 A 
ATOM     13  N   UNL     1       2.841   2.243   1.482  0.00  0.00    -0.316 N 
ATOM     14  C   UNL     1       0.638  -0.691   1.363  0.00  0.00    +0.163 C 
ATOM     15  O   UNL     1       0.493  -1.755   1.933  0.00  0.00    -0.292 OA
ATOM     16  C   UNL     1      -0.299  -0.337   0.247  0.00  0.00    +0.088 C 
ATOM     17  H   UNL     1       3.221   0.915   4.582  0.00  0.00    +0.147 HD
ATOM     18  H   UNL     1       2.583   3.308   1.574  0.00  0.00    +0.152 HD
ENDROOT
BRANCH   1  22
ATOM     19  C   UNL     1      -2.829   2.287  -3.183  0.00  0.00    +0.120 A 
ATOM     20  C   UNL     1      -3.196   2.671  -1.901  0.00  0.00    +0.046 A 
ATOM     21  C   UNL     1      -2.408   2.315  -0.823  0.00  0.00    +0.007 A 
ATOM     22  C   UNL     1      -1.256   1.577  -1.021  0.00  0.00    -0.043 A 
ATOM     23  C   UNL     1      -0.885   1.198  -2.299  0.00  0.00    +0.007 A 
ATOM     24  C   UNL     1      -1.673   1.547  -3.379  0.00  0.00    +0.046 A 
BRANCH  19  26
ATOM     25  C   UNL     1      -3.164   2.206  -5.535  0.00  0.00    +0.277 C 
ATOM     26  O   UNL     1      -3.603   2.635  -4.245  0.00  0.00    -0.495 OA
ENDBRANCH  19  26
ENDBRANCH   1  22
BRANCH   5  27
ATOM     27  C   UNL     1       3.313  -1.535   2.446  0.00  0.00    +0.022 A 
ATOM     28  C   UNL     1       3.517  -1.717   1.090  0.00  0.00    +0.009 A 
ATOM     29  C   UNL     1       4.269  -2.785   0.639  0.00  0.00    +0.004 A 
ATOM     30  C   UNL     1       4.822  -3.676   1.541  0.00  0.00    +0.049 A 
ATOM     31  C   UNL     1       4.621  -3.499   2.900  0.00  0.00    +0.162 A 
ATOM     32  C   UNL     1       3.868  -2.421   3.355  0.00  0.00    +0.164 A 
BRANCH  32  33
ATOM     33  O   UNL     1       3.673  -2.240   4.688  0.00  0.00    -0.503 OA
ATOM     34  H   UNL     1       4.114  -2.944   5.409  0.00  0.00    +0.292 HD
ENDBRANCH  32  33
BRANCH  31  35
ATOM     35  O   UNL     1       5.164  -4.374   3.788  0.00  0.00    -0.491 OA
ATOM     36  C   UNL     1       5.930  -5.454   3.250  0.00  0.00    +0.277 C 
ENDBRANCH  31  35
ENDBRANCH   5  27
TORSDOF 5
