REMARK  Name = ZINC36938614
REMARK  4 active torsions:
REMARK  status: ('A' for Active; 'I' for Inactive)
REMARK    1  A    between atoms: C_1  and  C_2
REMARK    2  A    between atoms: C_3  and  C_16
REMARK    3  A    between atoms: N_5  and  C_8
REMARK    4  A    between atoms: C_6  and  N_7
REMARK                            x       y       z     vdW  Elec       q    Type
REMARK                         _______ _______ _______ _____ _____    ______ ____
ROOT
ATOM      1  C   UNL     1      -0.018   1.503   0.010  0.00  0.00    +0.049 C 
ATOM      2  C   UNL     1       0.002  -0.004   0.002  0.00  0.00    +0.014 A 
ATOM      3  C   UNL     1       0.008  -0.827  -1.140  0.00  0.00    +0.070 A 
ATOM      4  N   UNL     1       0.027  -2.081  -0.741  0.00  0.00    -0.295 N 
ATOM      5  N   UNL     1       0.034  -2.098   0.660  0.00  0.00    -0.268 N 
ATOM      6  C   UNL     1       0.024  -0.811   1.096  0.00  0.00    +0.116 A 
ATOM      7  H   UNL     1       0.035  -2.861  -1.318  0.00  0.00    +0.187 HD
ENDROOT
BRANCH   5   8
ATOM      8  C   UNL     1       0.053  -3.293   1.506  0.00  0.00    +0.129 C 
ATOM      9  C   UNL     1       1.300  -4.135   1.186  0.00  0.00    +0.051 C 
ATOM     10  C   UNL     1       1.169  -5.537   1.830  0.00  0.00    +0.168 C 
ATOM     11  S   UNL     1      -0.652  -5.788   1.886  0.00  0.00    -0.029 S 
ATOM     12  O   UNL     1      -1.006  -6.810   0.965  0.00  0.00    -0.174 OA
ATOM     13  O   UNL     1      -1.062  -5.895   3.243  0.00  0.00    -0.174 OA
ATOM     14  C   UNL     1      -1.204  -4.162   1.218  0.00  0.00    +0.192 C 
ENDBRANCH   5   8
BRANCH   3  15
ATOM     15  C   UNL     1      -0.005  -0.362  -2.549  0.00  0.00    +0.014 A 
ATOM     16  C   UNL     1      -1.100  -0.636  -3.366  0.00  0.00    +0.011 A 
ATOM     17  C   UNL     1      -1.107  -0.201  -4.675  0.00  0.00    +0.001 A 
ATOM     18  C   UNL     1      -0.030   0.506  -5.178  0.00  0.00    +0.001 A 
ATOM     19  C   UNL     1       1.060   0.782  -4.373  0.00  0.00    +0.016 A 
ATOM     20  C   UNL     1       1.075   0.356  -3.058  0.00  0.00    +0.027 A 
ATOM     21 BR   UNL     1       2.562   0.741  -1.955  0.00  0.00    -0.050 Br
ENDBRANCH   3  15
BRANCH   6  22
ATOM     22  N   UNL     1       0.032  -0.394   2.424  0.00  0.00    -0.343 N 
ATOM     23  H   UNL     1       0.021   0.552   2.635  0.00  0.00    +0.144 HD
ATOM     24  H   UNL     1       0.048  -1.050   3.138  0.00  0.00    +0.144 HD
ENDBRANCH   6  22
TORSDOF 3
