REMARK  Name = ZINC00847046
REMARK  6 active torsions:
REMARK  status: ('A' for Active; 'I' for Inactive)
REMARK    1  A    between atoms: C_1  and  C_2
REMARK    2  A    between atoms: C_2  and  C_4
REMARK    3  A    between atoms: N_8  and  C_20
REMARK    4  A    between atoms: C_9  and  C_11
REMARK    5  A    between atoms: C_14  and  N_17
REMARK    6  A    between atoms: C_23  and  O_26
REMARK                            x       y       z     vdW  Elec       q    Type
REMARK                         _______ _______ _______ _____ _____    ______ ____
ROOT
ATOM      1  C   UNL     1      -1.213  -0.728   0.010  0.00  0.00    +0.072 C 
ATOM      2  C   UNL     1      -1.351  -2.077   0.010  0.00  0.00    +0.249 C 
ATOM      3  C   UNL     1      -2.791  -2.417   0.019  0.00  0.00    +0.292 C 
ATOM      4  O   UNL     1      -3.241  -3.545   0.022  0.00  0.00    -0.266 OA
ATOM      5  N   UNL     1      -3.528  -1.291   0.025  0.00  0.00    -0.253 N 
ATOM      6  C   UNL     1      -2.608  -0.147   0.026  0.00  0.00    +0.149 C 
ATOM      7  O   UNL     1      -0.336  -2.970   0.002  0.00  0.00    -0.282 OA
ENDROOT
BRANCH   6   8
ATOM      8  C   UNL     1      -2.833   0.695  -1.203  0.00  0.00    -0.022 A 
ATOM      9  C   UNL     1      -3.120   0.091  -2.412  0.00  0.00    +0.008 A 
ATOM     10  C   UNL     1      -3.326   0.864  -3.540  0.00  0.00    +0.033 A 
ATOM     11  C   UNL     1      -3.246   2.241  -3.457  0.00  0.00    +0.126 A 
ATOM     12  C   UNL     1      -2.960   2.846  -2.247  0.00  0.00    +0.033 A 
ATOM     13  C   UNL     1      -2.758   2.073  -1.119  0.00  0.00    +0.008 A 
BRANCH  11  14
ATOM     14  N   UNL     1      -3.466   3.069  -4.664  0.00  0.00    +0.056 N 
ATOM     15  O   UNL     1      -3.716   2.541  -5.723  0.00  0.00    -0.126 OA
ATOM     16  O   UNL     1      -3.396   4.274  -4.592  0.00  0.00    -0.126 OA
ENDBRANCH  11  14
ENDBRANCH   6   8
BRANCH   5  17
ATOM     17  C   UNL     1      -4.925  -1.223   0.034  0.00  0.00    +0.038 A 
ATOM     18  C   UNL     1      -5.561   0.012   0.033  0.00  0.00    +0.027 A 
ATOM     19  C   UNL     1      -6.939   0.079   0.042  0.00  0.00    +0.047 A 
ATOM     20  C   UNL     1      -7.691  -1.088   0.051  0.00  0.00    +0.117 A 
ATOM     21  C   UNL     1      -7.057  -2.322   0.053  0.00  0.00    +0.047 A 
ATOM     22  C   UNL     1      -5.678  -2.390   0.038  0.00  0.00    +0.027 A 
BRANCH  20  23
ATOM     23  O   UNL     1      -9.048  -1.022   0.059  0.00  0.00    -0.507 OA
ATOM     24  H   UNL     1      -9.447  -1.006  -0.821  0.00  0.00    +0.292 HD
ENDBRANCH  20  23
ENDBRANCH   5  17
BRANCH   1  26
ATOM     25  C   UNL     1      -0.018   1.503   0.010  0.00  0.00    +0.091 C 
ATOM     26  C   UNL     1       0.002  -0.004   0.002  0.00  0.00    +0.162 C 
ATOM     27  O   UNL     1       1.061  -0.597  -0.011  0.00  0.00    -0.292 OA
ENDBRANCH   1  26
TORSDOF 5
