REMARK  Name = ZINC22135291
REMARK  2 active torsions:
REMARK  status: ('A' for Active; 'I' for Inactive)
REMARK    1  A    between atoms: N_10  and  N_11
REMARK    2  A    between atoms: C_12  and  C_13
REMARK                            x       y       z     vdW  Elec       q    Type
REMARK                         _______ _______ _______ _____ _____    ______ ____
ROOT
ATOM      1  C   UNL     1       3.885   1.972   1.617  0.00  0.00    +0.002 A 
ATOM      2  C   UNL     1       3.058   2.952   2.145  0.00  0.00    +0.004 A 
ATOM      3  C   UNL     1       1.696   2.749   2.228  0.00  0.00    +0.048 A 
ATOM      4  C   UNL     1       1.147   1.558   1.782  0.00  0.00    +0.157 A 
ATOM      5  C   UNL     1       1.979   0.563   1.247  0.00  0.00    +0.111 A 
ATOM      6  C   UNL     1       3.355   0.782   1.169  0.00  0.00    +0.031 A 
ATOM      7  N   UNL     1       1.171  -0.475   0.898  0.00  0.00    -0.194 NA
ATOM      8  C   UNL     1      -0.066  -0.161   1.190  0.00  0.00    +0.309 A 
ATOM      9  O   UNL     1      -0.114   1.071   1.729  0.00  0.00    -0.423 OA
ATOM     10  N   UNL     1      -1.158  -0.972   0.975  0.00  0.00    -0.190 N 
ATOM     11  H   UNL     1      -2.164  -0.624   1.252  0.00  0.00    +0.179 HD
ENDROOT
BRANCH  10  12
ATOM     12  N   UNL     1      -0.987  -2.240   0.405  0.00  0.00    -0.186 NA
ATOM     13  C   UNL     1      -2.023  -2.961   0.103  0.00  0.00    +0.139 C 
BRANCH  13  14
ATOM     14  C   UNL     1      -3.370  -2.360   0.120  0.00  0.00    +0.013 A 
ATOM     15  C   UNL     1      -3.527  -0.986  -0.081  0.00  0.00    +0.012 A 
ATOM     16  C   UNL     1      -4.789  -0.430  -0.065  0.00  0.00    +0.021 A 
ATOM     17  C   UNL     1      -5.899  -1.230   0.149  0.00  0.00    +0.042 A 
ATOM     18  C   UNL     1      -5.752  -2.592   0.349  0.00  0.00    +0.040 A 
ATOM     19  C   UNL     1      -4.495  -3.162   0.330  0.00  0.00    +0.051 A 
ATOM     20 CL   UNL     1      -4.311  -4.872   0.574  0.00  0.00    -0.083 Cl
ATOM     21 CL   UNL     1      -7.484  -0.521   0.167  0.00  0.00    -0.083 Cl
ENDBRANCH  13  14
ENDBRANCH  10  12
TORSDOF 2
