REMARK  Name = ZINC48859905
REMARK  6 active torsions:
REMARK  status: ('A' for Active; 'I' for Inactive)
REMARK    1  A    between atoms: C_1  and  C_2
REMARK    2  A    between atoms: C_5  and  O_20
REMARK    3  A    between atoms: C_6  and  N_8
REMARK    4  A    between atoms: C_9  and  C_11
REMARK    5  A    between atoms: C_13  and  C_19
REMARK    6  A    between atoms: C_16  and  O_17
REMARK                            x       y       z     vdW  Elec       q    Type
REMARK                         _______ _______ _______ _____ _____    ______ ____
ROOT
ATOM      1  N   UNL     1       0.051  -2.794   2.399  0.00  0.00    -0.278 N 
ATOM      2  C   UNL     1       0.149  -2.130   3.567  0.00  0.00    +0.252 C 
ATOM      3  O   UNL     1       0.133  -0.914   3.578  0.00  0.00    -0.270 OA
ATOM      4  H   UNL     1      -0.002  -3.763   2.394  0.00  0.00    +0.155 HD
ENDROOT
BRANCH   2   5
ATOM      5  C   UNL     1       0.276  -2.878   4.832  0.00  0.00    +0.080 A 
ATOM      6  C   UNL     1       0.300  -4.275   4.824  0.00  0.00    +0.020 A 
ATOM      7  C   UNL     1       0.419  -4.968   6.008  0.00  0.00    -0.048 A 
ATOM      8  C   UNL     1       0.515  -4.285   7.211  0.00  0.00    +0.022 A 
ATOM      9  C   UNL     1       0.492  -2.905   7.234  0.00  0.00    +0.060 A 
ATOM     10  C   UNL     1       0.378  -2.191   6.049  0.00  0.00    +0.143 A 
ATOM     11 BR   UNL     1       0.623  -1.986   8.882  0.00  0.00    -0.046 Br
ATOM     12  C   UNL     1       0.445  -6.474   5.997  0.00  0.00    +0.044 C 
BRANCH  10  13
ATOM     13  O   UNL     1       0.361  -0.834   6.070  0.00  0.00    -0.505 OA
ATOM     14  H   UNL     1      -0.524  -0.454   6.157  0.00  0.00    +0.292 HD
ENDBRANCH  10  13
ENDBRANCH   2   5
BRANCH   1  20
ATOM     15  C   UNL     1      -1.306   1.189  -0.144  0.00  0.00    +0.044 C 
ATOM     16  C   UNL     1      -0.626  -0.153  -0.071  0.00  0.00    -0.048 A 
ATOM     17  C   UNL     1      -0.028  -0.686  -1.199  0.00  0.00    +0.007 A 
ATOM     18  C   UNL     1       0.598  -1.917  -1.139  0.00  0.00    +0.047 A 
ATOM     19  C   UNL     1       0.627  -2.622   0.054  0.00  0.00    +0.138 A 
ATOM     20  C   UNL     1       0.025  -2.086   1.190  0.00  0.00    +0.076 A 
ATOM     21  C   UNL     1      -0.596  -0.847   1.123  0.00  0.00    +0.030 A 
BRANCH  19  22
ATOM     22  O   UNL     1       1.241  -3.833   0.115  0.00  0.00    -0.505 OA
ATOM     23  H   UNL     1       2.179  -3.788   0.348  0.00  0.00    +0.292 HD
ENDBRANCH  19  22
ENDBRANCH   1  20
TORSDOF 4
