REMARK  Name = ZINC37669546
REMARK  4 active torsions:
REMARK  status: ('A' for Active; 'I' for Inactive)
REMARK    1  A    between atoms: C_5  and  C_7
REMARK    2  A    between atoms: C_7  and  N_8
REMARK    3  A    between atoms: C_9  and  C_11
REMARK    4  A    between atoms: C_16  and  N_17
REMARK                            x       y       z     vdW  Elec       q    Type
REMARK                         _______ _______ _______ _____ _____    ______ ____
ROOT
ATOM      1  N   UNL     1       1.991  -3.242   0.916  0.00  0.00    -0.307 N 
ATOM      2  C   UNL     1       1.723  -4.464   1.417  0.00  0.00    +0.247 C 
ATOM      3  O   UNL     1       1.338  -5.352   0.681  0.00  0.00    -0.270 OA
ATOM      4  H   UNL     1       2.299  -2.534   1.503  0.00  0.00    +0.149 HD
ENDROOT
BRANCH   2   5
ATOM      5  C   UNL     1       1.897  -4.725   2.862  0.00  0.00    +0.070 A 
ATOM      6  C   UNL     1       3.122  -4.463   3.479  0.00  0.00    +0.053 A 
ATOM      7  C   UNL     1       3.277  -4.708   4.830  0.00  0.00    +0.124 A 
ATOM      8  C   UNL     1       2.221  -5.214   5.570  0.00  0.00    +0.040 A 
ATOM      9  C   UNL     1       1.006  -5.475   4.963  0.00  0.00    +0.036 A 
ATOM     10  C   UNL     1       0.837  -5.228   3.616  0.00  0.00    +0.138 A 
ATOM     11  F   UNL     1       4.461  -4.455   5.429  0.00  0.00    -0.205 F 
BRANCH  10  12
ATOM     12  N   UNL     1      -0.467  -5.504   2.970  0.00  0.00    +0.057 N 
ATOM     13  O   UNL     1      -1.345  -6.054   3.592  0.00  0.00    -0.126 OA
ATOM     14  O   UNL     1      -0.652  -5.178   1.821  0.00  0.00    -0.126 OA
ENDBRANCH  10  12
ENDBRANCH   2   5
BRANCH   1  15
ATOM     15  C   UNL     1       1.819  -2.984  -0.516  0.00  0.00    +0.141 C 
BRANCH  15  20
ATOM     16  C   UNL     1       1.522   0.710  -1.237  0.00  0.00    +0.000 A 
ATOM     17  C   UNL     1       2.850   1.074  -1.366  0.00  0.00    +0.001 A 
ATOM     18  C   UNL     1       3.844   0.126  -1.221  0.00  0.00    +0.020 A 
ATOM     19  C   UNL     1       3.511  -1.189  -0.945  0.00  0.00    +0.046 A 
ATOM     20  C   UNL     1       2.183  -1.552  -0.816  0.00  0.00    -0.012 A 
ATOM     21  C   UNL     1       1.189  -0.603  -0.962  0.00  0.00    +0.006 A 
ATOM     22 CL   UNL     1       4.759  -2.381  -0.763  0.00  0.00    -0.083 Cl
ENDBRANCH  15  20
ENDBRANCH   1  15
TORSDOF 4
