REMARK  Name = ZINC39140545
REMARK  2 active torsions:
REMARK  status: ('A' for Active; 'I' for Inactive)
REMARK    1  A    between atoms: C_1  and  C_3
REMARK    2  A    between atoms: C_7  and  C_10
REMARK                            x       y       z     vdW  Elec       q    Type
REMARK                         _______ _______ _______ _____ _____    ______ ____
ROOT
ATOM      1  C   UNL     1       1.280   1.975   0.000  0.00  0.00    +0.249 C 
ATOM      2  N   UNL     1       2.435   1.087  -0.267  0.00  0.00    -0.169 NA
ATOM      3  N   UNL     1       2.969   1.076  -1.359  0.00  0.00    -0.169 NA
ATOM      4  C   UNL     1       2.478   1.950  -2.449  0.00  0.00    +0.249 C 
ATOM      5  S   UNL     1       1.393   3.086  -1.472  0.00  0.00    -0.090 S 
ENDROOT
BRANCH   1   6
ATOM      6  C   UNL     1      -0.014   1.203   0.009  0.00  0.00    +0.262 C 
ATOM      7  O   UNL     1       0.002  -0.004   0.002  0.00  0.00    -0.298 OA
ENDBRANCH   1   6
BRANCH   4   8
ATOM      8  C   UNL     1       3.610   2.699  -3.104  0.00  0.00    +0.262 C 
ATOM      9  O   UNL     1       4.753   2.455  -2.798  0.00  0.00    -0.298 OA
ENDBRANCH   4   8
TORSDOF 2
