REMARK  Name = ZINC58194897
REMARK  8 active torsions:
REMARK  status: ('A' for Active; 'I' for Inactive)
REMARK    1  A    between atoms: C_1  and  C_2
REMARK    2  A    between atoms: C_3  and  C_9
REMARK    3  A    between atoms: C_4  and  N_7
REMARK    4  A    between atoms: N_7  and  C_8
REMARK    5  A    between atoms: N_11  and  C_12
REMARK    6  A    between atoms: C_12  and  C_13
REMARK    7  A    between atoms: C_21  and  C_28
REMARK    8  A    between atoms: C_24  and  C_27
REMARK                            x       y       z     vdW  Elec       q    Type
REMARK                         _______ _______ _______ _____ _____    ______ ____
ROOT
ATOM      1  C   UNL     1      -2.627   1.054  -4.868  0.00  0.00    -0.014 A 
ATOM      2  C   UNL     1      -3.288   0.060  -5.578  0.00  0.00    +0.010 A 
ATOM      3  C   UNL     1      -4.597   0.285  -5.965  0.00  0.00    +0.042 A 
ATOM      4  C   UNL     1      -5.203   1.492  -5.632  0.00  0.00    +0.099 A 
ATOM      5  N   UNL     1      -4.539   2.415  -4.953  0.00  0.00    -0.349 N 
ATOM      6  C   UNL     1      -3.292   2.225  -4.566  0.00  0.00    +0.089 A 
ATOM      7  N   UNL     1      -6.518   1.731  -6.014  0.00  0.00    -0.312 N 
ATOM      8  C   UNL     1      -7.241   0.782  -6.876  0.00  0.00    +0.137 C 
ATOM      9  C   UNL     1      -7.861   1.562  -8.040  0.00  0.00    +0.133 C 
ATOM     10  O   UNL     1      -8.623   2.656  -7.522  0.00  0.00    -0.371 OA
ATOM     11  C   UNL     1      -7.849   3.616  -6.798  0.00  0.00    +0.133 C 
ATOM     12  C   UNL     1      -7.230   2.938  -5.565  0.00  0.00    +0.137 C 
ATOM     13  C   UNL     1      -8.753   4.765  -6.348  0.00  0.00    +0.039 C 
ATOM     14  C   UNL     1      -8.777   0.637  -8.845  0.00  0.00    +0.039 C 
ATOM     15  H   UNL     1      -4.981   3.249  -4.732  0.00  0.00    +0.167 HD
ENDROOT
BRANCH   1  16
ATOM     16  C   UNL     1      -1.200   0.852  -4.426  0.00  0.00    +0.141 C 
BRANCH  16  19
ATOM     17  C   UNL     1      -0.008  -0.046  -2.501  0.00  0.00    +0.248 C 
ATOM     18  O   UNL     1       1.038   0.221  -3.061  0.00  0.00    -0.270 OA
ATOM     19  N   UNL     1      -1.183   0.230  -3.100  0.00  0.00    -0.307 N 
ATOM     20  H   UNL     1      -2.018   0.017  -2.653  0.00  0.00    +0.149 HD
BRANCH  17  23
ATOM     21  C   UNL     1       0.000   1.577  -0.008  0.00  0.00    +0.067 C 
ATOM     22  C   UNL     1       0.013   0.070   0.011  0.00  0.00    +0.061 A 
ATOM     23  C   UNL     1       0.009  -0.669  -1.172  0.00  0.00    +0.087 A 
ATOM     24  C   UNL     1       0.022  -2.054  -0.985  0.00  0.00    +0.098 A 
ATOM     25  S   UNL     1       0.038  -2.203   0.686  0.00  0.00    +0.027 S 
ATOM     26  N   UNL     1       0.033  -0.592   1.132  0.00  0.00    -0.213 NA
BRANCH  24  27
ATOM     27  N   UNL     1       0.023  -3.052  -1.938  0.00  0.00    -0.340 N 
ATOM     28  C   UNL     1       0.038  -4.458  -1.527  0.00  0.00    +0.126 C 
ATOM     29  H   UNL     1       0.013  -2.822  -2.881  0.00  0.00    +0.146 HD
ENDBRANCH  24  27
ENDBRANCH  17  23
ENDBRANCH  16  19
ENDBRANCH   1  16
TORSDOF 4
