REMARK  Name = ZINC02772856
REMARK  6 active torsions:
REMARK  status: ('A' for Active; 'I' for Inactive)
REMARK    1  A    between atoms: C_1  and  C_2
REMARK    2  A    between atoms: C_2  and  C_4
REMARK    3  A    between atoms: C_2  and  N_19
REMARK    4  A    between atoms: C_4  and  N_5
REMARK    5  A    between atoms: C_6  and  C_8
REMARK    6  A    between atoms: C_20  and  C_22
REMARK                            x       y       z     vdW  Elec       q    Type
REMARK                         _______ _______ _______ _____ _____    ______ ____
ROOT
ATOM      1  C   UNL     1       7.170   8.313   0.098  0.00  0.00    +0.029 C 
ATOM      2  C   UNL     1       5.845   7.557  -0.018  0.00  0.00    +0.087 C 
ENDROOT
BRANCH   2   3
ATOM      3  N   UNL     1       4.990   7.892   1.124  0.00  0.00    -0.307 N 
ATOM      4  C   UNL     1       4.215   8.995   1.085  0.00  0.00    +0.251 C 
ATOM      5  O   UNL     1       4.227   9.711   0.103  0.00  0.00    -0.270 OA
ATOM      6  H   UNL     1       4.981   7.320   1.907  0.00  0.00    +0.149 HD
BRANCH   4   7
ATOM      7  C   UNL     1       3.356   9.331   2.233  0.00  0.00    +0.122 A 
ATOM      8  C   UNL     1       3.329   8.521   3.354  0.00  0.00    +0.031 A 
ATOM      9  C   UNL     1       2.491   8.886   4.438  0.00  0.00    +0.018 A 
ATOM     10  C   UNL     1       2.444   8.090   5.593  0.00  0.00    +0.011 A 
ATOM     11  C   UNL     1       1.630   8.445   6.630  0.00  0.00    +0.001 A 
ATOM     12  C   UNL     1       0.847   9.588   6.551  0.00  0.00    +0.004 A 
ATOM     13  C   UNL     1       0.878  10.384   5.426  0.00  0.00    +0.047 A 
ATOM     14  C   UNL     1       1.698  10.045   4.356  0.00  0.00    +0.139 A 
ATOM     15  O   UNL     1       1.727  10.827   3.256  0.00  0.00    -0.422 OA
ATOM     16  C   UNL     1       2.508  10.528   2.205  0.00  0.00    +0.350 A 
ATOM     17  O   UNL     1       2.512  11.252   1.227  0.00  0.00    -0.244 OA
ENDBRANCH   4   7
ENDBRANCH   2   3
BRANCH   2  18
ATOM     18  C   UNL     1       6.115   6.051  -0.028  0.00  0.00    +0.126 C 
BRANCH  18  19
ATOM     19  N   UNL     1       4.843   5.326  -0.018  0.00  0.00    -0.309 N 
ATOM     20  C   UNL     1       4.835   3.978  -0.025  0.00  0.00    +0.251 C 
ATOM     21  O   UNL     1       5.885   3.364  -0.038  0.00  0.00    -0.270 OA
ATOM     22  H   UNL     1       4.005   5.816  -0.008  0.00  0.00    +0.149 HD
BRANCH  20  23
ATOM     23  C   UNL     1       3.555   3.249  -0.015  0.00  0.00    +0.122 A 
ATOM     24  C   UNL     1       2.353   3.936  -0.000  0.00  0.00    +0.031 A 
ATOM     25  C   UNL     1       1.145   3.193   0.008  0.00  0.00    +0.018 A 
ATOM     26  C   UNL     1      -0.091   3.857   0.023  0.00  0.00    +0.011 A 
ATOM     27  C   UNL     1      -1.250   3.137   0.030  0.00  0.00    +0.001 A 
ATOM     28  C   UNL     1      -1.216   1.749   0.017  0.00  0.00    +0.004 A 
ATOM     29  C   UNL     1      -0.013   1.076   0.008  0.00  0.00    +0.047 A 
ATOM     30  C   UNL     1       1.182   1.788   0.000  0.00  0.00    +0.139 A 
ATOM     31  O   UNL     1       2.359   1.126  -0.014  0.00  0.00    -0.422 OA
ATOM     32  C   UNL     1       3.531   1.782  -0.022  0.00  0.00    +0.350 A 
ATOM     33  O   UNL     1       4.576   1.158  -0.035  0.00  0.00    -0.244 OA
ENDBRANCH  20  23
ENDBRANCH  18  19
ENDBRANCH   2  18
TORSDOF 5
