REMARK  Name = ZINC09544504
REMARK  5 active torsions:
REMARK  status: ('A' for Active; 'I' for Inactive)
REMARK    1  A    between atoms: C_9  and  C_12
REMARK    2  A    between atoms: C_12  and  N_13
REMARK    3  A    between atoms: C_14  and  C_16
REMARK    4  A    between atoms: C_19  and  C_22
REMARK    5  A    between atoms: C_22  and  N_23
REMARK                            x       y       z     vdW  Elec       q    Type
REMARK                         _______ _______ _______ _____ _____    ______ ____
ROOT
ATOM      1  N   UNL     1       4.396   1.340   2.022  0.00  0.00    -0.308 N 
ATOM      2  C   UNL     1       5.662   1.765   2.202  0.00  0.00    +0.244 C 
ATOM      3  O   UNL     1       6.086   2.705   1.558  0.00  0.00    -0.270 OA
ATOM      4  H   UNL     1       4.058   0.590   2.535  0.00  0.00    +0.149 HD
ENDROOT
BRANCH   2   5
ATOM      5  C   UNL     1       6.537   1.088   3.183  0.00  0.00    +0.037 A 
ATOM      6  C   UNL     1       6.052   0.012   3.929  0.00  0.00    +0.013 A 
ATOM      7  C   UNL     1       6.874  -0.619   4.840  0.00  0.00    +0.006 A 
ATOM      8  C   UNL     1       8.173  -0.180   5.022  0.00  0.00    -0.030 A 
ATOM      9  C   UNL     1       8.659   0.889   4.290  0.00  0.00    +0.006 A 
ATOM     10  C   UNL     1       7.848   1.525   3.373  0.00  0.00    +0.013 A 
BRANCH   8  11
ATOM     11  C   UNL     1       9.064  -0.870   6.024  0.00  0.00    +0.141 C 
BRANCH  11  12
ATOM     12  N   UNL     1       8.920  -0.224   7.331  0.00  0.00    -0.295 N 
ATOM     13  C   UNL     1       9.626  -0.675   8.387  0.00  0.00    +0.297 C 
ATOM     14  O   UNL     1      10.382  -1.618   8.254  0.00  0.00    -0.253 OA
ATOM     15  N   UNL     1       9.494  -0.081   9.589  0.00  0.00    -0.313 N 
ATOM     16  H   UNL     1       8.317   0.528   7.437  0.00  0.00    +0.151 HD
ATOM     17  H   UNL     1       8.891   0.671   9.695  0.00  0.00    +0.146 HD
ATOM     18  H   UNL     1      10.002  -0.406  10.349  0.00  0.00    +0.146 HD
ENDBRANCH  11  12
ENDBRANCH   8  11
ENDBRANCH   2   5
BRANCH   1  19
ATOM     19  C   UNL     1       3.530   2.011   1.049  0.00  0.00    +0.152 C 
BRANCH  19  28
ATOM     20  C   UNL     1      -1.144  -2.081  -0.356  0.00  0.00    +0.004 A 
ATOM     21  C   UNL     1       0.003  -2.775  -0.018  0.00  0.00    +0.004 A 
ATOM     22  C   UNL     1       1.151  -2.089   0.328  0.00  0.00    +0.049 A 
ATOM     23  C   UNL     1       1.156  -0.702   0.339  0.00  0.00    +0.163 A 
ATOM     24  C   UNL     1       0.002  -0.004   0.002  0.00  0.00    +0.162 A 
ATOM     25  C   UNL     1      -1.147  -0.699  -0.346  0.00  0.00    +0.049 A 
ATOM     26  O   UNL     1      -0.016   1.357   0.009  0.00  0.00    -0.485 OA
ATOM     27  C   UNL     1       1.254   2.018   0.001  0.00  0.00    +0.275 C 
ATOM     28  C   UNL     1       2.156   1.338   1.040  0.00  0.00    +0.228 C 
ATOM     29  O   UNL     1       2.296  -0.040   0.679  0.00  0.00    -0.480 OA
ENDBRANCH  19  28
ENDBRANCH   1  19
TORSDOF 5
