REMARK  Name = ZINC20562403
REMARK  3 active torsions:
REMARK  status: ('A' for Active; 'I' for Inactive)
REMARK    1  A    between atoms: C_1  and  C_2
REMARK    2  A    between atoms: C_2  and  N_3
REMARK    3  A    between atoms: C_14  and  C_17
REMARK                            x       y       z     vdW  Elec       q    Type
REMARK                         _______ _______ _______ _____ _____    ______ ____
ROOT
ATOM      1  N   UNL     1      -0.719   1.570  -1.187  0.00  0.00    +0.383 N 
ATOM      2  C   UNL     1      -0.013   1.086   0.008  0.00  0.00    -0.074 C 
ATOM      3  C   UNL     1      -0.724   1.577   1.272  0.00  0.00    +0.018 C 
ATOM      4  C   UNL     1      -2.199   1.216   1.162  0.00  0.00    -0.027 A 
ATOM      5  C   UNL     1      -2.729   0.902  -0.043  0.00  0.00    -0.021 A 
ATOM      6  S   UNL     1      -4.434   0.550   0.287  0.00  0.00    -0.080 S 
ATOM      7  C   UNL     1      -4.439   0.813   1.980  0.00  0.00    +0.080 A 
ATOM      8  C   UNL     1      -3.118   1.176   2.285  0.00  0.00    +0.068 A 
ATOM      9  C   UNL     1      -2.802   1.478   3.700  0.00  0.00    +0.248 C 
ATOM     10  O   UNL     1      -1.659   1.690   4.063  0.00  0.00    -0.270 OA
ATOM     11  N   UNL     1      -3.832   1.509   4.571  0.00  0.00    -0.289 N 
ATOM     12  C   UNL     1      -5.233   1.503   4.162  0.00  0.00    +0.190 C 
ATOM     13  N   UNL     1      -5.426   0.722   2.927  0.00  0.00    -0.316 N 
ATOM     14  C   UNL     1      -2.006   0.869  -1.352  0.00  0.00    -0.035 C 
ATOM     15  H   UNL     1      -3.571   1.540   5.639  0.00  0.00    +0.151 HD
ATOM     16  H   UNL     1      -6.329   0.106   2.801  0.00  0.00    +0.149 HD
ATOM     17  H   UNL     1      -0.924   2.642  -1.049  0.00  0.00    -0.081 HD
ENDROOT
BRANCH  12  18
ATOM     18  C   UNL     1      -5.682   2.922   3.924  0.00  0.00    -0.008 A 
ATOM     19  C   UNL     1      -5.084   3.961   4.613  0.00  0.00    +0.008 A 
ATOM     20  C   UNL     1      -5.495   5.262   4.396  0.00  0.00    +0.022 A 
ATOM     21  C   UNL     1      -6.506   5.526   3.489  0.00  0.00    +0.059 A 
ATOM     22  C   UNL     1      -7.105   4.486   2.799  0.00  0.00    +0.060 A 
ATOM     23  C   UNL     1      -6.688   3.184   3.014  0.00  0.00    +0.028 A 
ATOM     24 CL   UNL     1      -8.373   4.815   1.661  0.00  0.00    -0.082 Cl
ATOM     25 CL   UNL     1      -7.023   7.161   3.217  0.00  0.00    -0.082 Cl
ENDBRANCH  12  18
BRANCH   1  27
ATOM     26  C   UNL     1      -0.541   2.161  -3.556  0.00  0.00    -0.017 C 
ATOM     27  C   UNL     1       0.117   1.427  -2.386  0.00  0.00    -0.082 C 
ENDBRANCH   1  27
TORSDOF 2
