REMARK  Name = ZINC63985862
REMARK  7 active torsions:
REMARK  status: ('A' for Active; 'I' for Inactive)
REMARK    1  A    between atoms: C_1  and  N_2
REMARK    2  A    between atoms: N_5  and  C_24
REMARK    3  A    between atoms: N_11  and  C_14
REMARK    4  A    between atoms: C_14  and  C_15
REMARK    5  A    between atoms: C_24  and  C_25
REMARK    6  A    between atoms: C_28  and  O_31
REMARK    7  A    between atoms: O_31  and  C_32
REMARK                            x       y       z     vdW  Elec       q    Type
REMARK                         _______ _______ _______ _____ _____    ______ ____
ROOT
ATOM      1  C   UNL     1      -0.371   1.696   0.025  0.00  0.00    +0.134 C 
ATOM      2  N   UNL     1      -0.227   0.243  -0.093  0.00  0.00    -0.274 N 
ATOM      3  C   UNL     1      -0.355  -0.492  -1.214  0.00  0.00    +0.312 C 
ATOM      4  O   UNL     1      -0.614  -0.022  -2.305  0.00  0.00    -0.252 OA
ATOM      5  N   UNL     1      -0.163  -1.798  -0.993  0.00  0.00    -0.220 N 
ATOM      6  C   UNL     1       0.111  -2.047   0.305  0.00  0.00    +0.247 C 
ATOM      7  O   UNL     1       0.331  -3.125   0.815  0.00  0.00    -0.273 OA
ATOM      8  C   UNL     1       0.091  -0.699   0.987  0.00  0.00    +0.112 C 
ATOM      9  C   UNL     1       1.456  -0.384   1.590  0.00  0.00    +0.017 C 
ATOM     10  C   UNL     1       1.389   0.964   2.315  0.00  0.00    -0.076 C 
ATOM     11  N   UNL     1       0.369   0.904   3.368  0.00  0.00    +0.382 N 
ATOM     12  C   UNL     1      -0.955   0.694   2.770  0.00  0.00    -0.076 C 
ATOM     13  C   UNL     1      -0.988  -0.664   2.064  0.00  0.00    +0.017 C 
ATOM     14  H   UNL     1       0.578   0.142   3.995  0.00  0.00    -0.081 HD
ENDROOT
BRANCH  11  15
ATOM     15  C   UNL     1       0.369   2.167   4.120  0.00  0.00    -0.045 C 
BRANCH  15  16
ATOM     16  C   UNL     1       1.673   2.308   4.863  0.00  0.00    -0.058 C 
ATOM     17  C   UNL     1       2.771   2.984   4.456  0.00  0.00    -0.003 A 
ATOM     18  C   UNL     1       3.070   3.760   3.247  0.00  0.00    +0.010 A 
ATOM     19  C   UNL     1       4.288   4.335   3.120  0.00  0.00    +0.001 A 
ATOM     20  C   UNL     1       5.270   4.207   4.113  0.00  0.00    +0.002 A 
ATOM     21  C   UNL     1       5.069   3.511   5.251  0.00  0.00    +0.026 A 
ATOM     22  C   UNL     1       3.825   2.865   5.490  0.00  0.00    +0.043 A 
ATOM     23  N   UNL     1       3.394   2.144   6.496  0.00  0.00    -0.380 N 
ATOM     24  C   UNL     1       2.015   1.728   6.217  0.00  0.00    +0.142 C 
ATOM     25  H   UNL     1       3.901   1.925   7.293  0.00  0.00    +0.160 HD
ENDBRANCH  15  16
ENDBRANCH  11  15
BRANCH   5  26
ATOM     26  C   UNL     1      -0.241  -2.829  -2.031  0.00  0.00    +0.153 C 
BRANCH  26  27
ATOM     27  C   UNL     1       1.120  -3.024  -2.648  0.00  0.00    -0.029 A 
ATOM     28  C   UNL     1       1.495  -2.269  -3.744  0.00  0.00    +0.009 A 
ATOM     29  C   UNL     1       2.742  -2.446  -4.312  0.00  0.00    +0.046 A 
ATOM     30  C   UNL     1       3.618  -3.383  -3.782  0.00  0.00    +0.120 A 
ATOM     31  C   UNL     1       3.239  -4.139  -2.682  0.00  0.00    +0.046 A 
ATOM     32  C   UNL     1       1.993  -3.954  -2.115  0.00  0.00    +0.009 A 
BRANCH  30  33
ATOM     33  O   UNL     1       4.845  -3.559  -4.339  0.00  0.00    -0.495 OA
ATOM     34  C   UNL     1       5.694  -4.541  -3.741  0.00  0.00    +0.277 C 
ENDBRANCH  30  33
ENDBRANCH  26  27
ENDBRANCH   5  26
TORSDOF 5
