REMARK  Name = ZINC66204895
REMARK  5 active torsions:
REMARK  status: ('A' for Active; 'I' for Inactive)
REMARK    1  A    between atoms: C_1  and  C_2
REMARK    2  A    between atoms: C_4  and  C_7
REMARK    3  A    between atoms: C_7  and  N_8
REMARK    4  A    between atoms: N_11  and  N_12
REMARK    5  A    between atoms: N_12  and  C_13
REMARK                            x       y       z     vdW  Elec       q    Type
REMARK                         _______ _______ _______ _____ _____    ______ ____
ROOT
ATOM      1  N   UNL     1       1.423  -3.567  -2.011  0.00  0.00    -0.289 N 
ATOM      2  C   UNL     1       1.679  -4.594  -2.845  0.00  0.00    +0.316 C 
ATOM      3  O   UNL     1       0.761  -5.221  -3.338  0.00  0.00    -0.251 OA
ATOM      4  N   UNL     1       2.953  -4.926  -3.133  0.00  0.00    -0.220 N 
ATOM      5  H   UNL     1       2.155  -3.067  -1.618  0.00  0.00    +0.151 HD
ATOM      6  H   UNL     1       3.138  -5.665  -3.734  0.00  0.00    +0.174 HD
ENDROOT
BRANCH   4   7
ATOM      7  N   UNL     1       4.011  -4.204  -2.566  0.00  0.00    -0.262 N 
ATOM      8  H   UNL     1       3.826  -3.465  -1.965  0.00  0.00    +0.170 HD
BRANCH   7   9
ATOM      9  C   UNL     1       5.333  -4.548  -2.865  0.00  0.00    +0.059 A 
ATOM     10  C   UNL     1       5.598  -5.602  -3.729  0.00  0.00    +0.028 A 
ATOM     11  C   UNL     1       6.905  -5.941  -4.024  0.00  0.00    +0.040 A 
ATOM     12  C   UNL     1       7.950  -5.230  -3.458  0.00  0.00    +0.125 A 
ATOM     13  C   UNL     1       7.688  -4.178  -2.596  0.00  0.00    +0.055 A 
ATOM     14  C   UNL     1       6.383  -3.833  -2.303  0.00  0.00    +0.043 A 
ATOM     15 BR   UNL     1       6.026  -2.392  -1.132  0.00  0.00    -0.048 Br
ATOM     16  F   UNL     1       9.227  -5.563  -3.747  0.00  0.00    -0.205 F 
ENDBRANCH   7   9
ENDBRANCH   4   7
BRANCH   1  17
ATOM     17  C   UNL     1       0.038  -3.206  -1.697  0.00  0.00    +0.204 C 
BRANCH  17  21
ATOM     18  C   UNL     1      -0.018   1.503   0.010  0.00  0.00    +0.091 C 
ATOM     19  C   UNL     1       0.002  -0.004   0.002  0.00  0.00    +0.169 A 
ATOM     20  N   UNL     1       0.008  -0.776  -1.091  0.00  0.00    -0.195 NA
ATOM     21  C   UNL     1       0.026  -2.034  -0.750  0.00  0.00    +0.245 A 
ATOM     22  O   UNL     1       0.033  -2.107   0.587  0.00  0.00    -0.336 OA
ATOM     23  N   UNL     1       0.023  -0.767   1.057  0.00  0.00    -0.062 NA
ENDBRANCH  17  21
ENDBRANCH   1  17
TORSDOF 4
