REMARK  Name = ZINC14924066
REMARK  9 active torsions:
REMARK  status: ('A' for Active; 'I' for Inactive)
REMARK    1  A    between atoms: C_1  and  C_2
REMARK    2  A    between atoms: C_2  and  C_4
REMARK    3  A    between atoms: C_2  and  N_14
REMARK    4  A    between atoms: N_9  and  C_10
REMARK    5  A    between atoms: C_10  and  C_11
REMARK    6  A    between atoms: C_10  and  C_12
REMARK    7  A    between atoms: C_10  and  C_13
REMARK    8  A    between atoms: N_17  and  C_20
REMARK    9  A    between atoms: C_25  and  N_26
REMARK                            x       y       z     vdW  Elec       q    Type
REMARK                         _______ _______ _______ _____ _____    ______ ____
ROOT
ATOM      1  N   UNL     1       0.690  -0.478  -1.207  0.00  0.00    -0.289 NA
ATOM      2  C   UNL     1       0.087   0.100  -2.416  0.00  0.00    +0.104 C 
ATOM      3  C   UNL     1       0.709  -0.554  -3.654  0.00  0.00    +0.120 C 
ATOM      4  N   UNL     1       2.171  -0.426  -3.566  0.00  0.00    -0.326 N 
ATOM      5  C   UNL     1       2.834  -0.858  -2.326  0.00  0.00    +0.120 C 
ATOM      6  C   UNL     1       2.129  -0.192  -1.140  0.00  0.00    +0.104 C 
ENDROOT
BRANCH   4   7
ATOM      7  C   UNL     1       2.911   0.092  -4.631  0.00  0.00    +0.060 A 
ATOM      8  C   UNL     1       3.160   1.457  -4.708  0.00  0.00    +0.025 A 
ATOM      9  C   UNL     1       3.893   1.966  -5.762  0.00  0.00    +0.002 A 
ATOM     10  C   UNL     1       4.378   1.118  -6.742  0.00  0.00    +0.002 A 
ATOM     11  C   UNL     1       4.131  -0.240  -6.669  0.00  0.00    +0.034 A 
ATOM     12  C   UNL     1       3.404  -0.757  -5.614  0.00  0.00    +0.147 A 
BRANCH  12  13
ATOM     13  N   UNL     1       3.146  -2.212  -5.534  0.00  0.00    +0.058 N 
ATOM     14  O   UNL     1       3.576  -2.950  -6.389  0.00  0.00    -0.126 OA
ATOM     15  O   UNL     1       2.506  -2.662  -4.613  0.00  0.00    -0.126 OA
ENDBRANCH  12  13
ENDBRANCH   4   7
BRANCH   1  17
ATOM     16  C   UNL     1      -0.019   1.526   0.010  0.00  0.00    +0.034 C 
ATOM     17  C   UNL     1       0.002  -0.004   0.002  0.00  0.00    +0.140 C 
BRANCH  17  18
ATOM     18  C   UNL     1      -1.412  -0.526   0.013  0.00  0.00    +0.237 C 
ATOM     19  O   UNL     1      -1.807  -1.223  -0.897  0.00  0.00    -0.274 OA
ATOM     20  N   UNL     1      -2.236  -0.217   1.033  0.00  0.00    -0.239 N 
ATOM     21  C   UNL     1      -3.501  -0.683   1.043  0.00  0.00    +0.306 C 
ATOM     22  O   UNL     1      -3.897  -1.383   0.131  0.00  0.00    -0.252 OA
ATOM     23  N   UNL     1      -4.325  -0.374   2.063  0.00  0.00    -0.294 N 
ATOM     24  H   UNL     1      -1.920   0.341   1.761  0.00  0.00    +0.159 HD
ATOM     25  H   UNL     1      -4.009   0.183   2.791  0.00  0.00    +0.151 HD
BRANCH  23  26
ATOM     26  C   UNL     1      -5.700  -0.882   2.074  0.00  0.00    +0.028 C 
ATOM     27  C   UNL     1      -5.679  -2.411   2.065  0.00  0.00    +0.031 C 
ATOM     28  C   UNL     1      -6.416  -0.388   3.332  0.00  0.00    +0.031 C 
ATOM     29  C   UNL     1      -6.440  -0.375   0.834  0.00  0.00    +0.031 C 
ENDBRANCH  23  26
ENDBRANCH  17  18
ENDBRANCH   1  17
TORSDOF 5
