REMARK  Name = ZINC40254146
REMARK  8 active torsions:
REMARK  status: ('A' for Active; 'I' for Inactive)
REMARK    1  A    between atoms: C_1  and  C_2
REMARK    2  A    between atoms: C_2  and  C_3
REMARK    3  A    between atoms: C_3  and  C_4
REMARK    4  A    between atoms: C_4  and  C_5
REMARK    5  A    between atoms: C_8  and  C_11
REMARK    6  A    between atoms: C_11  and  C_13
REMARK    7  A    between atoms: C_11  and  O_21
REMARK    8  A    between atoms: C_16  and  N_18
REMARK                            x       y       z     vdW  Elec       q    Type
REMARK                         _______ _______ _______ _____ _____    ______ ____
ROOT
ATOM      1  C   UNL     1       3.444  -3.891  -6.019  0.00  0.00    +0.210 C 
ENDROOT
BRANCH   1   5
ATOM      2  C   UNL     1       1.444  -2.513  -2.505  0.00  0.00    -0.047 A 
ATOM      3  C   UNL     1       0.726  -2.742  -3.664  0.00  0.00    +0.004 A 
ATOM      4  C   UNL     1       1.373  -3.188  -4.801  0.00  0.00    +0.007 A 
ATOM      5  C   UNL     1       2.738  -3.405  -4.780  0.00  0.00    -0.012 A 
ATOM      6  C   UNL     1       3.457  -3.175  -3.621  0.00  0.00    +0.007 A 
ATOM      7  C   UNL     1       2.810  -2.725  -2.485  0.00  0.00    +0.004 A 
BRANCH   2   8
ATOM      8  C   UNL     1       0.739  -2.027  -1.265  0.00  0.00    +0.035 C 
BRANCH   8   9
ATOM      9  C   UNL     1       0.718  -0.497  -1.257  0.00  0.00    +0.004 C 
BRANCH   9  11
ATOM     10  C   UNL     1      -0.019   1.526   0.010  0.00  0.00    +0.004 C 
ATOM     11  C   UNL     1       0.002  -0.004   0.002  0.00  0.00    -0.003 C 
ENDBRANCH   9  11
ENDBRANCH   8   9
ENDBRANCH   2   8
ENDBRANCH   1   5
BRANCH   1  12
ATOM     12  C   UNL     1       4.110  -2.728  -6.708  0.00  0.00    +0.141 A 
ATOM     13  C   UNL     1       3.586  -2.003  -7.713  0.00  0.00    +0.050 A 
ATOM     14  C   UNL     1       4.544  -1.021  -8.052  0.00  0.00    +0.076 A 
ATOM     15  C   UNL     1       5.597  -1.204  -7.234  0.00  0.00    +0.280 A 
ATOM     16  O   UNL     1       5.326  -2.236  -6.419  0.00  0.00    -0.436 OA
BRANCH  15  17
ATOM     17  N   UNL     1       6.840  -0.401  -7.230  0.00  0.00    +0.093 N 
ATOM     18  O   UNL     1       6.972   0.513  -8.011  0.00  0.00    -0.123 OA
ATOM     19  O   UNL     1       7.724  -0.658  -6.446  0.00  0.00    -0.123 OA
ENDBRANCH  15  17
ENDBRANCH   1  12
BRANCH   1  20
ATOM     20  O   UNL     1       4.430  -4.859  -5.657  0.00  0.00    -0.379 OA
ATOM     21  H   UNL     1       5.109  -4.523  -5.056  0.00  0.00    +0.211 HD
ENDBRANCH   1  20
TORSDOF 7
