REMARK  Name = ZINC54616604
REMARK  7 active torsions:
REMARK  status: ('A' for Active; 'I' for Inactive)
REMARK    1  A    between atoms: C_1  and  C_2
REMARK    2  A    between atoms: C_6  and  O_8
REMARK    3  A    between atoms: O_8  and  C_9
REMARK    4  A    between atoms: C_9  and  C_10
REMARK    5  A    between atoms: C_10  and  C_12
REMARK    6  A    between atoms: C_10  and  N_13
REMARK    7  A    between atoms: C_21  and  C_23
REMARK                            x       y       z     vdW  Elec       q    Type
REMARK                         _______ _______ _______ _____ _____    ______ ____
ROOT
ATOM      1  C   UNL     1       0.061  -4.811   3.661  0.00  0.00    +0.109 C 
ATOM      2  C   UNL     1       1.246  -4.239   4.441  0.00  0.00    +0.031 C 
ENDROOT
BRANCH   1   3
ATOM      3  N   UNL     1      -1.186  -4.475   4.351  0.00  0.00    -0.293 N 
ATOM      4  C   UNL     1      -1.634  -5.257   5.353  0.00  0.00    +0.303 C 
ATOM      5  O   UNL     1      -1.053  -6.290   5.624  0.00  0.00    -0.253 OA
ATOM      6  N   UNL     1      -2.727  -4.895   6.054  0.00  0.00    -0.278 N 
ATOM      7  C   UNL     1      -3.519  -3.717   5.667  0.00  0.00    +0.137 C 
ATOM      8  C   UNL     1      -4.993  -4.132   5.586  0.00  0.00    +0.179 C 
ATOM      9  O   UNL     1      -5.368  -4.776   6.806  0.00  0.00    -0.376 OA
ATOM     10  C   UNL     1      -4.653  -5.985   7.073  0.00  0.00    +0.182 C 
ATOM     11  C   UNL     1      -3.165  -5.668   7.227  0.00  0.00    +0.100 C 
ATOM     12  C   UNL     1      -2.369  -6.972   7.311  0.00  0.00    +0.030 C 
ATOM     13  H   UNL     1      -1.690  -3.689   4.088  0.00  0.00    +0.151 HD
ENDBRANCH   1   3
BRANCH   1  14
ATOM     14  C   UNL     1       0.042  -4.214   2.252  0.00  0.00    +0.251 C 
BRANCH  14  15
ATOM     15  O   UNL     1       0.031  -2.787   2.340  0.00  0.00    -0.490 OA
BRANCH  15  21
ATOM     16  C   UNL     1      -0.030   1.496   0.001  0.00  0.00    +0.044 C 
ATOM     17  C   UNL     1      -0.017  -0.011  -0.011  0.00  0.00    -0.047 A 
ATOM     18  C   UNL     1      -0.024  -0.693  -1.214  0.00  0.00    +0.003 A 
ATOM     19  C   UNL     1      -0.012  -2.075  -1.228  0.00  0.00    +0.004 A 
ATOM     20  C   UNL     1       0.006  -2.779  -0.039  0.00  0.00    +0.045 A 
ATOM     21  C   UNL     1       0.013  -2.097   1.169  0.00  0.00    +0.121 A 
ATOM     22  C   UNL     1       0.007  -0.710   1.181  0.00  0.00    +0.049 A 
ENDBRANCH  15  21
ENDBRANCH  14  15
ENDBRANCH   1  14
TORSDOF 4
