REMARK  Name = ZINC15899462
REMARK  8 active torsions:
REMARK  status: ('A' for Active; 'I' for Inactive)
REMARK    1  A    between atoms: C_5  and  C_6
REMARK    2  A    between atoms: N_8  and  C_9
REMARK    3  A    between atoms: C_9  and  C_10
REMARK    4  A    between atoms: N_12  and  N_13
REMARK    5  A    between atoms: N_13  and  C_14
REMARK    6  A    between atoms: C_14  and  N_16
REMARK    7  A    between atoms: N_16  and  C_17
REMARK    8  A    between atoms: C_17  and  C_18
REMARK                            x       y       z     vdW  Elec       q    Type
REMARK                         _______ _______ _______ _____ _____    ______ ____
ROOT
ATOM      1  C   UNL     1       0.738   8.057   0.039  0.00  0.00    +0.246 C 
ATOM      2  O   UNL     1      -0.466   7.909   0.049  0.00  0.00    -0.273 OA
ATOM      3  N   UNL     1       1.264   9.297   0.042  0.00  0.00    -0.234 N 
ATOM      4  H   UNL     1       2.227   9.415   0.034  0.00  0.00    +0.173 HD
ENDROOT
BRANCH   3   5
ATOM      5  N   UNL     1       0.421  10.416   0.056  0.00  0.00    -0.246 N 
ATOM      6  H   UNL     1      -0.541  10.298   0.064  0.00  0.00    +0.172 HD
BRANCH   5   7
ATOM      7  C   UNL     1       0.948  11.657   0.058  0.00  0.00    +0.147 C 
ATOM      8  S   UNL     1      -0.082  13.024   0.075  0.00  0.00    -0.017 S 
BRANCH   7   9
ATOM      9  N   UNL     1       2.286  11.821   0.047  0.00  0.00    -0.323 N 
ATOM     10  H   UNL     1       2.869  11.046   0.037  0.00  0.00    +0.148 HD
BRANCH   9  11
ATOM     11  C   UNL     1       2.858  13.169   0.049  0.00  0.00    +0.134 C 
BRANCH  11  12
ATOM     12  C   UNL     1       4.385  13.075   0.035  0.00  0.00    +0.135 C 
ATOM     13  C   UNL     1       5.012  14.481   0.163  0.00  0.00    +0.035 C 
ATOM     14  C   UNL     1       6.253  14.425  -0.756  0.00  0.00    +0.031 C 
ATOM     15  C   UNL     1       6.228  12.992  -1.331  0.00  0.00    +0.160 C 
ATOM     16  O   UNL     1       4.847  12.581  -1.241  0.00  0.00    -0.375 OA
ENDBRANCH  11  12
ENDBRANCH   9  11
ENDBRANCH   7   9
ENDBRANCH   5   7
ENDBRANCH   3   5
BRANCH   1  17
ATOM     17  C   UNL     1       1.645   6.853   0.025  0.00  0.00    +0.202 C 
BRANCH  17  20
ATOM     18  C   UNL     1       1.436   4.426   0.013  0.00  0.00    +0.280 C 
ATOM     19  O   UNL     1       2.651   4.351   0.002  0.00  0.00    -0.267 OA
ATOM     20  N   UNL     1       0.835   5.632   0.025  0.00  0.00    -0.300 N 
ATOM     21  H   UNL     1      -0.133   5.692   0.034  0.00  0.00    +0.150 HD
BRANCH  18  26
ATOM     22  C   UNL     1       1.104   1.924   0.002  0.00  0.00    +0.056 A 
ATOM     23  C   UNL     1      -0.013   1.076   0.008  0.00  0.00    +0.058 A 
ATOM     24  C   UNL     1      -1.112   1.865   0.017  0.00  0.00    +0.171 A 
ATOM     25  O   UNL     1      -0.722   3.146   0.026  0.00  0.00    -0.444 OA
ATOM     26  C   UNL     1       0.626   3.204   0.013  0.00  0.00    +0.191 A 
ATOM     27 BR   UNL     1      -2.903   1.258   0.021  0.00  0.00    -0.008 Br
ENDBRANCH  18  26
ENDBRANCH  17  20
ENDBRANCH   1  17
TORSDOF 8
