REMARK  Name = ZINC57607592
REMARK  9 active torsions:
REMARK  status: ('A' for Active; 'I' for Inactive)
REMARK    1  A    between atoms: C_1  and  C_2
REMARK    2  A    between atoms: C_6  and  C_15
REMARK    3  A    between atoms: C_13  and  C_14
REMARK    4  A    between atoms: C_15  and  N_16
REMARK    5  A    between atoms: N_16  and  C_17
REMARK    6  A    between atoms: N_16  and  C_28
REMARK    7  A    between atoms: C_17  and  C_18
REMARK    8  A    between atoms: N_22  and  C_23
REMARK    9  A    between atoms: C_28  and  C_29
REMARK                            x       y       z     vdW  Elec       q    Type
REMARK                         _______ _______ _______ _____ _____    ______ ____
ROOT
ATOM      1  N   UNL     1       1.380  -5.183  -4.010  0.00  0.00    -0.288 NA
ENDROOT
BRANCH   1   2
ATOM      2  C   UNL     1       0.033  -4.817  -3.552  0.00  0.00    +0.125 C 
BRANCH   2   8
ATOM      3  C   UNL     1       0.336   1.484   0.427  0.00  0.00    +0.044 C 
ATOM      4  C   UNL     1       0.329  -0.021   0.347  0.00  0.00    -0.047 A 
ATOM      5  C   UNL     1       0.237  -0.634  -0.870  0.00  0.00    +0.013 A 
ATOM      6  C   UNL     1       0.230  -2.031  -0.945  0.00  0.00    -0.001 A 
ATOM      7  C   UNL     1       0.133  -2.720  -2.233  0.00  0.00    +0.020 A 
ATOM      8  C   UNL     1       0.132  -4.076  -2.243  0.00  0.00    +0.031 A 
ATOM      9  C   UNL     1       0.222  -4.796  -1.032  0.00  0.00    +0.254 A 
ATOM     10  O   UNL     1       0.219  -6.015  -1.065  0.00  0.00    -0.268 OA
ATOM     11  N   UNL     1       0.312  -4.172   0.155  0.00  0.00    -0.322 N 
ATOM     12  H   UNL     1       0.373  -4.698   0.968  0.00  0.00    +0.169 HD
ATOM     13  C   UNL     1       0.318  -2.796   0.234  0.00  0.00    +0.049 A 
ATOM     14  C   UNL     1       0.410  -2.150   1.462  0.00  0.00    +0.030 A 
ATOM     15  C   UNL     1       0.421  -0.772   1.511  0.00  0.00    -0.046 A 
ATOM     16  C   UNL     1       0.528  -0.074   2.842  0.00  0.00    +0.044 C 
ENDBRANCH   2   8
ENDBRANCH   1   2
BRANCH   1  17
ATOM     17  C   UNL     1       1.315  -6.136  -5.126  0.00  0.00    +0.162 C 
BRANCH  17  18
ATOM     18  C   UNL     1       2.679  -6.733  -5.356  0.00  0.00    +0.166 A 
ATOM     19  N   UNL     1       3.644  -6.224  -6.083  0.00  0.00    -0.112 NA
ATOM     20  N   UNL     1       4.649  -7.029  -6.031  0.00  0.00    -0.023 NA
ATOM     21  N   UNL     1       4.349  -8.039  -5.290  0.00  0.00    -0.044 NA
ATOM     22  N   UNL     1       3.145  -7.891  -4.851  0.00  0.00    -0.225 N 
BRANCH  22  23
ATOM     23  C   UNL     1       2.420  -8.810  -3.971  0.00  0.00    +0.111 C 
ATOM     24  C   UNL     1       3.208  -9.022  -2.662  0.00  0.00    +0.027 C 
ATOM     25  C   UNL     1       2.983 -10.515  -2.320  0.00  0.00    +0.002 C 
ATOM     26  C   UNL     1       3.016 -11.194  -3.712  0.00  0.00    +0.002 C 
ATOM     27  C   UNL     1       2.297 -10.192  -4.638  0.00  0.00    +0.027 C 
ENDBRANCH  22  23
ENDBRANCH  17  18
ENDBRANCH   1  17
BRANCH   1  28
ATOM     28  C   UNL     1       2.152  -3.990  -4.381  0.00  0.00    +0.116 C 
BRANCH  28  29
ATOM     29  C   UNL     1       1.530  -3.345  -5.621  0.00  0.00    +0.132 C 
ATOM     30  C   UNL     1       2.423  -2.185  -6.112  0.00  0.00    +0.035 C 
ATOM     31  C   UNL     1       1.376  -1.120  -6.537  0.00  0.00    +0.031 C 
ATOM     32  C   UNL     1       0.259  -1.373  -5.494  0.00  0.00    +0.160 C 
ATOM     33  O   UNL     1       0.248  -2.797  -5.293  0.00  0.00    -0.375 OA
ENDBRANCH  28  29
ENDBRANCH   1  28
TORSDOF 7
