REMARK  Name = ZINC08435417
REMARK  9 active torsions:
REMARK  status: ('A' for Active; 'I' for Inactive)
REMARK    1  A    between atoms: C_1  and  C_2
REMARK    2  A    between atoms: C_3  and  C_21
REMARK    3  A    between atoms: C_11  and  C_13
REMARK    4  A    between atoms: C_16  and  O_19
REMARK    5  A    between atoms: O_19  and  C_20
REMARK    6  A    between atoms: C_21  and  C_23
REMARK    7  A    between atoms: C_21  and  C_29
REMARK    8  A    between atoms: C_29  and  C_31
REMARK    9  A    between atoms: C_29  and  C_33
REMARK                            x       y       z     vdW  Elec       q    Type
REMARK                         _______ _______ _______ _____ _____    ______ ____
ROOT
ATOM      1  C   UNL     1       0.095   1.608  -0.070  0.00  0.00    +0.068 C 
ATOM      2  C   UNL     1       0.080   0.102  -0.015  0.00  0.00    +0.068 A 
ATOM      3  C   UNL     1       0.035  -0.755  -1.119  0.00  0.00    +0.051 A 
ATOM      4  C   UNL     1       0.036  -2.033  -0.655  0.00  0.00    +0.279 A 
ATOM      5  O   UNL     1      -0.000  -3.161  -1.410  0.00  0.00    -0.265 OA
ATOM      6  N   UNL     1       0.079  -1.974   0.704  0.00  0.00    -0.171 N 
ATOM      7  N   UNL     1       0.111  -0.624   1.073  0.00  0.00    -0.166 NA
ATOM      8  C   UNL     1       0.094  -3.063   1.572  0.00  0.00    +0.198 A 
ATOM      9  N   UNL     1       0.076  -4.345   1.274  0.00  0.00    -0.229 NA
ATOM     10  C   UNL     1       0.095  -5.266   2.214  0.00  0.00    +0.129 A 
ATOM     11  C   UNL     1       0.134  -4.822   3.510  0.00  0.00    +0.041 A 
ATOM     12  S   UNL     1       0.147  -3.055   3.254  0.00  0.00    -0.048 S 
ENDROOT
BRANCH  11  13
ATOM     13  C   UNL     1       0.163  -5.594   4.771  0.00  0.00    -0.010 A 
ATOM     14  C   UNL     1       0.157  -6.989   4.738  0.00  0.00    +0.012 A 
ATOM     15  C   UNL     1       0.184  -7.705   5.916  0.00  0.00    +0.046 A 
ATOM     16  C   UNL     1       0.217  -7.040   7.134  0.00  0.00    +0.120 A 
ATOM     17  C   UNL     1       0.223  -5.652   7.171  0.00  0.00    +0.046 A 
ATOM     18  C   UNL     1       0.202  -4.928   5.997  0.00  0.00    +0.012 A 
BRANCH  16  19
ATOM     19  O   UNL     1       0.243  -7.749   8.293  0.00  0.00    -0.495 OA
ATOM     20  C   UNL     1       0.276  -7.001   9.511  0.00  0.00    +0.277 C 
ENDBRANCH  16  19
ENDBRANCH  11  13
BRANCH   3  21
ATOM     21  C   UNL     1      -0.005  -0.337  -2.567  0.00  0.00    +0.082 C 
BRANCH  21  22
ATOM     22  C   UNL     1       1.285  -0.730  -3.240  0.00  0.00    -0.038 A 
ATOM     23  C   UNL     1       1.585  -2.065  -3.434  0.00  0.00    +0.004 A 
ATOM     24  C   UNL     1       2.768  -2.425  -4.051  0.00  0.00    +0.000 A 
ATOM     25  C   UNL     1       3.651  -1.449  -4.474  0.00  0.00    +0.000 A 
ATOM     26  C   UNL     1       3.351  -0.114  -4.281  0.00  0.00    +0.000 A 
ATOM     27  C   UNL     1       2.165   0.246  -3.667  0.00  0.00    +0.004 A 
ENDBRANCH  21  22
BRANCH  21  28
ATOM     28  C   UNL     1      -1.177  -1.032  -3.265  0.00  0.00    +0.189 C 
BRANCH  28  29
ATOM     29  C   UNL     1      -1.218  -0.613  -4.712  0.00  0.00    +0.228 C 
ATOM     30  O   UNL     1      -2.198  -0.052  -5.154  0.00  0.00    -0.275 OA
ATOM     31  N   UNL     1      -0.165  -0.863  -5.516  0.00  0.00    -0.328 N 
ATOM     32  H   UNL     1       0.619  -1.312  -5.163  0.00  0.00    +0.145 HD
ATOM     33  H   UNL     1      -0.191  -0.594  -6.447  0.00  0.00    +0.145 HD
ENDBRANCH  28  29
BRANCH  28  34
ATOM     34  C   UNL     1      -2.437  -0.648  -2.607  0.00  0.00    +0.076 C 
ATOM     35  N   UNL     1      -3.409  -0.353  -2.100  0.00  0.00    -0.196 NA
ENDBRANCH  28  34
ENDBRANCH  21  28
ENDBRANCH   3  21
TORSDOF 7
