REMARK  Name = ZINC60280969
REMARK  6 active torsions:
REMARK  status: ('A' for Active; 'I' for Inactive)
REMARK    1  A    between atoms: C_1  and  C_2
REMARK    2  A    between atoms: C_3  and  C_11
REMARK    3  A    between atoms: C_7  and  N_8
REMARK    4  A    between atoms: C_11  and  N_12
REMARK    5  A    between atoms: C_16  and  C_17
REMARK    6  A    between atoms: C_17  and  N_18
REMARK                            x       y       z     vdW  Elec       q    Type
REMARK                         _______ _______ _______ _____ _____    ______ ____
ROOT
ATOM      1  C   UNL     1      -0.749   0.015  -2.412  0.00  0.00    +0.158 C 
ENDROOT
BRANCH   1   4
ATOM      2  C   UNL     1      -0.538   1.447   0.089  0.00  0.00    +0.046 C 
ATOM      3  C   UNL     1      -0.247  -0.031   0.040  0.00  0.00    -0.015 A 
ATOM      4  C   UNL     1      -0.347  -0.716  -1.157  0.00  0.00    -0.023 A 
ATOM      5  C   UNL     1      -0.080  -2.071  -1.202  0.00  0.00    +0.006 A 
ATOM      6  C   UNL     1       0.289  -2.742  -0.051  0.00  0.00    +0.003 A 
ATOM      7  C   UNL     1       0.390  -2.057   1.145  0.00  0.00    +0.033 A 
ATOM      8  C   UNL     1       0.127  -0.700   1.190  0.00  0.00    +0.129 A 
BRANCH   8   9
ATOM      9  N   UNL     1       0.241   0.035   2.470  0.00  0.00    +0.057 N 
ATOM     10  O   UNL     1       0.674   1.163   2.482  0.00  0.00    -0.126 OA
ATOM     11  O   UNL     1      -0.099  -0.494   3.502  0.00  0.00    -0.126 OA
ENDBRANCH   8   9
ENDBRANCH   1   4
BRANCH   1  12
ATOM     12  N   UNL     1       0.435   0.625  -3.023  0.00  0.00    -0.331 N 
ATOM     13  C   UNL     1       0.872   1.909  -2.842  0.00  0.00    +0.107 A 
ATOM     14  C   UNL     1       1.987   2.049  -3.583  0.00  0.00    +0.130 A 
ATOM     15  N   UNL     1       2.225   0.882  -4.199  0.00  0.00    -0.243 NA
ATOM     16  C   UNL     1       1.302   0.023  -3.865  0.00  0.00    +0.092 A 
BRANCH  16  17
ATOM     17  C   UNL     1       1.216  -1.404  -4.342  0.00  0.00    -0.011 C 
BRANCH  17  18
ATOM     18  N   UNL     1       0.423  -1.461  -5.577  0.00  0.00    +0.383 N 
ATOM     19  H   UNL     1      -0.506  -1.110  -5.396  0.00  0.00    -0.089 HD
ATOM     20  H   UNL     1       0.864  -0.895  -6.286  0.00  0.00    -0.089 HD
ATOM     21  H   UNL     1       0.365  -2.416  -5.896  0.00  0.00    -0.089 HD
ENDBRANCH  17  18
ENDBRANCH  16  17
ENDBRANCH   1  12
TORSDOF 5
