REMARK  Name = ZINC37065386
REMARK  4 active torsions:
REMARK  status: ('A' for Active; 'I' for Inactive)
REMARK    1  A    between atoms: N_7  and  C_12
REMARK    2  A    between atoms: C_12  and  C_13
REMARK    3  A    between atoms: C_13  and  N_14
REMARK    4  A    between atoms: C_16  and  N_21
REMARK                            x       y       z     vdW  Elec       q    Type
REMARK                         _______ _______ _______ _____ _____    ______ ____
ROOT
ATOM      1  C   UNL     1       0.057  -2.855  -0.353  0.00  0.00    +0.135 C 
ENDROOT
BRANCH   1   8
ATOM      2  C   UNL     1      -0.017   1.379   0.010  0.00  0.00    +0.002 A 
ATOM      3  C   UNL     1       1.169   2.090   0.002  0.00  0.00    +0.004 A 
ATOM      4  C   UNL     1       2.381   1.425  -0.013  0.00  0.00    +0.047 A 
ATOM      5  C   UNL     1       2.408   0.041  -0.021  0.00  0.00    +0.142 A 
ATOM      6  C   UNL     1       1.213  -0.676  -0.013  0.00  0.00    +0.078 A 
ATOM      7  C   UNL     1       0.002  -0.004   0.002  0.00  0.00    +0.027 A 
ATOM      8  N   UNL     1       1.254  -2.078  -0.024  0.00  0.00    -0.264 N 
ATOM      9  C   UNL     1       2.415  -2.700   0.275  0.00  0.00    +0.258 C 
ATOM     10  O   UNL     1       2.483  -3.911   0.242  0.00  0.00    -0.272 OA
ATOM     11  C   UNL     1       3.627  -1.885   0.649  0.00  0.00    +0.325 C 
ATOM     12  O   UNL     1       3.591  -0.630  -0.035  0.00  0.00    -0.481 OA
ENDBRANCH   1   8
BRANCH   1  13
ATOM     13  C   UNL     1       0.010  -3.104  -1.862  0.00  0.00    +0.144 C 
BRANCH  13  14
ATOM     14  N   UNL     1      -1.188  -3.881  -2.191  0.00  0.00    -0.312 N 
ATOM     15  C   UNL     1      -1.129  -5.240  -2.190  0.00  0.00    +0.111 A 
ATOM     16  C   UNL     1      -2.227  -5.980  -2.493  0.00  0.00    +0.041 A 
ATOM     17  C   UNL     1      -3.438  -5.338  -2.810  0.00  0.00    +0.029 A 
ATOM     18  C   UNL     1      -3.489  -3.975  -2.808  0.00  0.00    +0.072 A 
ATOM     19  C   UNL     1      -2.336  -3.242  -2.486  0.00  0.00    +0.251 A 
ATOM     20  O   UNL     1      -2.373  -2.021  -2.477  0.00  0.00    -0.268 OA
BRANCH  16  21
ATOM     21  N   UNL     1      -2.154  -7.381  -2.489  0.00  0.00    -0.357 N 
ATOM     22  H   UNL     1      -1.319  -7.823  -2.271  0.00  0.00    +0.142 HD
ATOM     23  H   UNL     1      -2.939  -7.909  -2.705  0.00  0.00    +0.142 HD
ENDBRANCH  16  21
ENDBRANCH  13  14
ENDBRANCH   1  13
TORSDOF 4
