REMARK  Name = ZINC24786819
REMARK  10 active torsions:
REMARK  status: ('A' for Active; 'I' for Inactive)
REMARK    1  A    between atoms: C_1  and  C_2
REMARK    2  A    between atoms: C_2  and  C_3
REMARK    3  A    between atoms: C_2  and  C_4
REMARK    4  A    between atoms: C_4  and  N_5
REMARK    5  A    between atoms: C_6  and  N_31
REMARK    6  A    between atoms: C_7  and  C_14
REMARK    7  A    between atoms: C_14  and  C_16
REMARK    8  A    between atoms: C_16  and  S_17
REMARK    9  A    between atoms: S_17  and  C_18
REMARK   10  A    between atoms: C_21  and  C_24
REMARK                            x       y       z     vdW  Elec       q    Type
REMARK                         _______ _______ _______ _____ _____    ______ ____
ROOT
ATOM      1  C   UNL     1       2.213  -8.332  -0.067  0.00  0.00    +0.182 C 
ATOM      2  O   UNL     1       3.422  -8.449  -0.071  0.00  0.00    -0.291 OA
ENDROOT
BRANCH   1   5
ATOM      3  N   UNL     1       1.110 -11.847  -0.171  0.00  0.00    -0.281 N 
ATOM      4  C   UNL     1       1.945 -10.767  -0.185  0.00  0.00    +0.116 A 
ATOM      5  C   UNL     1       1.393  -9.480  -0.063  0.00  0.00    +0.120 A 
ATOM      6  C   UNL     1      -0.066  -9.368   0.062  0.00  0.00    +0.266 A 
ATOM      7  O   UNL     1      -0.599  -8.278   0.166  0.00  0.00    -0.267 OA
ATOM      8  N   UNL     1      -0.804 -10.498   0.060  0.00  0.00    -0.274 N 
ATOM      9  H   UNL     1      -1.898 -10.440   0.152  0.00  0.00    +0.173 HD
ATOM     10  C   UNL     1      -0.219 -11.701  -0.054  0.00  0.00    +0.331 A 
ATOM     11  O   UNL     1      -0.919 -12.695  -0.052  0.00  0.00    -0.246 OA
BRANCH   4  12
ATOM     12  N   UNL     1       3.289 -10.933  -0.309  0.00  0.00    -0.344 N 
ATOM     13  H   UNL     1       3.954 -10.056  -0.320  0.00  0.00    +0.144 HD
ATOM     14  H   UNL     1       3.712 -11.944  -0.400  0.00  0.00    +0.144 HD
ENDBRANCH   4  12
BRANCH   3  15
ATOM     15  C   UNL     1       1.676 -13.193  -0.291  0.00  0.00    +0.131 C 
BRANCH  15  17
ATOM     16  C   UNL     1       2.746 -12.662  -2.486  0.00  0.00    +0.009 C 
ATOM     17  C   UNL     1       1.756 -13.583  -1.768  0.00  0.00    +0.003 C 
ATOM     18  C   UNL     1       2.230 -15.032  -1.889  0.00  0.00    +0.009 C 
ENDBRANCH  15  17
ENDBRANCH   3  15
ENDBRANCH   1   5
BRANCH   1  19
ATOM     19  C   UNL     1       1.590  -6.960  -0.065  0.00  0.00    +0.157 C 
BRANCH  19  20
ATOM     20  S   UNL     1       2.894  -5.704  -0.070  0.00  0.00    -0.078 S 
BRANCH  20  21
ATOM     21  C   UNL     1       1.911  -4.242  -0.068  0.00  0.00    +0.185 A 
ATOM     22  N   UNL     1       2.372  -2.956  -0.070  0.00  0.00    -0.201 NA
ATOM     23  H   UNL     1      -0.143  -4.998  -0.064  0.00  0.00    +0.191 HD
ATOM     24  C   UNL     1       1.250  -2.160  -0.068  0.00  0.00    +0.183 A 
ATOM     25  N   UNL     1       0.209  -2.960  -0.058  0.00  0.00    -0.152 NA
ATOM     26  N   UNL     1       0.598  -4.185  -0.064  0.00  0.00    -0.253 N 
BRANCH  24  27
ATOM     27  C   UNL     1       1.221  -0.682  -0.074  0.00  0.00    +0.035 A 
ATOM     28  C   UNL     1       2.415   0.042  -0.077  0.00  0.00    +0.013 A 
ATOM     29  C   UNL     1       2.381   1.421  -0.084  0.00  0.00    +0.001 A 
ATOM     30  C   UNL     1       1.168   2.087  -0.087  0.00  0.00    +0.001 A 
ATOM     31  C   UNL     1      -0.018   1.377  -0.084  0.00  0.00    +0.016 A 
ATOM     32  C   UNL     1       0.001  -0.004  -0.078  0.00  0.00    +0.029 A 
ATOM     33 BR   UNL     1      -1.623  -0.974  -0.074  0.00  0.00    -0.050 Br
ENDBRANCH  24  27
ENDBRANCH  20  21
ENDBRANCH  19  20
ENDBRANCH   1  19
TORSDOF 8
