REMARK  Name = ZINC05371517
REMARK  12 active torsions:
REMARK  status: ('A' for Active; 'I' for Inactive)
REMARK    1  A    between atoms: C_1  and  C_2
REMARK    2  A    between atoms: C_2  and  C_3
REMARK    3  A    between atoms: C_2  and  O_4
REMARK    4  A    between atoms: O_4  and  C_5
REMARK    5  A    between atoms: C_5  and  C_6
REMARK    6  A    between atoms: C_6  and  C_8
REMARK    7  A    between atoms: C_8  and  O_34
REMARK    8  A    between atoms: C_12  and  O_29
REMARK    9  A    between atoms: C_15  and  O_16
REMARK   10  A    between atoms: C_23  and  O_27
REMARK   11  A    between atoms: O_27  and  C_28
REMARK   12  A    between atoms: C_30  and  O_33
REMARK                            x       y       z     vdW  Elec       q    Type
REMARK                         _______ _______ _______ _____ _____    ______ ____
ROOT
ATOM      1  C   UNL     1       5.096  -7.012  -0.509  0.00  0.00    +0.133 C 
ATOM      2  C   UNL     1       3.756  -6.435  -0.058  0.00  0.00    +0.082 C 
ATOM      3  C   UNL     1       3.797  -4.929  -0.060  0.00  0.00    +0.007 A 
ATOM      4  C   UNL     1       4.974  -4.222  -0.073  0.00  0.00    +0.030 A 
ATOM      5  C   UNL     1       4.952  -2.821  -0.065  0.00  0.00    +0.134 A 
ATOM      6  C   UNL     1       3.741  -2.132  -0.046  0.00  0.00    +0.078 A 
ATOM      7  C   UNL     1       2.533  -2.857  -0.037  0.00  0.00    +0.078 A 
ATOM      8  C   UNL     1       2.571  -4.251  -0.044  0.00  0.00    +0.132 A 
ATOM      9  C   UNL     1       1.244  -2.144  -0.020  0.00  0.00    +0.198 C 
ATOM     10  O   UNL     1       0.202  -2.769  -0.012  0.00  0.00    -0.286 OA
ATOM     11  C   UNL     1       1.222  -0.666  -0.010  0.00  0.00    +0.037 A 
ATOM     12  C   UNL     1       0.011   0.017   0.009  0.00  0.00    +0.012 A 
ATOM     13  C   UNL     1      -0.005   1.403   0.017  0.00  0.00    +0.004 A 
ATOM     14  C   UNL     1       1.176   2.117   0.007  0.00  0.00    +0.046 A 
ATOM     15  C   UNL     1       2.399   1.454  -0.011  0.00  0.00    +0.132 A 
ATOM     16  C   UNL     1       2.430   0.056  -0.019  0.00  0.00    +0.075 A 
ATOM     17  C   UNL     1       3.719  -0.659  -0.037  0.00  0.00    +0.202 C 
ATOM     18  O   UNL     1       4.762  -0.034  -0.045  0.00  0.00    -0.286 OA
ATOM     19  C   UNL     1       6.323  -4.894  -0.106  0.00  0.00    +0.152 C 
ATOM     20  C   UNL     1       6.207  -6.356   0.319  0.00  0.00    +0.079 C 
ENDROOT
BRANCH   1  21
ATOM     21  C   UNL     1       5.109  -8.502  -0.287  0.00  0.00    +0.190 C 
ATOM     22  O   UNL     1       5.500  -8.953   0.763  0.00  0.00    -0.292 OA
BRANCH  21  23
ATOM     23  C   UNL     1       4.633  -9.431  -1.374  0.00  0.00    +0.237 C 
BRANCH  23  24
ATOM     24  O   UNL     1       4.741 -10.783  -0.927  0.00  0.00    -0.370 OA
BRANCH  24  26
ATOM     25  C   UNL     1       5.500 -12.162  -2.761  0.00  0.00    +0.037 C 
ATOM     26  C   UNL     1       4.312 -11.750  -1.888  0.00  0.00    +0.113 C 
ATOM     27  C   UNL     1       3.759 -12.979  -1.165  0.00  0.00    +0.037 C 
ENDBRANCH  24  26
ENDBRANCH  23  24
ENDBRANCH  21  23
ENDBRANCH   1  21
BRANCH   8  28
ATOM     28  O   UNL     1       1.413  -4.956  -0.035  0.00  0.00    -0.506 OA
ATOM     29  H   UNL     1       1.086  -5.164   0.851  0.00  0.00    +0.292 HD
ENDBRANCH   8  28
BRANCH  15  30
ATOM     30  O   UNL     1       3.557   2.161  -0.021  0.00  0.00    -0.494 OA
ATOM     31  C   UNL     1       3.447   3.586  -0.012  0.00  0.00    +0.277 C 
ENDBRANCH  15  30
BRANCH   5  32
ATOM     32  O   UNL     1       6.119  -2.131  -0.074  0.00  0.00    -0.506 OA
ATOM     33  H   UNL     1       6.426  -1.866   0.804  0.00  0.00    +0.292 HD
ENDBRANCH   5  32
BRANCH  19  34
ATOM     34  O   UNL     1       7.209  -4.213   0.785  0.00  0.00    -0.387 OA
ATOM     35  H   UNL     1       8.119  -4.538   0.759  0.00  0.00    +0.210 HD
ENDBRANCH  19  34
BRANCH   1  36
ATOM     36  O   UNL     1       5.299  -6.730  -1.895  0.00  0.00    -0.381 OA
ATOM     37  H   UNL     1       4.621  -7.102  -2.476  0.00  0.00    +0.211 HD
ENDBRANCH   1  36
TORSDOF 9
