REMARK  Name = ZINC04575270
REMARK  5 active torsions:
REMARK  status: ('A' for Active; 'I' for Inactive)
REMARK    1  A    between atoms: C_1  and  C_2
REMARK    2  A    between atoms: C_4  and  N_15
REMARK    3  A    between atoms: N_5  and  C_7
REMARK    4  A    between atoms: C_7  and  C_9
REMARK    5  A    between atoms: C_7  and  C_10
REMARK                            x       y       z     vdW  Elec       q    Type
REMARK                         _______ _______ _______ _____ _____    ______ ____
ROOT
ATOM      1  C   UNL     1       3.579  -0.750  -3.441  0.00  0.00    +0.067 C 
ATOM      2  C   UNL     1       2.268  -0.790  -2.699  0.00  0.00    +0.062 A 
ATOM      3  C   UNL     1       1.116  -1.468  -3.108  0.00  0.00    +0.067 A 
ATOM      4  C   UNL     1       0.153  -1.259  -2.168  0.00  0.00    +0.115 A 
ATOM      5  N   UNL     1       0.688  -0.476  -1.203  0.00  0.00    -0.241 N 
ATOM      6  N   UNL     1       2.011  -0.192  -1.563  0.00  0.00    -0.174 NA
ENDROOT
BRANCH   4   7
ATOM      7  N   UNL     1      -1.145  -1.761  -2.195  0.00  0.00    -0.343 N 
ATOM      8  H   UNL     1      -1.760  -1.555  -1.473  0.00  0.00    +0.144 HD
ATOM      9  H   UNL     1      -1.435  -2.317  -2.935  0.00  0.00    +0.144 HD
ENDBRANCH   4   7
BRANCH   5  10
ATOM     10  C   UNL     1       0.002  -0.004   0.002  0.00  0.00    +0.172 C 
ATOM     11  C   UNL     1      -0.019   1.526   0.010  0.00  0.00    +0.041 C 
BRANCH  10  12
ATOM     12  C   UNL     1       0.731  -0.503   1.223  0.00  0.00    +0.129 A 
ATOM     13  C   UNL     1       0.212  -1.292   2.181  0.00  0.00    +0.047 A 
ATOM     14  C   UNL     1       1.237  -1.513   3.129  0.00  0.00    +0.041 A 
ATOM     15  C   UNL     1       2.321  -0.846   2.694  0.00  0.00    +0.195 A 
ATOM     16  O   UNL     1       2.010  -0.241   1.536  0.00  0.00    -0.466 OA
ENDBRANCH  10  12
ENDBRANCH   5  10
TORSDOF 3
