REMARK  Name = ZINC50510717
REMARK  5 active torsions:
REMARK  status: ('A' for Active; 'I' for Inactive)
REMARK    1  A    between atoms: C_4  and  O_7
REMARK    2  A    between atoms: O_7  and  C_8
REMARK    3  A    between atoms: C_8  and  C_9
REMARK    4  A    between atoms: N_17  and  C_18
REMARK    5  A    between atoms: C_18  and  C_19
REMARK                            x       y       z     vdW  Elec       q    Type
REMARK                         _______ _______ _______ _____ _____    ______ ____
ROOT
ATOM      1  C   UNL     1       4.932  -2.615  -0.061  0.00  0.00    +0.149 A 
ATOM      2  N   UNL     1       5.616  -2.879  -1.136  0.00  0.00    -0.229 NA
ATOM      3  C   UNL     1       6.836  -3.366  -0.793  0.00  0.00    +0.089 A 
ATOM      4  C   UNL     1       7.942  -3.800  -1.528  0.00  0.00    +0.030 A 
ATOM      5  C   UNL     1       9.058  -4.248  -0.879  0.00  0.00    +0.002 A 
ATOM      6  C   UNL     1       9.107  -4.277   0.507  0.00  0.00    +0.002 A 
ATOM      7  C   UNL     1       8.027  -3.853   1.253  0.00  0.00    +0.028 A 
ATOM      8  C   UNL     1       6.885  -3.395   0.611  0.00  0.00    +0.069 A 
ATOM      9  N   UNL     1       5.668  -2.909   1.045  0.00  0.00    -0.317 N 
ENDROOT
BRANCH   1  10
ATOM     10  C   UNL     1       3.531  -2.060  -0.044  0.00  0.00    +0.303 C 
BRANCH  10  11
ATOM     11  O   UNL     1       3.586  -0.632  -0.037  0.00  0.00    -0.484 OA
BRANCH  11  15
ATOM     12  C   UNL     1      -0.017   1.378   0.010  0.00  0.00    +0.000 A 
ATOM     13  C   UNL     1       1.170   2.088   0.002  0.00  0.00    +0.004 A 
ATOM     14  C   UNL     1       2.377   1.417  -0.013  0.00  0.00    +0.045 A 
ATOM     15  C   UNL     1       2.399   0.030  -0.021  0.00  0.00    +0.121 A 
ATOM     16  C   UNL     1       1.207  -0.680  -0.013  0.00  0.00    +0.045 A 
ATOM     17  C   UNL     1       0.002  -0.004   0.002  0.00  0.00    +0.004 A 
ENDBRANCH  11  15
ENDBRANCH  10  11
ENDBRANCH   1  10
BRANCH   9  18
ATOM     18  C   UNL     1       5.246  -2.743   2.438  0.00  0.00    +0.200 C 
BRANCH  18  19
ATOM     19  C   UNL     1       4.577  -4.006   2.914  0.00  0.00    +0.156 A 
ATOM     20  N   UNL     1       3.273  -4.159   2.763  0.00  0.00    -0.198 NA
ATOM     21  C   UNL     1       2.679  -5.274   3.182  0.00  0.00    +0.217 A 
ATOM     22  N   UNL     1       3.399  -6.234   3.753  0.00  0.00    -0.181 NA
ATOM     23  C   UNL     1       4.710  -6.076   3.904  0.00  0.00    +0.217 A 
ATOM     24  N   UNL     1       5.297  -4.961   3.477  0.00  0.00    -0.198 NA
ATOM     25  N   UNL     1       5.462  -7.070   4.496  0.00  0.00    -0.327 N 
ATOM     26  N   UNL     1       1.318  -5.433   3.024  0.00  0.00    -0.327 N 
ATOM     27  H   UNL     1       5.033  -7.885   4.803  0.00  0.00    +0.145 HD
ATOM     28  H   UNL     1       6.418  -6.954   4.606  0.00  0.00    +0.145 HD
ATOM     29  H   UNL     1       0.793  -4.732   2.607  0.00  0.00    +0.145 HD
ATOM     30  H   UNL     1       0.886  -6.246   3.330  0.00  0.00    +0.145 HD
ENDBRANCH  18  19
ENDBRANCH   9  18
TORSDOF 5
