REMARK  Name = ZINC39111962
REMARK  2 active torsions:
REMARK  status: ('A' for Active; 'I' for Inactive)
REMARK    1  A    between atoms: C_5  and  O_16
REMARK    2  A    between atoms: C_11  and  O_13
REMARK                            x       y       z     vdW  Elec       q    Type
REMARK                         _______ _______ _______ _____ _____    ______ ____
ROOT
ATOM      1  C   UNL     1      -0.019   1.537   0.011  0.00  0.00    +0.044 C 
ATOM      2  C   UNL     1       1.470   1.950  -0.002  0.00  0.00    +0.031 C 
ATOM      3  C   UNL     1       1.617   3.247  -0.827  0.00  0.00    +0.067 C 
ATOM      4  C   UNL     1       1.872   2.764  -2.267  0.00  0.00    +0.248 C 
ATOM      5  O   UNL     1       1.796   1.331  -2.259  0.00  0.00    -0.342 OA
ATOM      6  C   UNL     1       2.129   0.869  -0.911  0.00  0.00    +0.196 C 
ATOM      7  C   UNL     1       1.355  -0.423  -0.596  0.00  0.00    +0.300 C 
ATOM      8  C   UNL     1       0.002  -0.004   0.002  0.00  0.00    +0.186 C 
ATOM      9  F   UNL     1       1.150  -1.155  -1.771  0.00  0.00    -0.200 F 
ATOM     10  F   UNL     1       2.067  -1.193   0.330  0.00  0.00    -0.200 F 
ENDROOT
BRANCH   8  11
ATOM     11  O   UNL     1      -1.066  -0.503  -0.806  0.00  0.00    -0.386 OA
ATOM     12  H   UNL     1      -1.107  -1.468  -0.851  0.00  0.00    +0.210 HD
ENDBRANCH   8  11
BRANCH   4  13
ATOM     13  O   UNL     1       0.877   3.301  -3.142  0.00  0.00    -0.367 OA
ATOM     14  H   UNL     1       0.981   3.034  -4.066  0.00  0.00    +0.212 HD
ENDBRANCH   4  13
TORSDOF 2
