REMARK  Name = ZINC03637696
REMARK  14 active torsions:
REMARK  status: ('A' for Active; 'I' for Inactive)
REMARK    1  A    between atoms: C_1  and  C_2
REMARK    2  A    between atoms: C_2  and  C_3
REMARK    3  A    between atoms: C_4  and  C_14
REMARK    4  A    between atoms: N_16  and  N_17
REMARK    5  A    between atoms: C_18  and  C_19
REMARK    6  A    between atoms: C_21  and  C_30
REMARK    7  A    between atoms: C_22  and  O_29
REMARK    8  A    between atoms: C_23  and  C_25
REMARK    9  A    between atoms: C_25  and  C_26
REMARK   10  A    between atoms: C_25  and  C_27
REMARK   11  A    between atoms: C_25  and  C_28
REMARK   12  A    between atoms: C_30  and  C_31
REMARK   13  A    between atoms: C_30  and  C_32
REMARK   14  A    between atoms: C_30  and  C_33
REMARK                            x       y       z     vdW  Elec       q    Type
REMARK                         _______ _______ _______ _____ _____    ______ ____
ROOT
ATOM      1  C   UNL     1       1.100   7.350   0.067  0.00  0.00    +0.285 C 
ATOM      2  O   UNL     1       0.213   8.182   0.076  0.00  0.00    -0.267 OA
ATOM      3  N   UNL     1       2.390   7.740   0.067  0.00  0.00    -0.202 N 
ATOM      4  H   UNL     1       3.192   6.988   0.058  0.00  0.00    +0.178 HD
ENDROOT
BRANCH   1   6
ATOM      5  C   UNL     1      -0.497   5.389   0.046  0.00  0.00    +0.079 A 
ATOM      6  C   UNL     1       0.764   5.914   0.053  0.00  0.00    +0.172 A 
ATOM      7  N   UNL     1       1.647   4.901   0.041  0.00  0.00    -0.124 NA
ATOM      8  N   UNL     1       1.016   3.778   0.032  0.00  0.00    -0.058 NA
ATOM      9  N   UNL     1      -0.360   4.045   0.038  0.00  0.00    -0.192 N 
ATOM     10  C   UNL     1      -1.393   3.100   0.031  0.00  0.00    +0.240 A 
ATOM     11  C   UNL     1      -1.224   1.645   0.017  0.00  0.00    +0.206 A 
ATOM     12  N   UNL     1      -2.408   1.094   0.020  0.00  0.00    -0.032 NA
ATOM     13  O   UNL     1      -3.369   2.134   0.031  0.00  0.00    -0.239 OA
ATOM     14  N   UNL     1      -2.669   3.366   0.034  0.00  0.00    -0.027 NA
ATOM     15  N   UNL     1      -0.011   0.966   0.007  0.00  0.00    -0.337 N 
ATOM     16  H   UNL     1       0.004  -0.134  -0.003  0.00  0.00    +0.144 HD
ATOM     17  H   UNL     1       0.934   1.529   0.011  0.00  0.00    +0.144 HD
BRANCH   5  19
ATOM     18  C   UNL     1      -2.231   6.413   1.494  0.00  0.00    +0.010 C 
ATOM     19  C   UNL     1      -1.792   6.161   0.050  0.00  0.00    +0.054 C 
ENDBRANCH   5  19
ENDBRANCH   1   6
BRANCH   3  20
ATOM     20  N   UNL     1       2.709   9.105   0.080  0.00  0.00    -0.187 NA
ATOM     21  C   UNL     1       3.951   9.480   0.081  0.00  0.00    +0.138 C 
BRANCH  21  22
ATOM     22  C   UNL     1       4.287  10.916   0.094  0.00  0.00    -0.005 A 
ATOM     23  C   UNL     1       3.269  11.874   0.099  0.00  0.00    +0.017 A 
ATOM     24  C   UNL     1       3.588  13.214   0.117  0.00  0.00    +0.000 A 
ATOM     25  C   UNL     1       4.918  13.614   0.118  0.00  0.00    +0.124 A 
ATOM     26  C   UNL     1       5.933  12.666   0.107  0.00  0.00    +0.000 A 
ATOM     27  C   UNL     1       5.624  11.323   0.095  0.00  0.00    +0.017 A 
BRANCH  26  28
ATOM     28  C   UNL     1       7.374  13.106   0.108  0.00  0.00    -0.009 C 
ATOM     29  C   UNL     1       8.284  11.876   0.094  0.00  0.00    +0.015 C 
ATOM     30  C   UNL     1       7.649  13.957  -1.134  0.00  0.00    +0.015 C 
ATOM     31  C   UNL     1       7.654  13.933   1.365  0.00  0.00    +0.015 C 
ENDBRANCH  26  28
BRANCH  24  32
ATOM     32  C   UNL     1       2.492  14.248   0.128  0.00  0.00    -0.009 C 
ATOM     33  C   UNL     1       1.131  13.549   0.124  0.00  0.00    +0.015 C 
ATOM     34  C   UNL     1       2.618  15.111   1.385  0.00  0.00    +0.015 C 
ATOM     35  C   UNL     1       2.613  15.134  -1.113  0.00  0.00    +0.015 C 
ENDBRANCH  24  32
BRANCH  25  36
ATOM     36  O   UNL     1       5.228  14.937   0.129  0.00  0.00    -0.506 OA
ATOM     37  H   UNL     1       6.281  15.255   0.130  0.00  0.00    +0.292 HD
ENDBRANCH  25  36
ENDBRANCH  21  22
ENDBRANCH   3  20
TORSDOF 7
