REMARK  Name = ZINC21056764
REMARK  11 active torsions:
REMARK  status: ('A' for Active; 'I' for Inactive)
REMARK    1  A    between atoms: C_1  and  C_2
REMARK    2  A    between atoms: C_2  and  C_3
REMARK    3  A    between atoms: C_2  and  C_4
REMARK    4  A    between atoms: C_4  and  N_5
REMARK    5  A    between atoms: C_6  and  N_26
REMARK    6  A    between atoms: C_7  and  N_14
REMARK    7  A    between atoms: N_14  and  C_15
REMARK    8  A    between atoms: C_15  and  C_16
REMARK    9  A    between atoms: C_16  and  C_17
REMARK   10  A    between atoms: C_16  and  C_18
REMARK   11  A    between atoms: C_19  and  C_21
REMARK                            x       y       z     vdW  Elec       q    Type
REMARK                         _______ _______ _______ _____ _____    ______ ____
ROOT
ATOM      1  N   UNL     1      -1.195   2.978  -0.430  0.00  0.00    -0.280 N 
ATOM      2  C   UNL     1      -0.083   3.783  -0.348  0.00  0.00    +0.127 A 
ATOM      3  C   UNL     1       1.153   3.205  -0.138  0.00  0.00    +0.140 A 
ATOM      4  C   UNL     1       1.236   1.805  -0.013  0.00  0.00    +0.277 A 
ATOM      5  O   UNL     1       2.315   1.269   0.174  0.00  0.00    -0.266 OA
ATOM      6  N   UNL     1       0.115   1.062  -0.101  0.00  0.00    -0.273 N 
ATOM      7  H   UNL     1       0.171  -0.032  -0.001  0.00  0.00    +0.173 HD
ATOM      8  C   UNL     1      -1.079   1.643  -0.312  0.00  0.00    +0.331 A 
ATOM      9  O   UNL     1      -2.074   0.948  -0.392  0.00  0.00    -0.246 OA
ENDROOT
BRANCH   3  10
ATOM     10  N   UNL     1       2.312   4.003  -0.048  0.00  0.00    -0.257 N 
ATOM     11  C   UNL     1       3.242   3.953  -1.023  0.00  0.00    +0.286 C 
ATOM     12  O   UNL     1       4.277   4.583  -0.910  0.00  0.00    -0.266 OA
BRANCH  11  13
ATOM     13  C   UNL     1       3.005   3.140  -2.220  0.00  0.00    +0.190 A 
ATOM     14  C   UNL     1       3.890   2.938  -3.241  0.00  0.00    +0.054 A 
ATOM     15  C   UNL     1       3.251   2.101  -4.169  0.00  0.00    +0.042 A 
ATOM     16  C   UNL     1       2.020   1.833  -3.682  0.00  0.00    +0.196 A 
ATOM     17  O   UNL     1       1.878   2.456  -2.504  0.00  0.00    -0.458 OA
ENDBRANCH  11  13
BRANCH  10  18
ATOM     18  C   UNL     1       2.506   4.887   1.104  0.00  0.00    +0.117 C 
BRANCH  18  19
ATOM     19  C   UNL     1       3.132   4.095   2.254  0.00  0.00    +0.001 C 
ATOM     20  C   UNL     1       4.543   3.653   1.860  0.00  0.00    +0.009 C 
ATOM     21  C   UNL     1       3.204   4.978   3.501  0.00  0.00    +0.009 C 
ENDBRANCH  18  19
ENDBRANCH  10  18
ENDBRANCH   3  10
BRANCH   2  22
ATOM     22  N   UNL     1      -0.200   5.146  -0.474  0.00  0.00    -0.343 N 
ATOM     23  H   UNL     1       0.694   5.784  -0.407  0.00  0.00    +0.144 HD
ATOM     24  H   UNL     1      -1.188   5.600  -0.641  0.00  0.00    +0.144 HD
ENDBRANCH   2  22
BRANCH   1  25
ATOM     25  C   UNL     1      -2.513   3.577  -0.653  0.00  0.00    +0.131 C 
BRANCH  25  27
ATOM     26  C   UNL     1      -2.874   2.262  -2.746  0.00  0.00    +0.009 C 
ATOM     27  C   UNL     1      -2.783   3.671  -2.156  0.00  0.00    +0.003 C 
ATOM     28  C   UNL     1      -4.102   4.409  -2.393  0.00  0.00    +0.009 C 
ENDBRANCH  25  27
ENDBRANCH   1  25
TORSDOF 7
