REMARK  Name = ZINC51583380
REMARK  7 active torsions:
REMARK  status: ('A' for Active; 'I' for Inactive)
REMARK    1  A    between atoms: C_1  and  C_2
REMARK    2  A    between atoms: C_2  and  C_3
REMARK    3  A    between atoms: C_3  and  C_4
REMARK    4  A    between atoms: C_4  and  C_6
REMARK    5  A    between atoms: C_4  and  N_7
REMARK    6  A    between atoms: C_8  and  C_10
REMARK    7  A    between atoms: N_19  and  C_20
REMARK                            x       y       z     vdW  Elec       q    Type
REMARK                         _______ _______ _______ _____ _____    ______ ____
ROOT
ATOM      1  C   UNL     1       0.015  -4.603  -2.940  0.00  0.00    +0.092 C 
ATOM      2  C   UNL     1       0.802  -5.873  -2.610  0.00  0.00    +0.016 C 
ATOM      3  C   UNL     1       1.620  -6.299  -3.832  0.00  0.00    +0.020 C 
ATOM      4  C   UNL     1       2.617  -5.191  -4.186  0.00  0.00    +0.109 C 
ATOM      5  N   UNL     1       1.881  -3.932  -4.362  0.00  0.00    -0.285 N 
ATOM      6  C   UNL     1       0.993  -3.475  -3.284  0.00  0.00    +0.122 C 
ATOM      7  C   UNL     1       2.018  -3.209  -5.491  0.00  0.00    +0.307 C 
ATOM      8  O   UNL     1       1.335  -2.218  -5.665  0.00  0.00    -0.252 OA
ATOM      9  N   UNL     1       2.912  -3.584  -6.427  0.00  0.00    -0.267 N 
ATOM     10  H   UNL     1       3.410  -4.409  -6.319  0.00  0.00    +0.156 HD
ENDROOT
BRANCH   9  11
ATOM     11  C   UNL     1       3.122  -2.781  -7.557  0.00  0.00    +0.073 A 
ATOM     12  C   UNL     1       2.714  -1.455  -7.553  0.00  0.00    +0.029 A 
ATOM     13  C   UNL     1       2.921  -0.664  -8.667  0.00  0.00    +0.043 A 
ATOM     14  C   UNL     1       3.535  -1.193  -9.789  0.00  0.00    +0.161 A 
ATOM     15  C   UNL     1       3.944  -2.518  -9.798  0.00  0.00    +0.195 A 
ATOM     16  C   UNL     1       3.744  -3.312  -8.681  0.00  0.00    +0.182 A 
ATOM     17  F   UNL     1       4.147  -4.601  -8.687  0.00  0.00    -0.200 F 
ATOM     18  F   UNL     1       4.543  -3.033 -10.895  0.00  0.00    -0.199 F 
ATOM     19  F   UNL     1       3.735  -0.418 -10.877  0.00  0.00    -0.202 F 
ENDBRANCH   9  11
BRANCH   1  21
ATOM     20  N   UNL     1      -1.594  -3.104  -1.807  0.00  0.00    -0.312 N 
ATOM     21  C   UNL     1      -0.815  -4.202  -1.747  0.00  0.00    +0.218 C 
ATOM     22  O   UNL     1      -0.781  -4.868  -0.734  0.00  0.00    -0.275 OA
ATOM     23  H   UNL     1      -1.621  -2.572  -2.617  0.00  0.00    +0.149 HD
BRANCH  20  24
ATOM     24  C   UNL     1      -2.401  -2.715  -0.648  0.00  0.00    +0.070 C 
ATOM     25  C   UNL     1      -3.727  -3.478  -0.670  0.00  0.00    +0.028 C 
BRANCH  24  26
ATOM     26  C   UNL     1      -2.677  -1.211  -0.701  0.00  0.00    +0.022 C 
BRANCH  26  28
ATOM     27  C   UNL     1      -1.636   1.059  -0.606  0.00  0.00    +0.004 C 
ATOM     28  C   UNL     1      -1.360  -0.445  -0.553  0.00  0.00    -0.002 C 
ENDBRANCH  26  28
ENDBRANCH  24  26
ENDBRANCH  20  24
ENDBRANCH   1  21
TORSDOF 5
