REMARK  Name = ZINC39958886
REMARK  7 active torsions:
REMARK  status: ('A' for Active; 'I' for Inactive)
REMARK    1  A    between atoms: C_1  and  C_2
REMARK    2  A    between atoms: C_2  and  C_3
REMARK    3  A    between atoms: C_2  and  N_4
REMARK    4  A    between atoms: C_5  and  C_7
REMARK    5  A    between atoms: C_7  and  N_8
REMARK    6  A    between atoms: C_9  and  C_11
REMARK    7  A    between atoms: C_14  and  C_17
REMARK                            x       y       z     vdW  Elec       q    Type
REMARK                         _______ _______ _______ _____ _____    ______ ____
ROOT
ATOM      1  C   UNL     1      -4.286  -5.642  -1.769  0.00  0.00    +0.378 C 
ATOM      2  N   UNL     1      -3.991  -5.576  -3.209  0.00  0.00    -0.282 N 
ATOM      3  C   UNL     1      -2.842  -6.315  -3.417  0.00  0.00    +0.168 C 
ATOM      4  N   UNL     1      -2.402  -6.817  -2.310  0.00  0.00    -0.066 NA
ATOM      5  O   UNL     1      -3.236  -6.455  -1.222  0.00  0.00    -0.360 OA
ATOM      6  H   UNL     1      -4.505  -5.104  -3.883  0.00  0.00    +0.152 HD
ENDROOT
BRANCH   3   7
ATOM      7  C   UNL     1      -2.198  -6.508  -4.737  0.00  0.00    +0.016 C 
ATOM      8  C   UNL     1      -1.077  -7.259  -4.807  0.00  0.00    +0.015 C 
ATOM      9  C   UNL     1      -0.471  -7.532  -6.152  0.00  0.00    +0.159 C 
ATOM     10  C   UNL     1      -0.817  -6.365  -7.058  0.00  0.00    -0.018 C 
ATOM     11  C   UNL     1       0.341  -6.002  -7.635  0.00  0.00    +0.025 C 
ATOM     12  C   UNL     1       1.403  -6.728  -7.050  0.00  0.00    +0.106 C 
ATOM     13  N   UNL     1       0.984  -7.593  -6.168  0.00  0.00    -0.279 NA
ATOM     14  C   UNL     1      -2.098  -5.777  -7.078  0.00  0.00    +0.007 C 
ATOM     15  C   UNL     1      -2.806  -5.880  -5.915  0.00  0.00    +0.011 C 
ENDBRANCH   3   7
BRANCH   1  17
ATOM     16  N   UNL     1      -3.087  -3.596  -1.065  0.00  0.00    -0.302 N 
ATOM     17  C   UNL     1      -4.254  -4.264  -1.161  0.00  0.00    +0.276 C 
ATOM     18  O   UNL     1      -5.279  -3.755  -0.759  0.00  0.00    -0.270 OA
ATOM     19  H   UNL     1      -2.268  -4.003  -1.387  0.00  0.00    +0.149 HD
BRANCH  16  20
ATOM     20  C   UNL     1      -3.057  -2.256  -0.474  0.00  0.00    +0.200 C 
BRANCH  20  22
ATOM     21  N   UNL     1      -1.372  -0.511   0.012  0.00  0.00    -0.312 N 
ATOM     22  C   UNL     1      -1.643  -1.734  -0.485  0.00  0.00    +0.230 C 
ATOM     23  O   UNL     1      -0.749  -2.415  -0.941  0.00  0.00    -0.274 OA
ATOM     24  H   UNL     1      -2.087   0.033   0.377  0.00  0.00    +0.149 HD
BRANCH  21  26
ATOM     25  C   UNL     1      -0.019   1.526   0.010  0.00  0.00    +0.027 C 
ATOM     26  C   UNL     1       0.002  -0.004   0.002  0.00  0.00    +0.067 C 
ATOM     27  C   UNL     1       0.742  -0.511   1.242  0.00  0.00    +0.027 C 
ENDBRANCH  21  26
ENDBRANCH  20  22
ENDBRANCH  16  20
ENDBRANCH   1  17
TORSDOF 5
