REMARK  Name = ZINC34928930
REMARK  3 active torsions:
REMARK  status: ('A' for Active; 'I' for Inactive)
REMARK    1  A    between atoms: C_3  and  C_4
REMARK    2  A    between atoms: C_7  and  C_19
REMARK    3  A    between atoms: C_12  and  C_14
REMARK                            x       y       z     vdW  Elec       q    Type
REMARK                         _______ _______ _______ _____ _____    ______ ____
ROOT
ATOM      1  C   UNL     1      -0.408  -0.709  -1.292  0.00  0.00    +0.077 C 
ATOM      2  C   UNL     1      -0.332  -2.227  -1.098  0.00  0.00    +0.058 C 
ATOM      3  C   UNL     1      -1.211  -2.648   0.085  0.00  0.00    +0.214 C 
ATOM      4  N   UNL     1      -2.541  -2.052  -0.077  0.00  0.00    -0.237 N 
ATOM      5  C   UNL     1      -2.798  -0.981  -0.886  0.00  0.00    +0.137 A 
ATOM      6  C   UNL     1      -4.113  -0.698  -0.803  0.00  0.00    +0.114 A 
ATOM      7  C   UNL     1      -4.695  -1.627   0.092  0.00  0.00    +0.193 A 
ATOM      8  N   UNL     1      -3.740  -2.436   0.522  0.00  0.00    -0.161 NA
ATOM      9 CL   UNL     1      -4.943   0.576  -1.641  0.00  0.00    -0.077 Cl
ATOM     10  N   UNL     1      -1.797  -0.345  -1.636  0.00  0.00    -0.325 N 
ATOM     11  H   UNL     1      -2.003   0.292  -2.338  0.00  0.00    +0.148 HD
ENDROOT
BRANCH   3  12
ATOM     12  C   UNL     1      -1.331  -4.173   0.118  0.00  0.00    +0.412 C 
ATOM     13  F   UNL     1      -0.058  -4.737   0.261  0.00  0.00    -0.168 F 
ATOM     14  F   UNL     1      -2.134  -4.554   1.199  0.00  0.00    -0.168 F 
ATOM     15  F   UNL     1      -1.909  -4.622  -1.074  0.00  0.00    -0.168 F 
ENDBRANCH   3  12
BRANCH   1  18
ATOM     16  C   UNL     1      -0.019   1.526   0.010  0.00  0.00    +0.005 C 
ATOM     17  C   UNL     1       1.317   0.779  -0.006  0.00  0.00    +0.005 C 
ATOM     18  C   UNL     1       0.002  -0.004   0.002  0.00  0.00    +0.009 C 
ENDBRANCH   1  18
BRANCH   7  19
ATOM     19  C   UNL     1      -6.115  -1.683   0.478  0.00  0.00    +0.408 C 
ATOM     20  O   UNL     1      -6.908  -0.876   0.012  0.00  0.00    -0.239 OA
ATOM     21  O   UNL     1      -6.502  -2.536   1.265  0.00  0.00    -0.239 OA
ENDBRANCH   7  19
TORSDOF 3
