REMARK  Name = ZINC41069947
REMARK  7 active torsions:
REMARK  status: ('A' for Active; 'I' for Inactive)
REMARK    1  A    between atoms: C_1  and  C_2
REMARK    2  A    between atoms: C_7  and  N_12
REMARK    3  A    between atoms: C_9  and  C_11
REMARK    4  A    between atoms: N_12  and  S_13
REMARK    5  A    between atoms: S_13  and  C_16
REMARK    6  A    between atoms: C_21  and  N_22
REMARK    7  A    between atoms: N_22  and  N_23
REMARK                            x       y       z     vdW  Elec       q    Type
REMARK                         _______ _______ _______ _____ _____    ______ ____
ROOT
ATOM      1  S   UNL     1      -0.977  -4.040   1.964  0.00  0.00    +0.062 S 
ATOM      2  O   UNL     1      -2.334  -4.410   1.759  0.00  0.00    -0.153 OA
ATOM      3  O   UNL     1       0.107  -4.851   1.535  0.00  0.00    -0.153 OA
ENDROOT
BRANCH   1   4
ATOM      4  C   UNL     1      -0.775  -3.805   3.698  0.00  0.00    +0.147 A 
ATOM      5  C   UNL     1       0.278  -4.402   4.368  0.00  0.00    +0.048 A 
ATOM      6  C   UNL     1       0.398  -4.189   5.736  0.00  0.00    +0.038 A 
ATOM      7  C   UNL     1      -0.529  -3.395   6.381  0.00  0.00    +0.128 A 
ATOM      8  N   UNL     1      -1.524  -2.839   5.716  0.00  0.00    -0.236 NA
ATOM      9  C   UNL     1      -1.669  -3.012   4.411  0.00  0.00    +0.159 A 
ATOM     10 BR   UNL     1       1.817  -4.980   6.704  0.00  0.00    -0.049 Br
BRANCH   9  11
ATOM     11  N   UNL     1      -2.728  -2.402   3.748  0.00  0.00    -0.266 N 
ATOM     12  H   UNL     1      -2.792  -2.458   2.782  0.00  0.00    +0.167 HD
BRANCH  11  13
ATOM     13  N   UNL     1      -3.677  -1.723   4.458  0.00  0.00    -0.255 NA
ATOM     14  H   UNL     1      -3.257  -1.003   5.027  0.00  0.00    +0.140 HD
ATOM     15  H   UNL     1      -4.379  -1.336   3.845  0.00  0.00    +0.140 HD
ENDBRANCH  11  13
ENDBRANCH   9  11
ENDBRANCH   1   4
BRANCH   1  16
ATOM     16  N   UNL     1      -0.777  -2.562   1.243  0.00  0.00    -0.187 NA
ATOM     17  H   UNL     1      -1.523  -2.138   0.791  0.00  0.00    +0.148 HD
BRANCH  16  23
ATOM     18  C   UNL     1      -0.660   1.620   0.264  0.00  0.00    +0.008 C 
ATOM     19  C   UNL     1      -0.457   0.107   0.165  0.00  0.00    -0.010 C 
ATOM     20  C   UNL     1       0.327  -0.221  -1.107  0.00  0.00    +0.003 C 
ATOM     21  C   UNL     1       0.530  -1.734  -1.206  0.00  0.00    +0.002 C 
ATOM     22  C   UNL     1       1.311  -2.224   0.015  0.00  0.00    +0.020 C 
ATOM     23  C   UNL     1       0.527  -1.897   1.288  0.00  0.00    +0.080 C 
ATOM     24  C   UNL     1       0.324  -0.383   1.386  0.00  0.00    +0.007 C 
ATOM     25  C   UNL     1      -0.459  -0.056   2.659  0.00  0.00    +0.009 C 
ENDBRANCH  16  23
ENDBRANCH   1  16
TORSDOF 5
