REMARK  Name = ZINC15794265
REMARK  7 active torsions:
REMARK  status: ('A' for Active; 'I' for Inactive)
REMARK    1  A    between atoms: C_1  and  C_2
REMARK    2  A    between atoms: C_5  and  C_28
REMARK    3  A    between atoms: N_8  and  S_10
REMARK    4  A    between atoms: S_10  and  C_13
REMARK    5  A    between atoms: C_16  and  C_19
REMARK    6  A    between atoms: N_21  and  N_22
REMARK    7  A    between atoms: C_23  and  C_25
REMARK                            x       y       z     vdW  Elec       q    Type
REMARK                         _______ _______ _______ _____ _____    ______ ____
ROOT
ATOM      1  C   UNL     1       2.629   2.448   2.067  0.00  0.00    +0.106 A 
ATOM      2  C   UNL     1       3.560   3.147   1.320  0.00  0.00    +0.029 A 
ATOM      3  C   UNL     1       3.377   4.491   1.066  0.00  0.00    +0.015 A 
ATOM      4  C   UNL     1       2.249   5.144   1.565  0.00  0.00    +0.038 A 
ATOM      5  C   UNL     1       1.313   4.433   2.318  0.00  0.00    +0.015 A 
ATOM      6  C   UNL     1       1.506   3.088   2.560  0.00  0.00    +0.029 A 
ENDROOT
BRANCH   4   7
ATOM      7  C   UNL     1       2.046   6.584   1.297  0.00  0.00    +0.260 C 
ATOM      8  O   UNL     1       2.862   7.201   0.641  0.00  0.00    -0.269 OA
ATOM      9  N   UNL     1       0.956   7.212   1.780  0.00  0.00    -0.230 N 
ATOM     10  H   UNL     1       0.304   6.720   2.304  0.00  0.00    +0.173 HD
BRANCH   9  11
ATOM     11  N   UNL     1       0.763   8.576   1.526  0.00  0.00    -0.234 N 
ATOM     12  C   UNL     1      -0.327   9.205   2.010  0.00  0.00    +0.232 C 
ATOM     13  O   UNL     1      -1.141   8.589   2.664  0.00  0.00    -0.274 OA
ATOM     14  H   UNL     1       1.415   9.069   1.003  0.00  0.00    +0.173 HD
BRANCH  12  15
ATOM     15  C   UNL     1      -0.534  10.672   1.737  0.00  0.00    +0.076 C 
ATOM     16  C   UNL     1      -0.421  11.634   2.921  0.00  0.00    +0.013 C 
ATOM     17  C   UNL     1      -1.791  11.328   2.312  0.00  0.00    +0.013 C 
ENDBRANCH  12  15
ENDBRANCH   9  11
ENDBRANCH   4   7
BRANCH   1  18
ATOM     18  S   UNL     1       2.871   0.732   2.387  0.00  0.00    +0.061 S 
ATOM     19  O   UNL     1       2.133   0.430   3.563  0.00  0.00    -0.153 OA
ATOM     20  O   UNL     1       4.268   0.492   2.281  0.00  0.00    -0.153 OA
BRANCH  18  26
ATOM     21  C   UNL     1      -0.019   1.526   0.010  0.00  0.00    +0.009 C 
ATOM     22  C   UNL     1       0.002  -0.004   0.002  0.00  0.00    +0.002 C 
ATOM     23  C   UNL     1       0.720  -0.498  -1.256  0.00  0.00    +0.009 C 
ATOM     24  C   UNL     1       2.145   0.059  -1.285  0.00  0.00    +0.002 C 
ATOM     25  C   UNL     1       2.912  -0.448  -0.060  0.00  0.00    +0.112 C 
ATOM     26  N   UNL     1       2.153  -0.103   1.150  0.00  0.00    -0.176 NA
ATOM     27  C   UNL     1       0.744  -0.512   1.242  0.00  0.00    +0.112 C 
ATOM     28  C   UNL     1       2.850  -0.408  -2.559  0.00  0.00    +0.009 C 
ENDBRANCH  18  26
ENDBRANCH   1  18
TORSDOF 5
