REMARK  Name = ZINC29811816
REMARK  10 active torsions:
REMARK  status: ('A' for Active; 'I' for Inactive)
REMARK    1  A    between atoms: C_1  and  C_2
REMARK    2  A    between atoms: C_3  and  N_11
REMARK    3  A    between atoms: C_7  and  N_8
REMARK    4  A    between atoms: C_12  and  C_14
REMARK    5  A    between atoms: C_14  and  C_16
REMARK    6  A    between atoms: C_14  and  N_17
REMARK    7  A    between atoms: N_17  and  C_18
REMARK    8  A    between atoms: C_21  and  N_24
REMARK    9  A    between atoms: N_27  and  C_28
REMARK   10  A    between atoms: C_28  and  C_29
REMARK                            x       y       z     vdW  Elec       q    Type
REMARK                         _______ _______ _______ _____ _____    ______ ____
ROOT
ATOM      1  N   UNL     1      -1.117   7.567   0.438  0.00  0.00    -0.333 N 
ATOM      2  H   UNL     1      -2.049   8.144   0.526  0.00  0.00    +0.147 HD
ENDROOT
BRANCH   1   3
ATOM      3  C   UNL     1      -1.163   6.173   0.337  0.00  0.00    +0.028 A 
ATOM      4  C   UNL     1      -2.387   5.516   0.349  0.00  0.00    +0.025 A 
ATOM      5  C   UNL     1      -2.433   4.140   0.251  0.00  0.00    +0.025 A 
ATOM      6  C   UNL     1      -1.256   3.412   0.139  0.00  0.00    +0.035 A 
ATOM      7  C   UNL     1      -0.032   4.068   0.132  0.00  0.00    +0.025 A 
ATOM      8  C   UNL     1       0.014   5.444   0.226  0.00  0.00    +0.025 A 
BRANCH   6   9
ATOM      9  N   UNL     1      -1.303   2.014   0.039  0.00  0.00    -0.269 N 
ATOM     10  C   UNL     1      -0.305   1.349  -0.576  0.00  0.00    +0.304 C 
ATOM     11  O   UNL     1       0.578   1.964  -1.142  0.00  0.00    -0.253 OA
ATOM     12  N   UNL     1      -0.289   0.001  -0.569  0.00  0.00    -0.296 N 
ATOM     13  H   UNL     1      -2.154   1.461   0.462  0.00  0.00    +0.156 HD
ATOM     14  H   UNL     1      -1.088  -0.555  -0.057  0.00  0.00    +0.151 HD
BRANCH  12  15
ATOM     15  C   UNL     1       0.792  -0.722  -1.242  0.00  0.00    +0.132 C 
BRANCH  15  16
ATOM     16  C   UNL     1       0.577  -2.205  -1.087  0.00  0.00    -0.016 C 
ATOM     17  C   UNL     1       0.530  -2.975  -2.146  0.00  0.00    +0.005 C 
ENDBRANCH  15  16
ENDBRANCH  12  15
ENDBRANCH   6   9
ENDBRANCH   1   3
BRANCH   1  18
ATOM     18  C   UNL     1       0.174   8.260   0.425  0.00  0.00    +0.154 C 
ATOM     19  C   UNL     1       0.612   8.496  -1.022  0.00  0.00    +0.038 C 
BRANCH  18  21
ATOM     20  N   UNL     1       1.109  10.399   1.243  0.00  0.00    -0.284 N 
ATOM     21  C   UNL     1       0.041   9.584   1.132  0.00  0.00    +0.237 C 
ATOM     22  O   UNL     1      -1.027   9.917   1.600  0.00  0.00    -0.273 OA
ATOM     23  H   UNL     1       2.058  10.132   0.755  0.00  0.00    +0.155 HD
BRANCH  20  26
ATOM     24  C   UNL     1       3.391  11.262   2.709  0.00  0.00    +0.048 C 
ATOM     25  C   UNL     1       2.101  12.041   2.711  0.00  0.00    +0.001 A 
ATOM     26  C   UNL     1       1.011  11.584   1.981  0.00  0.00    +0.039 A 
ATOM     27  C   UNL     1      -0.177  12.302   1.990  0.00  0.00    +0.024 A 
ATOM     28  C   UNL     1      -0.271  13.471   2.719  0.00  0.00    +0.004 A 
ATOM     29  C   UNL     1       0.817  13.927   3.440  0.00  0.00    +0.033 A 
ATOM     30  C   UNL     1       2.002  13.214   3.434  0.00  0.00    +0.131 A 
BRANCH  30  31
ATOM     31  N   UNL     1       3.165  13.705   4.207  0.00  0.00    +0.057 N 
ATOM     32  O   UNL     1       2.993  14.264   5.276  0.00  0.00    -0.126 OA
ATOM     33  O   UNL     1       4.293  13.551   3.775  0.00  0.00    -0.126 OA
ENDBRANCH  30  31
ENDBRANCH  20  26
ENDBRANCH  18  21
ENDBRANCH   1  18
TORSDOF 8
