REMARK  Name = ZINC00747419
REMARK  9 active torsions:
REMARK  status: ('A' for Active; 'I' for Inactive)
REMARK    1  A    between atoms: C_1  and  C_2
REMARK    2  A    between atoms: C_2  and  C_3
REMARK    3  A    between atoms: C_2  and  C_4
REMARK    4  A    between atoms: C_4  and  N_5
REMARK    5  A    between atoms: C_6  and  C_8
REMARK    6  A    between atoms: C_10  and  N_19
REMARK    7  A    between atoms: C_13  and  N_14
REMARK    8  A    between atoms: N_22  and  C_23
REMARK    9  A    between atoms: C_26  and  C_29
REMARK                            x       y       z     vdW  Elec       q    Type
REMARK                         _______ _______ _______ _____ _____    ______ ____
ROOT
ATOM      1  C   UNL     1       4.862  -6.759  -0.388  0.00  0.00    +0.059 A 
ATOM      2  C   UNL     1       3.663  -6.041  -0.359  0.00  0.00    +0.038 A 
ATOM      3  C   UNL     1       3.689  -4.663  -0.230  0.00  0.00    +0.036 A 
ATOM      4  C   UNL     1       4.904  -3.992  -0.137  0.00  0.00    +0.025 A 
ATOM      5  C   UNL     1       6.092  -4.693  -0.160  0.00  0.00    +0.026 A 
ATOM      6  C   UNL     1       6.083  -6.076  -0.288  0.00  0.00    +0.042 A 
ENDROOT
BRANCH   3   7
ATOM      7  N   UNL     1       2.488  -3.942  -0.200  0.00  0.00    -0.269 N 
ATOM      8  C   UNL     1       2.380  -2.845   0.575  0.00  0.00    +0.308 C 
ATOM      9  O   UNL     1       3.349  -2.431   1.181  0.00  0.00    -0.252 OA
ATOM     10  N   UNL     1       1.198  -2.205   0.677  0.00  0.00    -0.269 N 
ATOM     11  H   UNL     1       1.734  -4.232  -0.737  0.00  0.00    +0.156 HD
ATOM     12  H   UNL     1       0.409  -2.573   0.248  0.00  0.00    +0.156 HD
BRANCH  10  13
ATOM     13  C   UNL     1       1.108  -1.015   1.400  0.00  0.00    +0.035 A 
ATOM     14  C   UNL     1       0.251  -0.007   0.973  0.00  0.00    +0.024 A 
ATOM     15  C   UNL     1       0.160   1.169   1.684  0.00  0.00    +0.020 A 
ATOM     16  C   UNL     1       0.930   1.348   2.836  0.00  0.00    +0.052 A 
ATOM     17  C   UNL     1       1.790   0.332   3.263  0.00  0.00    +0.020 A 
ATOM     18  C   UNL     1       1.877  -0.840   2.546  0.00  0.00    +0.024 A 
BRANCH  16  19
ATOM     19  C   UNL     1       0.838   2.570   3.578  0.00  0.00    +0.099 C 
ATOM     20  N   UNL     1       0.766   3.538   4.167  0.00  0.00    -0.191 NA
ENDBRANCH  16  19
ENDBRANCH  10  13
ENDBRANCH   3   7
BRANCH   6  21
ATOM     21  N   UNL     1       7.281  -6.782  -0.316  0.00  0.00    -0.329 N 
ATOM     22  C   UNL     1       8.197  -6.235  -1.350  0.00  0.00    +0.105 C 
ATOM     23  C   UNL     1       9.588  -6.744  -0.897  0.00  0.00    +0.020 C 
ATOM     24  C   UNL     1       9.507  -6.646   0.644  0.00  0.00    +0.020 C 
ATOM     25  C   UNL     1       8.002  -6.654   0.969  0.00  0.00    +0.105 C 
ENDBRANCH   6  21
BRANCH   1  27
ATOM     26  N   UNL     1       3.675  -8.870  -0.729  0.00  0.00    -0.311 N 
ATOM     27  C   UNL     1       4.842  -8.227  -0.525  0.00  0.00    +0.246 C 
ATOM     28  O   UNL     1       5.880  -8.858  -0.455  0.00  0.00    -0.270 OA
ATOM     29  H   UNL     1       2.848  -8.366  -0.785  0.00  0.00    +0.149 HD
BRANCH  26  30
ATOM     30  C   UNL     1       3.656 -10.328  -0.865  0.00  0.00    +0.107 C 
BRANCH  30  32
ATOM     31  C   UNL     1       1.704 -10.263  -2.422  0.00  0.00    +0.009 C 
ATOM     32  C   UNL     1       2.218 -10.801  -1.086  0.00  0.00    -0.000 C 
ATOM     33  C   UNL     1       2.181 -12.330  -1.103  0.00  0.00    +0.009 C 
ENDBRANCH  30  32
ENDBRANCH  26  30
ENDBRANCH   1  27
TORSDOF 7
