REMARK  Name = ZINC25760764
REMARK  4 active torsions:
REMARK  status: ('A' for Active; 'I' for Inactive)
REMARK    1  A    between atoms: N_5  and  N_6
REMARK    2  A    between atoms: C_7  and  C_9
REMARK    3  A    between atoms: C_10  and  C_20
REMARK    4  A    between atoms: C_20  and  N_21
REMARK                            x       y       z     vdW  Elec       q    Type
REMARK                         _______ _______ _______ _____ _____    ______ ____
ROOT
ATOM      1  C   UNL     1       1.268   1.877  -0.361  0.00  0.00    +0.154 A 
ATOM      2  C   UNL     1       2.529   1.341  -0.420  0.00  0.00    +0.079 A 
ATOM      3  N   UNL     1       3.362   2.363  -0.624  0.00  0.00    -0.135 NA
ATOM      4  N   UNL     1       2.691   3.457  -0.689  0.00  0.00    -0.058 NA
ATOM      5  N   UNL     1       1.433   3.228  -0.544  0.00  0.00    -0.183 N 
ATOM      6  C   UNL     1       0.414   4.186  -0.567  0.00  0.00    +0.241 A 
ATOM      7  C   UNL     1       0.582   5.610  -0.866  0.00  0.00    +0.206 A 
ATOM      8  N   UNL     1      -0.586   6.186  -0.792  0.00  0.00    -0.032 NA
ATOM      9  O   UNL     1      -1.538   5.194  -0.451  0.00  0.00    -0.239 OA
ATOM     10  N   UNL     1      -0.848   3.962  -0.330  0.00  0.00    -0.027 NA
ATOM     11  N   UNL     1       1.782   6.241  -1.177  0.00  0.00    -0.337 N 
ATOM     12  H   UNL     1       1.798   7.321  -1.386  0.00  0.00    +0.144 HD
ATOM     13  H   UNL     1       2.716   5.660  -1.212  0.00  0.00    +0.144 HD
ENDROOT
BRANCH   1  15
ATOM     14  N   UNL     1      -0.456   0.948   1.097  0.00  0.00    -0.202 N 
ATOM     15  C   UNL     1       0.004   1.155  -0.153  0.00  0.00    +0.284 C 
ATOM     16  O   UNL     1      -0.630   0.749  -1.109  0.00  0.00    -0.267 OA
ATOM     17  H   UNL     1       0.073   1.385   1.957  0.00  0.00    +0.178 HD
BRANCH  14  22
ATOM     18  C   UNL     1      -3.419   0.087   4.947  0.00  0.00    +0.001 C 
ATOM     19  C   UNL     1      -4.143  -0.364   3.677  0.00  0.00    +0.006 C 
ATOM     20  C   UNL     1      -3.144  -1.046   2.736  0.00  0.00    +0.052 C 
ATOM     21  C   UNL     1      -1.990  -0.099   2.492  0.00  0.00    +0.037 C 
ATOM     22  N   UNL     1      -1.606   0.174   1.302  0.00  0.00    -0.189 NA
ATOM     23  C   UNL     1      -1.298   0.512   3.690  0.00  0.00    +0.052 C 
ATOM     24  C   UNL     1      -2.367   1.142   4.597  0.00  0.00    +0.006 C 
ENDBRANCH  14  22
ENDBRANCH   1  15
BRANCH   2  25
ATOM     25  C   UNL     1       2.899  -0.113  -0.283  0.00  0.00    -0.018 C 
BRANCH  25  26
ATOM     26  N   UNL     1       2.887  -0.748  -1.607  0.00  0.00    +0.383 N 
ATOM     27  C   UNL     1       1.528  -0.780  -2.163  0.00  0.00    -0.078 C 
ATOM     28  C   UNL     1       1.574  -1.313  -3.597  0.00  0.00    -0.019 C 
ATOM     29  C   UNL     1       2.177  -2.721  -3.594  0.00  0.00    -0.004 C 
ATOM     30  C   UNL     1       3.572  -2.668  -2.966  0.00  0.00    -0.019 C 
ATOM     31  C   UNL     1       3.468  -2.095  -1.550  0.00  0.00    -0.078 C 
ATOM     32  H   UNL     1       3.510  -0.142  -2.281  0.00  0.00    -0.081 HD
ENDBRANCH  25  26
ENDBRANCH   2  25
TORSDOF 4
