REMARK  Name = ZINC64198807
REMARK  11 active torsions:
REMARK  status: ('A' for Active; 'I' for Inactive)
REMARK    1  A    between atoms: CD1_1  and  CG1_2
REMARK    2  A    between atoms: CG1_2  and  CB_3
REMARK    3  A    between atoms: CB_3  and  CG2_5
REMARK    4  A    between atoms: CB_3  and  CA_6
REMARK    5  A    between atoms: CA_6  and  C_8
REMARK    6  A    between atoms: CA_6  and  N_11
REMARK    7  A    between atoms: C_12  and  C_14
REMARK    8  A    between atoms: C_14  and  C_16
REMARK    9  A    between atoms: C_14  and  N_26
REMARK   10  A    between atoms: C_16  and  C_17
REMARK   11  A    between atoms: C_27  and  O_38
REMARK                            x       y       z     vdW  Elec       q    Type
REMARK                         _______ _______ _______ _____ _____    ______ ____
ROOT
ATOM      1  C   UNK A   0      -4.458  -4.348  -0.252  0.00  0.00    +0.170 C 
ENDROOT
BRANCH   1   2
ATOM      2  N   UNK A   0      -4.471  -5.732  -0.732  0.00  0.00    -0.244 N 
ATOM      3  C   UNK A   0      -4.975  -6.791   0.143  0.00  0.00    +0.300 C 
ATOM      4  N   UNK A   0      -4.254  -8.044  -0.107  0.00  0.00    -0.303 N 
ATOM      5  C   UNK A   0      -4.002  -8.421  -1.421  0.00  0.00    +0.042 A 
ATOM      6  C   UNK A   0      -3.887  -9.752  -1.788  0.00  0.00    +0.024 A 
ATOM      7  C   UNK A   0      -3.626 -10.078  -3.105  0.00  0.00    +0.002 A 
ATOM      8  C   UNK A   0      -3.478  -9.085  -4.061  0.00  0.00    +0.001 A 
ATOM      9  C   UNK A   0      -3.594  -7.755  -3.712  0.00  0.00    +0.015 A 
ATOM     10  C   UNK A   0      -3.862  -7.412  -2.389  0.00  0.00    +0.058 A 
ATOM     11  C   UNK A   0      -4.025  -6.007  -1.974  0.00  0.00    +0.252 C 
ATOM     12  O   UNK A   0      -3.755  -5.104  -2.743  0.00  0.00    -0.270 OA
ATOM     13  H   UNK A   0      -3.957  -8.599   0.632  0.00  0.00    +0.150 HD
BRANCH   3  14
ATOM     14  O   UNK A   0      -6.367  -6.992  -0.110  0.00  0.00    -0.359 OA
ATOM     15  H   UNK A   0      -6.771  -7.681   0.435  0.00  0.00    +0.213 HD
ENDBRANCH   3  14
ENDBRANCH   1   2
BRANCH   1  17
ATOM     16  N   ILE A   1      -2.788  -2.566   0.141  0.00  0.00    -0.300 N 
ATOM     17  C   UNK A   0      -3.044  -3.826  -0.263  0.00  0.00    +0.235 C 
ATOM     18  O   UNK A   0      -2.137  -4.540  -0.635  0.00  0.00    -0.274 OA
ATOM     19  H   ILE A   1      -3.513  -1.995   0.438  0.00  0.00    +0.150 HD
BRANCH  16  20
ATOM     20  CA  ILE A   1      -1.413  -2.059   0.130  0.00  0.00    +0.189 C 
BRANCH  20  21
ATOM     21  C   ILE A   1      -0.722  -2.455   1.409  0.00  0.00    +0.376 C 
ATOM     22  O   ILE A   1      -1.367  -2.589   2.435  0.00  0.00    -0.244 OA
ATOM     23  OXT ILE A   1       0.483  -2.643   1.418  0.00  0.00    -0.244 OA
ENDBRANCH  20  21
BRANCH  20  24
ATOM     24  CB  ILE A   1      -1.433  -0.534   0.013  0.00  0.00    +0.017 C 
ATOM     25  CG2 ILE A   1      -2.135  -0.131  -1.286  0.00  0.00    +0.010 C 
BRANCH  24  27
ATOM     26  CD1 ILE A   1      -0.019   1.526   0.010  0.00  0.00    +0.004 C 
ATOM     27  CG1 ILE A   1       0.002  -0.004   0.002  0.00  0.00    +0.002 C 
ENDBRANCH  24  27
ENDBRANCH  20  24
ENDBRANCH  16  20
ENDBRANCH   1  17
BRANCH   1  28
ATOM     28  C   UNK A   0      -5.328  -3.483  -1.167  0.00  0.00    +0.065 C 
BRANCH  28  29
ATOM     29  C   UNK A   0      -6.764  -3.927  -1.062  0.00  0.00    -0.039 C 
ATOM     30  C   UNK A   0      -7.721  -3.401  -0.264  0.00  0.00    -0.001 A 
ATOM     31  C   UNK A   0      -7.713  -2.301   0.708  0.00  0.00    +0.010 A 
ATOM     32  C   UNK A   0      -8.853  -2.002   1.370  0.00  0.00    +0.001 A 
ATOM     33  C   UNK A   0     -10.041  -2.714   1.152  0.00  0.00    +0.002 A 
ATOM     34  C   UNK A   0     -10.127  -3.737   0.275  0.00  0.00    +0.026 A 
ATOM     35  C   UNK A   0      -8.988  -4.137  -0.476  0.00  0.00    +0.043 A 
ATOM     36  N   UNK A   0      -8.820  -5.081  -1.371  0.00  0.00    -0.380 N 
ATOM     37  C   UNK A   0      -7.428  -5.047  -1.831  0.00  0.00    +0.144 C 
ATOM     38  H   UNK A   0      -9.504  -5.697  -1.679  0.00  0.00    +0.160 HD
ENDBRANCH  28  29
ENDBRANCH   1  28
TORSDOF 9
