REMARK  Name = ZINC21139145
REMARK  7 active torsions:
REMARK  status: ('A' for Active; 'I' for Inactive)
REMARK    1  A    between atoms: C_5  and  C_7
REMARK    2  A    between atoms: C_7  and  C_9
REMARK    3  A    between atoms: C_7  and  N_30
REMARK    4  A    between atoms: C_9  and  C_10
REMARK    5  A    between atoms: C_10  and  O_12
REMARK    6  A    between atoms: O_12  and  C_13
REMARK    7  A    between atoms: C_13  and  C_14
REMARK                            x       y       z     vdW  Elec       q    Type
REMARK                         _______ _______ _______ _____ _____    ______ ____
ROOT
ATOM      1  C   UNL     1       7.033   3.755   1.234  0.00  0.00    +0.310 C 
ATOM      2  O   UNL     1       7.270   4.831   0.738  0.00  0.00    -0.251 OA
ENDROOT
BRANCH   1   3
ATOM      3  C   UNL     1       8.107   3.023   1.996  0.00  0.00    +0.147 C 
BRANCH   3   4
ATOM      4  C   UNL     1       9.392   3.854   1.992  0.00  0.00    +0.117 C 
BRANCH   4   9
ATOM      5  C   UNL     1      11.200   1.253   4.046  0.00  0.00    +0.000 A 
ATOM      6  C   UNL     1      12.329   1.948   4.441  0.00  0.00    +0.001 A 
ATOM      7  C   UNL     1      12.507   3.259   4.043  0.00  0.00    +0.020 A 
ATOM      8  C   UNL     1      11.559   3.875   3.245  0.00  0.00    +0.046 A 
ATOM      9  C   UNL     1      10.428   3.182   2.856  0.00  0.00    -0.008 A 
ATOM     10  C   UNL     1      10.250   1.870   3.253  0.00  0.00    +0.007 A 
ATOM     11 CL   UNL     1      11.786   5.521   2.740  0.00  0.00    -0.083 Cl
ENDBRANCH   4   9
BRANCH   4  12
ATOM     12  N   UNL     1       9.896   3.965   0.621  0.00  0.00    -0.292 N 
ATOM     13  C   UNL     1      10.309   2.863  -0.037  0.00  0.00    +0.298 C 
ATOM     14  O   UNL     1      10.182   1.767   0.474  0.00  0.00    -0.253 OA
ATOM     15  N   UNL     1      10.863   2.977  -1.260  0.00  0.00    -0.313 N 
ATOM     16  H   UNL     1       9.939   4.948   0.129  0.00  0.00    +0.151 HD
ATOM     17  H   UNL     1      11.199   2.078  -1.797  0.00  0.00    +0.146 HD
ATOM     18  H   UNL     1      10.978   3.969  -1.722  0.00  0.00    +0.146 HD
ENDBRANCH   4  12
ENDBRANCH   3   4
ENDBRANCH   1   3
BRANCH   1  19
ATOM     19  O   UNL     1       5.812   3.212   1.107  0.00  0.00    -0.455 OA
BRANCH  19  20
ATOM     20  C   UNL     1       4.827   3.973   0.359  0.00  0.00    +0.328 C 
BRANCH  20  21
ATOM     21  C   UNL     1       3.527   3.212   0.322  0.00  0.00    +0.262 C 
ATOM     22  O   UNL     1       3.493   2.051   0.673  0.00  0.00    -0.271 OA
ATOM     23  N   UNL     1       2.401   3.821  -0.103  0.00  0.00    -0.235 N 
ATOM     24  C   UNL     1       1.226   3.070  -0.224  0.00  0.00    +0.055 A 
ATOM     25  C   UNL     1       1.276   1.760  -0.678  0.00  0.00    +0.025 A 
ATOM     26  C   UNL     1       0.110   1.025  -0.797  0.00  0.00    +0.002 A 
ATOM     27  C   UNL     1      -1.110   1.589  -0.473  0.00  0.00    +0.001 A 
ATOM     28  C   UNL     1      -1.171   2.893  -0.013  0.00  0.00    +0.017 A 
ATOM     29  C   UNL     1      -0.009   3.632   0.108  0.00  0.00    +0.035 A 
ATOM     30  S   UNL     1      -0.056   5.300   0.686  0.00  0.00    -0.086 S 
ATOM     31  C   UNL     1       1.357   6.011  -0.099  0.00  0.00    +0.035 A 
ATOM     32  C   UNL     1       2.440   5.186  -0.410  0.00  0.00    +0.055 A 
ATOM     33  C   UNL     1       3.555   5.733  -1.027  0.00  0.00    +0.025 A 
ATOM     34  C   UNL     1       3.586   7.083  -1.328  0.00  0.00    +0.002 A 
ATOM     35  C   UNL     1       2.511   7.895  -1.018  0.00  0.00    +0.001 A 
ATOM     36  C   UNL     1       1.392   7.360  -0.403  0.00  0.00    +0.017 A 
ENDBRANCH  20  21
ENDBRANCH  19  20
ENDBRANCH   1  19
TORSDOF 7
