REMARK  Name = ZINC58247739
REMARK  9 active torsions:
REMARK  status: ('A' for Active; 'I' for Inactive)
REMARK    1  A    between atoms: C_1  and  C_2
REMARK    2  A    between atoms: C_3  and  C_29
REMARK    3  A    between atoms: C_9  and  C_12
REMARK    4  A    between atoms: C_12  and  N_13
REMARK    5  A    between atoms: N_16  and  C_17
REMARK    6  A    between atoms: C_17  and  C_19
REMARK    7  A    between atoms: C_17  and  C_20
REMARK    8  A    between atoms: N_22  and  C_23
REMARK    9  A    between atoms: C_23  and  C_24
REMARK                            x       y       z     vdW  Elec       q    Type
REMARK                         _______ _______ _______ _____ _____    ______ ____
ROOT
ATOM      1  N   UNL     1      -1.310  -1.423   5.394  0.00  0.00    -0.295 N 
ATOM      2  C   UNL     1      -1.547  -1.215   6.704  0.00  0.00    +0.300 C 
ATOM      3  O   UNL     1      -0.618  -1.076   7.475  0.00  0.00    -0.253 OA
ATOM      4  N   UNL     1      -2.815  -1.160   7.159  0.00  0.00    -0.288 N 
ATOM      5  H   UNL     1      -2.052  -1.533   4.778  0.00  0.00    +0.151 HD
ATOM      6  H   UNL     1      -3.556  -1.271   6.544  0.00  0.00    +0.151 HD
ENDROOT
BRANCH   4   7
ATOM      7  C   UNL     1      -3.072  -0.934   8.583  0.00  0.00    +0.157 C 
ATOM      8  C   UNL     1      -3.059   0.569   8.872  0.00  0.00    +0.038 C 
BRANCH   7   9
ATOM      9  C   UNL     1      -4.419  -1.504   8.947  0.00  0.00    +0.233 C 
ATOM     10  O   UNL     1      -5.097  -2.045   8.100  0.00  0.00    -0.274 OA
ATOM     11  N   UNL     1      -4.870  -1.411  10.214  0.00  0.00    -0.307 N 
ATOM     12  H   UNL     1      -4.328  -0.978  10.891  0.00  0.00    +0.149 HD
BRANCH  11  13
ATOM     13  C   UNL     1      -6.180  -1.965  10.567  0.00  0.00    +0.178 C 
BRANCH  13  14
ATOM     14  C   UNL     1      -6.445  -1.732  12.032  0.00  0.00    +0.122 A 
ATOM     15  C   UNL     1      -7.057  -0.657  12.560  0.00  0.00    +0.046 A 
ATOM     16  C   UNL     1      -7.093  -0.852  13.960  0.00  0.00    +0.041 A 
ATOM     17  C   UNL     1      -6.501  -2.034  14.204  0.00  0.00    +0.195 A 
ATOM     18  O   UNL     1      -6.116  -2.566  13.032  0.00  0.00    -0.466 OA
ENDBRANCH  13  14
ENDBRANCH  11  13
ENDBRANCH   7   9
ENDBRANCH   4   7
BRANCH   1  19
ATOM     19  C   UNL     1       0.068  -1.482   4.899  0.00  0.00    +0.141 C 
BRANCH  19  28
ATOM     20  C   UNL     1      -0.018   1.503   0.010  0.00  0.00    +0.046 C 
ATOM     21  C   UNL     1       0.002  -0.004   0.002  0.00  0.00    -0.022 A 
ATOM     22  C   UNL     1       0.009  -0.797  -1.081  0.00  0.00    +0.017 A 
ATOM     23  N   UNL     1       0.028  -2.110  -0.699  0.00  0.00    -0.358 N 
ATOM     24  H   UNL     1       0.036  -2.867  -1.305  0.00  0.00    +0.166 HD
ATOM     25  C   UNL     1       0.035  -2.197   0.676  0.00  0.00    +0.047 A 
ATOM     26  C   UNL     1       0.025  -0.882   1.175  0.00  0.00    +0.003 A 
ATOM     27  C   UNL     1       0.035  -0.659   2.553  0.00  0.00    +0.015 A 
ATOM     28  C   UNL     1       0.057  -1.723   3.411  0.00  0.00    -0.030 A 
ATOM     29  C   UNL     1       0.071  -3.022   2.924  0.00  0.00    +0.007 A 
ATOM     30  C   UNL     1       0.052  -3.264   1.567  0.00  0.00    +0.026 A 
ATOM     31  C   UNL     1      -0.004  -0.311  -2.508  0.00  0.00    +0.063 C 
ENDBRANCH  19  28
ENDBRANCH   1  19
TORSDOF 6
