REMARK  Name = ZINC24379589
REMARK  6 active torsions:
REMARK  status: ('A' for Active; 'I' for Inactive)
REMARK    1  A    between atoms: C_1  and  C_2
REMARK    2  A    between atoms: C_7  and  C_27
REMARK    3  A    between atoms: N_12  and  C_16
REMARK    4  A    between atoms: C_16  and  C_17
REMARK    5  A    between atoms: N_19  and  C_20
REMARK    6  A    between atoms: C_23  and  C_26
REMARK                            x       y       z     vdW  Elec       q    Type
REMARK                         _______ _______ _______ _____ _____    ______ ____
ROOT
ATOM      1  C   UNL     1      -0.019   1.526   0.010  0.00  0.00    +0.010 C 
ATOM      2  C   UNL     1       0.002  -0.004   0.002  0.00  0.00    +0.019 C 
ATOM      3  C   UNL     1      -1.434  -0.534   0.012  0.00  0.00    +0.006 C 
ATOM      4  C   UNL     1      -1.412  -2.064   0.024  0.00  0.00    +0.001 C 
ATOM      5  C   UNL     1      -0.687  -2.556   1.279  0.00  0.00    +0.006 C 
ATOM      6  C   UNL     1       0.752  -2.033   1.273  0.00  0.00    +0.019 C 
ATOM      7  C   UNL     1       0.740  -0.509   1.237  0.00  0.00    +0.118 C 
ATOM      8  C   UNL     1       2.151   0.030   1.266  0.00  0.00    +0.247 C 
ATOM      9  O   UNL     1       3.026  -0.158   0.448  0.00  0.00    -0.273 OA
ATOM     10  N   UNL     1       2.233   0.767   2.394  0.00  0.00    -0.215 N 
ATOM     11  C   UNL     1       1.077   0.763   3.069  0.00  0.00    +0.310 C 
ATOM     12  O   UNL     1       0.904   1.356   4.116  0.00  0.00    -0.252 OA
ATOM     13  N   UNL     1       0.127   0.030   2.458  0.00  0.00    -0.284 N 
ATOM     14  C   UNL     1       1.483  -2.567   0.040  0.00  0.00    +0.010 C 
ATOM     15  H   UNL     1      -0.782  -0.114   2.764  0.00  0.00    +0.151 HD
ENDROOT
BRANCH  10  16
ATOM     16  C   UNL     1       3.436   1.482   2.825  0.00  0.00    +0.213 C 
BRANCH  16  17
ATOM     17  C   UNL     1       3.425   2.876   2.253  0.00  0.00    +0.231 C 
ATOM     18  O   UNL     1       2.503   3.237   1.554  0.00  0.00    -0.274 OA
ATOM     19  N   UNL     1       4.441   3.721   2.519  0.00  0.00    -0.311 N 
ATOM     20  H   UNL     1       5.178   3.433   3.078  0.00  0.00    +0.149 HD
BRANCH  19  21
ATOM     21  C   UNL     1       4.430   5.077   1.963  0.00  0.00    +0.073 C 
ATOM     22  C   UNL     1       5.014   5.052   0.549  0.00  0.00    +0.022 C 
ATOM     23  C   UNL     1       6.452   4.534   0.600  0.00  0.00    +0.005 C 
ATOM     24  C   UNL     1       7.295   5.455   1.485  0.00  0.00    -0.014 C 
ATOM     25  C   UNL     1       6.711   5.479   2.898  0.00  0.00    +0.005 C 
ATOM     26  C   UNL     1       5.273   5.997   2.847  0.00  0.00    +0.022 C 
ATOM     27  C   UNL     1       8.734   4.936   1.536  0.00  0.00    +0.007 C 
ENDBRANCH  19  21
ENDBRANCH  16  17
ENDBRANCH  10  16
TORSDOF 3
