REMARK  Name = ZINC13267952
REMARK  4 active torsions:
REMARK  status: ('A' for Active; 'I' for Inactive)
REMARK    1  A    between atoms: C_3  and  O_10
REMARK    2  A    between atoms: C_4  and  C_8
REMARK    3  A    between atoms: O_10  and  S_11
REMARK    4  A    between atoms: S_11  and  C_14
REMARK                            x       y       z     vdW  Elec       q    Type
REMARK                         _______ _______ _______ _____ _____    ______ ____
ROOT
ATOM      1  C   UNL     1       0.243   5.062  -2.527  0.00  0.00    +0.018 A 
ATOM      2  C   UNL     1       0.201   3.705  -2.276  0.00  0.00    +0.050 A 
ATOM      3  C   UNL     1      -0.783   3.181  -1.452  0.00  0.00    +0.171 A 
ATOM      4  C   UNL     1      -1.738   4.034  -0.880  0.00  0.00    +0.109 A 
ATOM      5  C   UNL     1      -1.680   5.406  -1.137  0.00  0.00    +0.033 A 
ATOM      6  C   UNL     1      -0.694   5.910  -1.960  0.00  0.00    +0.014 A 
ATOM      7  I   UNL     1      -0.614   7.966  -2.351  0.00  0.00    -0.044 I 
ENDROOT
BRANCH   4   8
ATOM      8  C   UNL     1      -2.792   3.487  -0.007  0.00  0.00    +0.390 C 
ATOM      9  O   UNL     1      -2.837   2.294   0.218  0.00  0.00    -0.240 OA
ATOM     10  O   UNL     1      -3.708   4.311   0.541  0.00  0.00    -0.240 OA
ENDBRANCH   4   8
BRANCH   3  11
ATOM     11  O   UNL     1      -0.826   1.847  -1.205  0.00  0.00    -0.341 OA
BRANCH  11  12
ATOM     12  S   UNL     1      -0.017   1.417   0.010  0.00  0.00    +0.157 S 
ATOM     13  O   UNL     1       0.002  -0.004   0.002  0.00  0.00    -0.131 OA
ATOM     14  O   UNL     1       1.172   2.195   0.003  0.00  0.00    -0.131 OA
BRANCH  12  15
ATOM     15  C   UNL     1      -0.927   1.900   1.439  0.00  0.00    +0.166 A 
ATOM     16  C   UNL     1      -1.862   1.205   2.131  0.00  0.00    +0.039 A 
ATOM     17  C   UNL     1      -2.452   1.790   3.236  0.00  0.00    +0.025 A 
ATOM     18  C   UNL     1      -2.077   3.044   3.594  0.00  0.00    +0.057 A 
ATOM     19  S   UNL     1      -0.850   3.430   2.356  0.00  0.00    -0.060 S 
ATOM     20 BR   UNL     1      -2.689   4.104   5.036  0.00  0.00    -0.043 Br
ENDBRANCH  12  15
ENDBRANCH  11  12
ENDBRANCH   3  11
TORSDOF 4
