REMARK  Name = ZINC02135405
REMARK  7 active torsions:
REMARK  status: ('A' for Active; 'I' for Inactive)
REMARK    1  A    between atoms: C_1  and  C_2
REMARK    2  A    between atoms: C_17  and  C_19
REMARK    3  A    between atoms: C_19  and  C_20
REMARK    4  A    between atoms: N_25  and  C_28
REMARK    5  A    between atoms: C_28  and  C_29
REMARK    6  A    between atoms: C_32  and  O_35
REMARK    7  A    between atoms: O_35  and  C_36
REMARK                            x       y       z     vdW  Elec       q    Type
REMARK                         _______ _______ _______ _____ _____    ______ ____
ROOT
ATOM      1  C   UNL     1      -0.538   7.452  -4.780  0.00  0.00    +0.044 C 
ATOM      2  C   UNL     1       0.229   6.750  -3.690  0.00  0.00    -0.049 A 
ATOM      3  C   UNL     1      -0.046   5.427  -3.389  0.00  0.00    +0.008 A 
ATOM      4  C   UNL     1       0.655   4.787  -2.392  0.00  0.00    -0.026 A 
ATOM      5  C   UNL     1       1.644   5.456  -1.678  0.00  0.00    +0.054 A 
ATOM      6  C   UNL     1       1.915   6.788  -1.986  0.00  0.00    +0.063 A 
ATOM      7  C   UNL     1       1.209   7.426  -2.986  0.00  0.00    +0.025 A 
ATOM      8 CL   UNL     1       3.143   7.647  -1.110  0.00  0.00    -0.082 Cl
ATOM      9  N   UNL     1       2.212   4.606  -0.726  0.00  0.00    -0.285 N 
ATOM     10  C   UNL     1       1.661   3.377  -0.750  0.00  0.00    +0.211 C 
ATOM     11  O   UNL     1       1.954   2.438  -0.041  0.00  0.00    -0.277 OA
ATOM     12  C   UNL     1       0.609   3.396  -1.825  0.00  0.00    +0.050 C 
ATOM     13  C   UNL     1       0.887   2.339  -2.900  0.00  0.00    +0.088 C 
ATOM     14  C   UNL     1      -0.025   1.138  -2.514  0.00  0.00    +0.073 C 
ATOM     15  C   UNL     1      -0.753   1.593  -1.232  0.00  0.00    -0.049 C 
ATOM     16  C   UNL     1      -1.014   1.073  -3.655  0.00  0.00    +0.224 C 
ATOM     17  O   UNL     1      -1.921   0.274  -3.748  0.00  0.00    -0.275 OA
ATOM     18  N   UNL     1      -0.732   2.031  -4.545  0.00  0.00    -0.237 N 
ATOM     19  C   UNL     1       0.316   2.798  -4.223  0.00  0.00    +0.225 C 
ATOM     20  O   UNL     1       0.742   3.717  -4.889  0.00  0.00    -0.275 OA
ATOM     21  H   UNL     1       2.922   4.869  -0.120  0.00  0.00    +0.155 HD
ATOM     22  N   UNL     1      -0.698   3.055  -1.290  0.00  0.00    +0.394 N 
ATOM     23  H   UNL     1      -1.438   3.414  -1.904  0.00  0.00    -0.083 HD
ATOM     24  H   UNL     1      -0.811   3.452  -0.350  0.00  0.00    -0.083 HD
ENDROOT
BRANCH  15  25
ATOM     25  C   UNL     1      -0.013   1.086   0.008  0.00  0.00    +0.080 C 
BRANCH  25  26
ATOM     26  C   UNL     1      -0.577  -0.250   0.418  0.00  0.00    +0.209 C 
ATOM     27  O   UNL     1      -1.481  -0.748  -0.218  0.00  0.00    -0.276 OA
ATOM     28  N   UNL     1      -0.075  -0.892   1.492  0.00  0.00    -0.329 N 
ATOM     29  H   UNL     1       0.648  -0.494   2.001  0.00  0.00    +0.145 HD
ATOM     30  H   UNL     1      -0.438  -1.752   1.757  0.00  0.00    +0.145 HD
ENDBRANCH  25  26
ENDBRANCH  15  25
BRANCH  18  31
ATOM     31  C   UNL     1      -1.508   2.225  -5.772  0.00  0.00    +0.151 C 
BRANCH  31  32
ATOM     32  C   UNL     1      -0.910   1.398  -6.881  0.00  0.00    -0.029 A 
ATOM     33  C   UNL     1       0.068   1.940  -7.695  0.00  0.00    +0.009 A 
ATOM     34  C   UNL     1       0.622   1.182  -8.709  0.00  0.00    +0.046 A 
ATOM     35  C   UNL     1       0.188  -0.119  -8.917  0.00  0.00    +0.120 A 
ATOM     36  C   UNL     1      -0.797  -0.658  -8.102  0.00  0.00    +0.046 A 
ATOM     37  C   UNL     1      -1.344   0.102  -7.086  0.00  0.00    +0.009 A 
BRANCH  35  38
ATOM     38  O   UNL     1       0.728  -0.865  -9.917  0.00  0.00    -0.495 OA
ATOM     39  C   UNL     1       1.738  -0.245 -10.716  0.00  0.00    +0.277 C 
ENDBRANCH  35  38
ENDBRANCH  31  32
ENDBRANCH  18  31
TORSDOF 5
