REMARK  Name = ZINC08193177
REMARK  5 active torsions:
REMARK  status: ('A' for Active; 'I' for Inactive)
REMARK    1  A    between atoms: C_1  and  C_2
REMARK    2  A    between atoms: C_2  and  C_3
REMARK    3  A    between atoms: C_5  and  C_9
REMARK    4  A    between atoms: C_7  and  C_8
REMARK    5  A    between atoms: N_11  and  N_12
REMARK                            x       y       z     vdW  Elec       q    Type
REMARK                         _______ _______ _______ _____ _____    ______ ____
ROOT
ATOM      1  N   UNL     1      -6.344  -2.618   2.858  0.00  0.00    -0.137 N 
ATOM      2  C   UNL     1      -6.644  -3.908   3.114  0.00  0.00    +0.263 C 
ATOM      3  O   UNL     1      -6.228  -4.887   2.534  0.00  0.00    -0.271 OA
ATOM      4  C   UNL     1      -7.608  -3.875   4.278  0.00  0.00    +0.114 C 
ATOM      5  C   UNL     1      -7.020  -4.611   5.477  0.00  0.00    +0.035 C 
ATOM      6  C   UNL     1      -7.998  -4.540   6.652  0.00  0.00    +0.003 C 
ATOM      7  C   UNL     1      -9.329  -5.174   6.246  0.00  0.00    +0.000 C 
ATOM      8  C   UNL     1      -9.918  -4.410   5.058  0.00  0.00    +0.003 C 
ATOM      9  C   UNL     1      -8.948  -4.481   3.876  0.00  0.00    +0.035 C 
ATOM     10  N   UNL     1      -7.758  -2.445   4.576  0.00  0.00    -0.284 N 
ATOM     11  C   UNL     1      -6.977  -1.788   3.697  0.00  0.00    +0.326 C 
ATOM     12  O   UNL     1      -6.863  -0.579   3.666  0.00  0.00    -0.251 OA
ATOM     13  H   UNL     1      -8.309  -2.051   5.271  0.00  0.00    +0.151 HD
ENDROOT
BRANCH   1  16
ATOM     14  C   UNL     1      -4.232  -1.772   2.155  0.00  0.00    +0.267 C 
ATOM     15  O   UNL     1      -3.869  -1.752   3.316  0.00  0.00    -0.268 OA
ATOM     16  N   UNL     1      -5.473  -2.198   1.844  0.00  0.00    -0.219 N 
ATOM     17  H   UNL     1      -5.763  -2.214   0.919  0.00  0.00    +0.174 HD
BRANCH  14  20
ATOM     18  C   UNL     1      -1.412  -0.526   0.013  0.00  0.00    -0.037 A 
ATOM     19  C   UNL     1      -2.020  -0.865   1.197  0.00  0.00    +0.024 A 
ATOM     20  C   UNL     1      -3.321  -1.333   1.094  0.00  0.00    +0.076 A 
ATOM     21  S   UNL     1      -3.596  -1.263  -0.666  0.00  0.00    -0.089 S 
ATOM     22  C   UNL     1      -2.103  -0.662  -1.146  0.00  0.00    -0.009 A 
ATOM     23  C   UNL     1      -1.637  -0.347  -2.544  0.00  0.00    +0.052 C 
BRANCH  18  25
ATOM     24  C   UNL     1      -0.019   1.526   0.010  0.00  0.00    +0.009 C 
ATOM     25  C   UNL     1       0.002  -0.004   0.002  0.00  0.00    +0.032 C 
ENDBRANCH  18  25
ENDBRANCH  14  20
ENDBRANCH   1  16
TORSDOF 3
