REMARK  Name = ZINC43428243
REMARK  4 active torsions:
REMARK  status: ('A' for Active; 'I' for Inactive)
REMARK    1  A    between atoms: C_3  and  S_9
REMARK    2  A    between atoms: C_6  and  N_7
REMARK    3  A    between atoms: N_7  and  N_8
REMARK    4  A    between atoms: S_9  and  N_12
REMARK                            x       y       z     vdW  Elec       q    Type
REMARK                         _______ _______ _______ _____ _____    ______ ____
ROOT
ATOM      1  S   UNL     1       3.890   2.319  -0.024  0.00  0.00    +0.061 S 
ATOM      2  O   UNL     1       4.872   1.461  -0.589  0.00  0.00    -0.153 OA
ATOM      3  O   UNL     1       3.595   3.599  -0.566  0.00  0.00    -0.153 OA
ENDROOT
BRANCH   1   4
ATOM      4  N   UNL     1       4.326   2.562   1.555  0.00  0.00    -0.169 NA
ATOM      5  C   UNL     1       3.877   3.752   2.295  0.00  0.00    +0.138 C 
ATOM      6  C   UNL     1       3.260   3.298   3.623  0.00  0.00    +0.177 C 
ATOM      7  O   UNL     1       4.175   2.431   4.300  0.00  0.00    -0.374 OA
ATOM      8  C   UNL     1       4.479   1.235   3.582  0.00  0.00    +0.137 C 
ATOM      9  C   UNL     1       5.175   1.591   2.271  0.00  0.00    +0.109 C 
ATOM     10  C   UNL     1       6.519   2.258   2.573  0.00  0.00    +0.023 C 
ATOM     11  C   UNL     1       7.392   1.313   3.399  0.00  0.00    +0.002 C 
ATOM     12  C   UNL     1       6.686   0.999   4.721  0.00  0.00    +0.003 C 
ATOM     13  C   UNL     1       5.373   0.325   4.418  0.00  0.00    +0.033 C 
ENDBRANCH   1   4
BRANCH   1  16
ATOM     14  C   UNL     1      -0.017   1.385   0.010  0.00  0.00    +0.026 A 
ATOM     15  C   UNL     1       1.171   2.090   0.002  0.00  0.00    +0.030 A 
ATOM     16  C   UNL     1       2.377   1.415  -0.013  0.00  0.00    +0.106 A 
ATOM     17  C   UNL     1       2.400   0.032  -0.021  0.00  0.00    +0.030 A 
ATOM     18  C   UNL     1       1.216  -0.679  -0.014  0.00  0.00    +0.026 A 
ATOM     19  C   UNL     1       0.002  -0.004   0.002  0.00  0.00    +0.041 A 
BRANCH  19  20
ATOM     20  N   UNL     1      -1.197  -0.720   0.010  0.00  0.00    -0.283 N 
ATOM     21  H   UNL     1      -2.044  -0.248   0.021  0.00  0.00    +0.166 HD
BRANCH  20  22
ATOM     22  N   UNL     1      -1.177  -2.086   0.003  0.00  0.00    -0.257 NA
ATOM     23  H   UNL     1      -2.113  -2.462   0.010  0.00  0.00    +0.140 HD
ATOM     24  H   UNL     1      -0.653  -2.436  -0.786  0.00  0.00    +0.140 HD
ENDBRANCH  20  22
ENDBRANCH  19  20
ENDBRANCH   1  16
TORSDOF 4
