REMARK  Name = ZINC36606164
REMARK  14 active torsions:
REMARK  status: ('A' for Active; 'I' for Inactive)
REMARK    1  A    between atoms: C_1  and  C_2
REMARK    2  A    between atoms: C_2  and  C_3
REMARK    3  A    between atoms: C_3  and  C_4
REMARK    4  A    between atoms: C_4  and  C_5
REMARK    5  A    between atoms: C_5  and  C_6
REMARK    6  A    between atoms: C_7  and  C_8
REMARK    7  A    between atoms: N_10  and  C_11
REMARK    8  A    between atoms: N_10  and  C_17
REMARK    9  A    between atoms: C_17  and  C_19
REMARK   10  A    between atoms: C_17  and  C_28
REMARK   11  A    between atoms: C_20  and  O_27
REMARK   12  A    between atoms: C_22  and  O_26
REMARK   13  A    between atoms: C_24  and  O_25
REMARK   14  A    between atoms: N_30  and  C_31
REMARK                            x       y       z     vdW  Elec       q    Type
REMARK                         _______ _______ _______ _____ _____    ______ ____
ROOT
ATOM      1  C   UNL     1       6.452  -4.089   2.558  0.00  0.00    +0.204 C 
ENDROOT
BRANCH   1   2
ATOM      2  C   UNL     1       6.650  -4.801   1.245  0.00  0.00    +0.065 A 
ATOM      3  C   UNL     1       6.078  -6.047   1.039  0.00  0.00    +0.129 A 
ATOM      4  C   UNL     1       6.260  -6.703  -0.169  0.00  0.00    +0.091 A 
ATOM      5  C   UNL     1       7.015  -6.112  -1.172  0.00  0.00    +0.124 A 
ATOM      6  C   UNL     1       7.586  -4.865  -0.966  0.00  0.00    +0.091 A 
ATOM      7  C   UNL     1       7.400  -4.208   0.241  0.00  0.00    +0.129 A 
BRANCH   7   8
ATOM      8  O   UNL     1       7.956  -2.984   0.441  0.00  0.00    -0.506 OA
ATOM      9  H   UNL     1       8.846  -3.013   0.817  0.00  0.00    +0.292 HD
ENDBRANCH   7   8
BRANCH   5  10
ATOM     10  O   UNL     1       7.194  -6.755  -2.356  0.00  0.00    -0.507 OA
ATOM     11  H   UNL     1       6.519  -6.555  -3.018  0.00  0.00    +0.292 HD
ENDBRANCH   5  10
BRANCH   3  12
ATOM     12  O   UNL     1       5.339  -6.627   2.021  0.00  0.00    -0.506 OA
ATOM     13  H   UNL     1       4.388  -6.467   1.944  0.00  0.00    +0.292 HD
ENDBRANCH   3  12
ENDBRANCH   1   2
BRANCH   1  14
ATOM     14  C   UNL     1       7.297  -4.746   3.619  0.00  0.00    +0.239 C 
ATOM     15  O   UNL     1       6.858  -5.686   4.247  0.00  0.00    -0.273 OA
ATOM     16  N   UNL     1       8.539  -4.288   3.870  0.00  0.00    -0.311 N 
ATOM     17  H   UNL     1       8.890  -3.536   3.368  0.00  0.00    +0.149 HD
BRANCH  16  18
ATOM     18  C   UNL     1       9.361  -4.927   4.901  0.00  0.00    +0.073 C 
ATOM     19  C   UNL     1       9.022  -4.327   6.267  0.00  0.00    +0.022 C 
ATOM     20  C   UNL     1       9.880  -4.994   7.344  0.00  0.00    +0.002 C 
ATOM     21  C   UNL     1      11.360  -4.758   7.035  0.00  0.00    +0.000 C 
ATOM     22  C   UNL     1      11.699  -5.359   5.669  0.00  0.00    +0.002 C 
ATOM     23  C   UNL     1      10.841  -4.691   4.593  0.00  0.00    +0.022 C 
ENDBRANCH  16  18
ENDBRANCH   1  14
BRANCH   1  26
ATOM     24  C   UNL     1       4.079  -3.907   2.034  0.00  0.00    +0.244 C 
ATOM     25  O   UNL     1       4.383  -3.542   0.914  0.00  0.00    -0.270 OA
ATOM     26  N   UNL     1       5.040  -4.160   2.944  0.00  0.00    -0.252 N 
BRANCH  26  27
ATOM     27  C   UNL     1       4.690  -4.492   4.257  0.00  0.00    +0.038 A 
ATOM     28  C   UNL     1       5.026  -3.642   5.303  0.00  0.00    +0.023 A 
ATOM     29  C   UNL     1       4.679  -3.973   6.598  0.00  0.00    +0.002 A 
ATOM     30  C   UNL     1       3.998  -5.149   6.854  0.00  0.00    +0.000 A 
ATOM     31  C   UNL     1       3.664  -5.998   5.815  0.00  0.00    +0.002 A 
ATOM     32  C   UNL     1       4.002  -5.670   4.517  0.00  0.00    +0.023 A 
ENDBRANCH  26  27
BRANCH  24  34
ATOM     33  C   UNL     1       1.721  -3.963   1.462  0.00  0.00    -0.022 C 
ATOM     34  C   UNL     1       2.663  -4.070   2.396  0.00  0.00    +0.063 C 
BRANCH  33  35
ATOM     35  C   UNL     1       2.107  -3.913   0.006  0.00  0.00    +0.027 C 
BRANCH  35  36
ATOM     36  C   UNL     1       1.196  -4.845  -0.795  0.00  0.00    +0.004 C 
BRANCH  36  37
ATOM     37  C   UNL     1       1.587  -4.794  -2.273  0.00  0.00    +0.000 C 
BRANCH  37  39
ATOM     38  C   UNL     1       1.067  -5.675  -4.553  0.00  0.00    +0.004 C 
ATOM     39  C   UNL     1       0.676  -5.726  -3.075  0.00  0.00    -0.003 C 
ENDBRANCH  37  39
ENDBRANCH  36  37
ENDBRANCH  35  36
ENDBRANCH  33  35
ENDBRANCH  24  34
ENDBRANCH   1  26
TORSDOF 13
