REMARK  Name = ZINC45070980
REMARK  8 active torsions:
REMARK  status: ('A' for Active; 'I' for Inactive)
REMARK    1  A    between atoms: C_1  and  C_2
REMARK    2  A    between atoms: C_2  and  O_3
REMARK    3  A    between atoms: O_3  and  C_4
REMARK    4  A    between atoms: N_6  and  N_7
REMARK    5  A    between atoms: N_10  and  C_11
REMARK    6  A    between atoms: C_18  and  C_22
REMARK    7  A    between atoms: C_19  and  C_20
REMARK    8  A    between atoms: C_19  and  C_21
REMARK                            x       y       z     vdW  Elec       q    Type
REMARK                         _______ _______ _______ _____ _____    ______ ____
ROOT
ATOM      1  N   UNL     1       1.846  -1.501  -3.343  0.00  0.00    -0.216 N 
ATOM      2  C   UNL     1       2.461  -1.984  -4.441  0.00  0.00    +0.316 C 
ATOM      3  O   UNL     1       2.781  -1.230  -5.340  0.00  0.00    -0.251 OA
ATOM      4  N   UNL     1       2.721  -3.303  -4.543  0.00  0.00    -0.295 N 
ATOM      5  H   UNL     1       1.659  -0.552  -3.270  0.00  0.00    +0.174 HD
ATOM      6  H   UNL     1       2.466  -3.904  -3.826  0.00  0.00    +0.151 HD
ENDROOT
BRANCH   4   7
ATOM      7  C   UNL     1       3.390  -3.827  -5.736  0.00  0.00    +0.081 C 
ATOM      8  C   UNL     1       2.367  -4.048  -6.873  0.00  0.00    +0.027 C 
ATOM      9  C   UNL     1       2.431  -5.578  -7.170  0.00  0.00    -0.003 C 
ATOM     10  C   UNL     1       3.813  -5.784  -7.863  0.00  0.00    +0.005 C 
ATOM     11  C   UNL     1       4.851  -5.559  -6.740  0.00  0.00    +0.009 C 
ATOM     12  C   UNL     1       3.979  -5.243  -5.451  0.00  0.00    -0.008 C 
ATOM     13  C   UNL     1       2.718  -6.140  -5.732  0.00  0.00    -0.025 C 
ATOM     14  C   UNL     1       1.574  -5.843  -4.761  0.00  0.00    +0.012 C 
ATOM     15  C   UNL     1       3.068  -7.629  -5.758  0.00  0.00    +0.012 C 
ATOM     16  C   UNL     1       4.669  -5.420  -4.097  0.00  0.00    +0.013 C 
ENDBRANCH   4   7
BRANCH   1  19
ATOM     17  C   UNL     1       0.862  -1.887  -1.210  0.00  0.00    +0.417 C 
ATOM     18  O   UNL     1       0.543  -2.641  -0.312  0.00  0.00    -0.225 OA
ATOM     19  N   UNL     1       1.477  -2.370  -2.308  0.00  0.00    -0.198 N 
ATOM     20  H   UNL     1       1.665  -3.319  -2.381  0.00  0.00    +0.176 HD
BRANCH  17  21
ATOM     21  O   UNL     1       0.602  -0.570  -1.108  0.00  0.00    -0.450 OA
BRANCH  21  23
ATOM     22  C   UNL     1      -0.262   1.386   0.017  0.00  0.00    +0.048 C 
ATOM     23  C   UNL     1      -0.052  -0.128   0.083  0.00  0.00    +0.230 C 
ENDBRANCH  21  23
ENDBRANCH  17  21
ENDBRANCH   1  19
TORSDOF 4
