REMARK  Name = ZINC35894647
REMARK  6 active torsions:
REMARK  status: ('A' for Active; 'I' for Inactive)
REMARK    1  A    between atoms: C_1  and  C_2
REMARK    2  A    between atoms: C_2  and  C_3
REMARK    3  A    between atoms: C_2  and  N_4
REMARK    4  A    between atoms: C_5  and  C_7
REMARK    5  A    between atoms: C_12  and  N_30
REMARK    6  A    between atoms: N_20  and  C_23
REMARK                            x       y       z     vdW  Elec       q    Type
REMARK                         _______ _______ _______ _____ _____    ______ ____
ROOT
ATOM      1  C   UNL     1      -3.053  -2.255  -0.446  0.00  0.00    +0.101 C 
ATOM      2  C   UNL     1      -3.939  -1.307  -1.253  0.00  0.00    +0.051 C 
ATOM      3  C   UNL     1      -5.330  -1.884  -1.318  0.00  0.00    -0.023 A 
ATOM      4  C   UNL     1      -6.416  -1.035  -1.430  0.00  0.00    +0.038 A 
ATOM      5  C   UNL     1      -7.696  -1.554  -1.479  0.00  0.00    +0.127 A 
ATOM      6  C   UNL     1      -7.894  -2.921  -1.416  0.00  0.00    +0.034 A 
ATOM      7  C   UNL     1      -6.812  -3.772  -1.310  0.00  0.00    +0.025 A 
ATOM      8  C   UNL     1      -5.521  -3.252  -1.265  0.00  0.00    +0.033 A 
ATOM      9  N   UNL     1      -4.439  -4.146  -1.183  0.00  0.00    -0.323 N 
ATOM     10  C   UNL     1      -3.078  -3.653  -1.071  0.00  0.00    +0.103 C 
ATOM     11  C   UNL     1      -2.173  -4.559  -0.254  0.00  0.00    +0.128 C 
ATOM     12  N   UNL     1      -2.515  -5.962  -0.377  0.00  0.00    -0.327 N 
ATOM     13  C   UNL     1      -3.890  -6.434  -0.393  0.00  0.00    +0.124 C 
ATOM     14  C   UNL     1      -4.762  -5.569  -1.274  0.00  0.00    +0.124 C 
ENDROOT
BRANCH  12  15
ATOM     15  C   UNL     1      -1.484  -6.898  -0.484  0.00  0.00    +0.031 A 
ATOM     16  C   UNL     1      -0.165  -6.472  -0.585  0.00  0.00    +0.023 A 
ATOM     17  C   UNL     1       0.853  -7.399  -0.690  0.00  0.00    +0.003 A 
ATOM     18  C   UNL     1       0.561  -8.751  -0.696  0.00  0.00    +0.020 A 
ATOM     19  C   UNL     1      -0.750  -9.179  -0.596  0.00  0.00    +0.043 A 
ATOM     20  C   UNL     1      -1.774  -8.256  -0.484  0.00  0.00    +0.043 A 
ATOM     21 CL   UNL     1      -1.111 -10.877  -0.604  0.00  0.00    -0.083 Cl
ENDBRANCH  12  15
BRANCH   1  23
ATOM     22  N   UNL     1      -1.371  -0.516   0.070  0.00  0.00    -0.313 N 
ATOM     23  C   UNL     1      -1.639  -1.734  -0.440  0.00  0.00    +0.218 C 
ATOM     24  O   UNL     1      -0.741  -2.412  -0.895  0.00  0.00    -0.275 OA
ATOM     25  H   UNL     1      -2.088   0.026   0.434  0.00  0.00    +0.149 HD
BRANCH  22  27
ATOM     26  C   UNL     1      -0.015   1.520   0.097  0.00  0.00    +0.027 C 
ATOM     27  C   UNL     1       0.004  -0.010   0.075  0.00  0.00    +0.067 C 
ATOM     28  C   UNL     1       0.734  -0.529   1.316  0.00  0.00    +0.027 C 
ENDBRANCH  22  27
ENDBRANCH   1  23
BRANCH   5  29
ATOM     29  N   UNL     1      -8.858  -0.644  -1.598  0.00  0.00    +0.056 N 
ATOM     30  O   UNL     1      -8.686   0.551  -1.653  0.00  0.00    -0.126 OA
ATOM     31  O   UNL     1      -9.978  -1.097  -1.641  0.00  0.00    -0.126 OA
ENDBRANCH   5  29
TORSDOF 4
