REMARK  Name = ZINC21294961
REMARK  4 active torsions:
REMARK  status: ('A' for Active; 'I' for Inactive)
REMARK    1  A    between atoms: C_1  and  C_2
REMARK    2  A    between atoms: C_2  and  N_3
REMARK    3  A    between atoms: C_12  and  C_14
REMARK    4  A    between atoms: C_17  and  N_20
REMARK                            x       y       z     vdW  Elec       q    Type
REMARK                         _______ _______ _______ _____ _____    ______ ____
ROOT
ATOM      1  N   UNL     1       0.690  -0.478  -1.207  0.00  0.00    -0.297 NA
ATOM      2  C   UNL     1       0.531  -1.930  -1.368  0.00  0.00    +0.091 C 
ATOM      3  C   UNL     1       0.914  -2.353  -2.789  0.00  0.00    +0.071 C 
ATOM      4  C   UNL     1       2.294  -1.785  -3.096  0.00  0.00    +0.056 A 
ATOM      5  C   UNL     1       2.788  -0.772  -2.335  0.00  0.00    +0.028 A 
ATOM      6  S   UNL     1       4.372  -0.478  -3.068  0.00  0.00    -0.055 S 
ATOM      7  C   UNL     1       4.278  -1.654  -4.272  0.00  0.00    +0.165 A 
ATOM      8  N   UNL     1       3.095  -2.196  -4.071  0.00  0.00    -0.229 NA
ATOM      9  N   UNL     1       5.219  -1.974  -5.242  0.00  0.00    -0.261 N 
ATOM     10  C   UNL     1       4.966  -2.955  -6.130  0.00  0.00    +0.250 C 
ATOM     11  O   UNL     1       3.913  -3.561  -6.083  0.00  0.00    -0.270 OA
ATOM     12  C   UNL     1       2.119  -0.107  -1.182  0.00  0.00    +0.128 C 
ATOM     13  H   UNL     1       6.059  -1.490  -5.280  0.00  0.00    +0.157 HD
ENDROOT
BRANCH  10  14
ATOM     14  C   UNL     1       5.968  -3.295  -7.162  0.00  0.00    +0.037 A 
ATOM     15  C   UNL     1       7.180  -2.605  -7.216  0.00  0.00    +0.015 A 
ATOM     16  C   UNL     1       8.111  -2.928  -8.182  0.00  0.00    +0.033 A 
ATOM     17  C   UNL     1       7.845  -3.932  -9.095  0.00  0.00    +0.126 A 
ATOM     18  C   UNL     1       6.646  -4.620  -9.048  0.00  0.00    +0.033 A 
ATOM     19  C   UNL     1       5.708  -4.311  -8.084  0.00  0.00    +0.015 A 
BRANCH  17  20
ATOM     20  N   UNL     1       8.849  -4.272 -10.129  0.00  0.00    +0.056 N 
ATOM     21  O   UNL     1       9.898  -3.673 -10.173  0.00  0.00    -0.126 OA
ATOM     22  O   UNL     1       8.620  -5.150 -10.929  0.00  0.00    -0.126 OA
ENDBRANCH  17  20
ENDBRANCH  10  14
BRANCH   1  24
ATOM     23  C   UNL     1      -0.019   1.526   0.010  0.00  0.00    +0.020 C 
ATOM     24  C   UNL     1       0.002  -0.004   0.002  0.00  0.00    +0.081 C 
ENDBRANCH   1  24
TORSDOF 3
