REMARK  Name = ZINC13124469
REMARK  9 active torsions:
REMARK  status: ('A' for Active; 'I' for Inactive)
REMARK    1  A    between atoms: C_1  and  C_2
REMARK    2  A    between atoms: C_2  and  C_3
REMARK    3  A    between atoms: C_3  and  C_4
REMARK    4  A    between atoms: C_5  and  C_21
REMARK    5  A    between atoms: C_6  and  C_14
REMARK    6  A    between atoms: C_17  and  O_20
REMARK    7  A    between atoms: C_21  and  O_23
REMARK    8  A    between atoms: O_23  and  C_24
REMARK    9  A    between atoms: C_24  and  C_25
REMARK                            x       y       z     vdW  Elec       q    Type
REMARK                         _______ _______ _______ _____ _____    ______ ____
ROOT
ATOM      1  C   UNL     1       0.811  -2.021   1.314  0.00  0.00    +0.023 C 
ATOM      2  C   UNL     1       1.786  -2.649   0.637  0.00  0.00    +0.082 C 
ATOM      3  C   UNL     1       1.841  -4.145   0.474  0.00  0.00    +0.179 C 
ATOM      4  N   UNL     1       0.880  -4.768   1.380  0.00  0.00    -0.221 N 
ATOM      5  C   UNL     1      -0.080  -4.079   2.046  0.00  0.00    +0.218 A 
ATOM      6  N   UNL     1      -0.766  -4.931   2.757  0.00  0.00    -0.201 NA
ATOM      7  C   UNL     1      -0.277  -6.162   2.577  0.00  0.00    +0.247 A 
ATOM      8  N   UNL     1       0.732  -6.106   1.742  0.00  0.00    -0.156 NA
ATOM      9  N   UNL     1      -0.210  -2.703   1.926  0.00  0.00    -0.287 N 
ATOM     10  H   UNL     1      -0.995  -2.242   2.260  0.00  0.00    +0.155 HD
ENDROOT
BRANCH   3  11
ATOM     11  C   UNL     1       1.498  -4.508  -0.948  0.00  0.00    -0.018 A 
ATOM     12  C   UNL     1       0.270  -4.153  -1.475  0.00  0.00    +0.009 A 
ATOM     13  C   UNL     1      -0.046  -4.485  -2.778  0.00  0.00    +0.046 A 
ATOM     14  C   UNL     1       0.870  -5.174  -3.559  0.00  0.00    +0.117 A 
ATOM     15  C   UNL     1       2.103  -5.528  -3.029  0.00  0.00    +0.046 A 
ATOM     16  C   UNL     1       2.416  -5.189  -1.727  0.00  0.00    +0.009 A 
BRANCH  14  17
ATOM     17  O   UNL     1       0.561  -5.502  -4.841  0.00  0.00    -0.507 OA
ATOM     18  H   UNL     1       0.811  -4.830  -5.490  0.00  0.00    +0.292 HD
ENDBRANCH  14  17
ENDBRANCH   3  11
BRANCH   2  19
ATOM     19  C   UNL     1       2.808  -1.870   0.051  0.00  0.00    +0.339 C 
ATOM     20  O   UNL     1       2.767  -1.605  -1.136  0.00  0.00    -0.245 OA
BRANCH  19  21
ATOM     21  O   UNL     1       3.831  -1.419   0.808  0.00  0.00    -0.462 OA
BRANCH  21  22
ATOM     22  C   UNL     1       4.830  -0.637   0.149  0.00  0.00    +0.229 C 
ATOM     23  C   UNL     1       5.899  -0.220   1.161  0.00  0.00    +0.048 C 
ENDBRANCH  21  22
ENDBRANCH  19  21
ENDBRANCH   2  19
BRANCH   1  24
ATOM     24  C   UNL     1       0.843  -0.518   1.409  0.00  0.00    +0.051 C 
BRANCH  24  26
ATOM     25  C   UNL     1       0.057   1.609   0.360  0.00  0.00    +0.004 C 
ATOM     26  C   UNL     1       0.025   0.083   0.263  0.00  0.00    +0.002 C 
ENDBRANCH  24  26
ENDBRANCH   1  24
TORSDOF 7
