REMARK  Name = ZINC14660689
REMARK  14 active torsions:
REMARK  status: ('A' for Active; 'I' for Inactive)
REMARK    1  A    between atoms: C_1  and  C_2
REMARK    2  A    between atoms: C_2  and  C_3
REMARK    3  A    between atoms: C_2  and  C_4
REMARK    4  A    between atoms: C_2  and  C_5
REMARK    5  A    between atoms: C_8  and  C_11
REMARK    6  A    between atoms: N_13  and  N_14
REMARK    7  A    between atoms: N_14  and  C_15
REMARK    8  A    between atoms: C_15  and  N_17
REMARK    9  A    between atoms: C_18  and  C_20
REMARK   10  A    between atoms: C_25  and  O_26
REMARK   11  A    between atoms: O_26  and  C_27
REMARK   12  A    between atoms: C_27  and  C_28
REMARK   13  A    between atoms: C_28  and  O_29
REMARK   14  A    between atoms: O_29  and  C_30
REMARK                            x       y       z     vdW  Elec       q    Type
REMARK                         _______ _______ _______ _____ _____    ______ ____
ROOT
ATOM      1  C   UNL     1       3.524   1.907  -0.021  0.00  0.00    +0.153 C 
ATOM      2  S   UNL     1       5.018   1.071  -0.040  0.00  0.00    -0.017 S 
ENDROOT
BRANCH   1   3
ATOM      3  N   UNL     1       3.506   3.254  -0.014  0.00  0.00    -0.263 N 
ATOM      4  C   UNL     1       4.664   3.944  -0.021  0.00  0.00    +0.253 C 
ATOM      5  O   UNL     1       5.724   3.351  -0.035  0.00  0.00    -0.270 OA
ATOM      6  H   UNL     1       2.659   3.728  -0.003  0.00  0.00    +0.157 HD
BRANCH   4   7
ATOM      7  C   UNL     1       4.644   5.418  -0.013  0.00  0.00    +0.079 A 
ATOM      8  C   UNL     1       3.426   6.105  -0.004  0.00  0.00    +0.017 A 
ATOM      9  C   UNL     1       3.415   7.482   0.009  0.00  0.00    +0.001 A 
ATOM     10  C   UNL     1       4.605   8.192   0.001  0.00  0.00    +0.004 A 
ATOM     11  C   UNL     1       5.815   7.527  -0.013  0.00  0.00    +0.046 A 
ATOM     12  C   UNL     1       5.846   6.140  -0.021  0.00  0.00    +0.133 A 
BRANCH  12  13
ATOM     13  O   UNL     1       7.033   5.485  -0.036  0.00  0.00    -0.489 OA
BRANCH  13  14
ATOM     14  C   UNL     1       8.216   6.287  -0.043  0.00  0.00    +0.257 C 
BRANCH  14  15
ATOM     15  C   UNL     1       9.448   5.379  -0.059  0.00  0.00    +0.200 C 
BRANCH  15  16
ATOM     16  O   UNL     1       9.481   4.644  -1.285  0.00  0.00    -0.380 OA
ATOM     17  C   UNL     1      10.599   3.761  -1.402  0.00  0.00    +0.194 C 
ENDBRANCH  15  16
ENDBRANCH  14  15
ENDBRANCH  13  14
ENDBRANCH  12  13
ENDBRANCH   4   7
ENDBRANCH   1   3
BRANCH   1  18
ATOM     18  N   UNL     1       2.366   1.217  -0.014  0.00  0.00    -0.245 N 
ATOM     19  H   UNL     1       2.379   0.247  -0.019  0.00  0.00    +0.172 HD
BRANCH  18  22
ATOM     20  C   UNL     1      -0.014   1.211   0.009  0.00  0.00    +0.260 C 
ATOM     21  O   UNL     1       0.002  -0.004   0.002  0.00  0.00    -0.269 OA
ATOM     22  N   UNL     1       1.143   1.901   0.001  0.00  0.00    -0.231 N 
ATOM     23  H   UNL     1       1.130   2.871   0.007  0.00  0.00    +0.173 HD
BRANCH  20  27
ATOM     24  C   UNL     1      -3.721   3.285   0.039  0.00  0.00    -0.042 A 
ATOM     25  C   UNL     1      -3.706   1.901   0.030  0.00  0.00    +0.005 A 
ATOM     26  C   UNL     1      -2.506   1.222   0.021  0.00  0.00    +0.013 A 
ATOM     27  C   UNL     1      -1.305   1.933   0.019  0.00  0.00    +0.038 A 
ATOM     28  C   UNL     1      -1.327   3.329   0.032  0.00  0.00    +0.013 A 
ATOM     29  C   UNL     1      -2.534   3.996   0.037  0.00  0.00    +0.005 A 
BRANCH  24  31
ATOM     30  C   UNL     1      -5.828   3.632   1.300  0.00  0.00    +0.015 C 
ATOM     31  C   UNL     1      -5.037   4.021   0.050  0.00  0.00    -0.013 C 
ATOM     32  C   UNL     1      -4.777   5.529   0.058  0.00  0.00    +0.015 C 
ATOM     33  C   UNL     1      -5.840   3.648  -1.198  0.00  0.00    +0.015 C 
ENDBRANCH  24  31
ENDBRANCH  20  27
ENDBRANCH  18  22
ENDBRANCH   1  18
TORSDOF 10
