REMARK  Name = ZINC58020581
REMARK  4 active torsions:
REMARK  status: ('A' for Active; 'I' for Inactive)
REMARK    1  A    between atoms: C_4  and  S_13
REMARK    2  A    between atoms: C_7  and  N_12
REMARK    3  A    between atoms: S_13  and  N_16
REMARK    4  A    between atoms: N_16  and  C_17
REMARK                            x       y       z     vdW  Elec       q    Type
REMARK                         _______ _______ _______ _____ _____    ______ ____
ROOT
ATOM      1  C   UNL     1       0.510   1.962  -0.002  0.00  0.00    +0.025 A 
ATOM      2  C   UNL     1       1.789   2.479  -0.089  0.00  0.00    +0.043 A 
ATOM      3  C   UNL     1       2.879   1.628  -0.099  0.00  0.00    +0.052 A 
ATOM      4  C   UNL     1       2.688   0.263  -0.018  0.00  0.00    +0.148 A 
ATOM      5  C   UNL     1       1.403  -0.260   0.070  0.00  0.00    +0.148 A 
ATOM      6  C   UNL     1       0.313   0.594   0.077  0.00  0.00    -0.017 A 
ATOM      7  C   UNL     1      -1.097   0.068   0.161  0.00  0.00    -0.037 C 
ATOM      8  C   UNL     1      -1.079  -1.375   0.671  0.00  0.00    +0.029 C 
ATOM      9  C   UNL     1      -0.032  -2.158  -0.131  0.00  0.00    +0.228 C 
ATOM     10  O   UNL     1       1.256  -1.608   0.152  0.00  0.00    -0.490 OA
ATOM     11 CL   UNL     1       2.027   4.196  -0.188  0.00  0.00    -0.083 Cl
ENDROOT
BRANCH   7  12
ATOM     12  N   UNL     1      -1.876   0.903   1.085  0.00  0.00    +0.383 N 
ATOM     13  H   UNL     1      -1.891   1.853   0.747  0.00  0.00    -0.089 HD
ATOM     14  H   UNL     1      -2.820   0.551   1.141  0.00  0.00    -0.089 HD
ATOM     15  H   UNL     1      -1.452   0.877   2.000  0.00  0.00    -0.089 HD
ENDBRANCH   7  12
BRANCH   4  16
ATOM     16  S   UNL     1       4.078  -0.820  -0.029  0.00  0.00    +0.062 S 
ATOM     17  O   UNL     1       5.231  -0.000  -0.167  0.00  0.00    -0.153 OA
ATOM     18  O   UNL     1       3.905  -1.714   1.062  0.00  0.00    -0.153 OA
BRANCH  16  19
ATOM     19  N   UNL     1       3.978  -1.731  -1.408  0.00  0.00    -0.187 NA
ATOM     20  H   UNL     1       3.844  -2.690  -1.347  0.00  0.00    +0.148 HD
BRANCH  19  21
ATOM     21  C   UNL     1       4.091  -1.090  -2.720  0.00  0.00    +0.077 C 
ATOM     22  C   UNL     1       3.280  -1.687  -3.871  0.00  0.00    +0.022 C 
ATOM     23  C   UNL     1       4.798  -1.871  -3.830  0.00  0.00    +0.022 C 
ENDBRANCH  19  21
ENDBRANCH  16  19
ENDBRANCH   4  16
TORSDOF 4
