REMARK  Name = ZINC21735680
REMARK  7 active torsions:
REMARK  status: ('A' for Active; 'I' for Inactive)
REMARK    1  A    between atoms: C_1  and  C_2
REMARK    2  A    between atoms: C_2  and  C_21
REMARK    3  A    between atoms: N_5  and  C_9
REMARK    4  A    between atoms: C_9  and  C_10
REMARK    5  A    between atoms: N_12  and  C_13
REMARK    6  A    between atoms: C_14  and  C_18
REMARK    7  A    between atoms: C_24  and  C_27
REMARK                            x       y       z     vdW  Elec       q    Type
REMARK                         _______ _______ _______ _____ _____    ______ ____
ROOT
ATOM      1  C   UNL     1       7.367   7.638  -1.139  0.00  0.00    +0.047 C 
ATOM      2  C   UNL     1       6.588   6.411  -0.660  0.00  0.00    +0.135 C 
ATOM      3  C   UNL     1       5.148   6.479  -1.127  0.00  0.00    +0.251 C 
ATOM      4  O   UNL     1       4.749   6.501  -2.272  0.00  0.00    -0.272 OA
ATOM      5  N   UNL     1       4.402   6.507  -0.005  0.00  0.00    -0.215 N 
ATOM      6  C   UNL     1       5.163   6.473   1.095  0.00  0.00    +0.310 C 
ATOM      7  O   UNL     1       4.718   6.492   2.225  0.00  0.00    -0.252 OA
ATOM      8  N   UNL     1       6.476   6.410   0.809  0.00  0.00    -0.281 N 
ATOM      9  H   UNL     1       7.383   6.362   1.429  0.00  0.00    +0.152 HD
ENDROOT
BRANCH   2  10
ATOM     10  C   UNL     1       7.244   5.143  -1.143  0.00  0.00    -0.015 A 
ATOM     11  C   UNL     1       6.829   4.563  -2.329  0.00  0.00    +0.007 A 
ATOM     12  C   UNL     1       7.428   3.405  -2.780  0.00  0.00    +0.019 A 
ATOM     13  C   UNL     1       8.447   2.813  -2.031  0.00  0.00    +0.052 A 
ATOM     14  C   UNL     1       8.857   3.401  -0.833  0.00  0.00    +0.019 A 
ATOM     15  C   UNL     1       8.253   4.562  -0.397  0.00  0.00    +0.007 A 
BRANCH  13  16
ATOM     16  C   UNL     1       9.069   1.607  -2.490  0.00  0.00    +0.099 C 
ATOM     17  N   UNL     1       9.563   0.651  -2.853  0.00  0.00    -0.191 NA
ENDBRANCH  13  16
ENDBRANCH   2  10
BRANCH   5  18
ATOM     18  C   UNL     1       2.938   6.574   0.009  0.00  0.00    +0.214 C 
BRANCH  18  19
ATOM     19  C   UNL     1       2.372   5.177   0.007  0.00  0.00    +0.236 C 
ATOM     20  O   UNL     1       3.117   4.220  -0.005  0.00  0.00    -0.274 OA
ATOM     21  N   UNL     1       1.037   4.991   0.018  0.00  0.00    -0.278 N 
ATOM     22  H   UNL     1       0.361   5.859   0.030  0.00  0.00    +0.155 HD
BRANCH  21  23
ATOM     23  C   UNL     1       0.516   3.706   0.016  0.00  0.00    +0.084 A 
ATOM     24  C   UNL     1      -0.818   3.316   0.027  0.00  0.00    +0.065 A 
ATOM     25  C   UNL     1      -1.079   1.896   0.017  0.00  0.00    +0.022 A 
ATOM     26  C   UNL     1      -0.013   1.076   0.008  0.00  0.00    +0.048 A 
ATOM     27  S   UNL     1       1.369   2.200   0.001  0.00  0.00    -0.081 S 
BRANCH  24  28
ATOM     28  C   UNL     1      -1.907   4.298   0.042  0.00  0.00    +0.244 C 
ATOM     29  O   UNL     1      -1.653   5.488   0.045  0.00  0.00    -0.270 OA
ATOM     30  N   UNL     1      -3.189   3.882   0.052  0.00  0.00    -0.325 N 
ATOM     31  H   UNL     1      -4.006   4.619   0.063  0.00  0.00    +0.145 HD
ATOM     32  H   UNL     1      -3.418   2.806   0.048  0.00  0.00    +0.145 HD
ENDBRANCH  24  28
ENDBRANCH  21  23
ENDBRANCH  18  19
ENDBRANCH   5  18
TORSDOF 6
