REMARK  Name = ZINC38580961
REMARK  3 active torsions:
REMARK  status: ('A' for Active; 'I' for Inactive)
REMARK    1  A    between atoms: N_7  and  C_11
REMARK    2  A    between atoms: C_13  and  O_26
REMARK    3  A    between atoms: P_22  and  O_25
REMARK                            x       y       z     vdW  Elec       q    Type
REMARK                         _______ _______ _______ _____ _____    ______ ____
ROOT
ATOM      1  C   UNL     1       0.595  -3.135  -0.019  0.00  0.00    +0.255 C 
ATOM      2  C   UNL     1       0.553  -3.782  -1.426  0.00  0.00    +0.196 C 
ATOM      3  C   UNL     1       1.075  -5.202  -1.178  0.00  0.00    +0.191 C 
ATOM      4  C   UNL     1       0.705  -5.394   0.318  0.00  0.00    +0.179 C 
ATOM      5  O   UNL     1       1.070  -4.145   0.905  0.00  0.00    -0.346 OA
ATOM      6  C   UNL     1       1.427  -6.615   0.853  0.00  0.00    +0.204 C 
ATOM      7  O   UNL     1       0.861  -7.764   0.178  0.00  0.00    -0.308 OA
ATOM      8  P   UNL     1       0.716  -7.772  -1.439  0.00  0.00    +0.306 P 
ATOM      9  S   UNL     1      -0.683  -8.893  -1.948  0.00  0.00    +0.022 S 
ATOM     10  O   UNL     1       0.394  -6.225  -1.910  0.00  0.00    -0.302 OA
ENDROOT
BRANCH   1  17
ATOM     11  C   UNL     1      -0.016   1.312   0.009  0.00  0.00    +0.225 A 
ATOM     12  N   UNL     1       1.089   2.036   0.003  0.00  0.00    -0.219 NA
ATOM     13  C   UNL     1       2.287   1.462  -0.012  0.00  0.00    +0.147 A 
ATOM     14  C   UNL     1       2.358   0.059  -0.020  0.00  0.00    +0.149 A 
ATOM     15  C   UNL     1       1.155  -0.666  -0.013  0.00  0.00    +0.169 A 
ATOM     16  N   UNL     1       0.002  -0.004   0.002  0.00  0.00    -0.216 NA
ATOM     17  N   UNL     1       1.510  -1.992  -0.022  0.00  0.00    -0.270 N 
ATOM     18  C   UNL     1       2.873  -2.049  -0.035  0.00  0.00    +0.208 A 
ATOM     19  N   UNL     1       3.369  -0.844  -0.034  0.00  0.00    -0.212 NA
ATOM     20 CL   UNL     1       3.809  -3.511  -0.051  0.00  0.00    -0.043 Cl
ATOM     21  N   UNL     1       3.440   2.229  -0.019  0.00  0.00    -0.341 N 
ATOM     22  H   UNL     1       3.378   3.197  -0.014  0.00  0.00    +0.144 HD
ATOM     23  H   UNL     1       4.309   1.799  -0.030  0.00  0.00    +0.144 HD
ENDBRANCH   1  17
BRANCH   8  24
ATOM     24  O   UNL     1       2.091  -8.270  -2.112  0.00  0.00    -0.327 OA
ATOM     25  H   UNL     1       2.357  -9.162  -1.850  0.00  0.00    +0.219 HD
ENDBRANCH   8  24
BRANCH   2  26
ATOM     26  O   UNL     1      -0.785  -3.814  -1.927  0.00  0.00    -0.385 OA
ATOM     27  H   UNL     1      -1.186  -2.940  -2.034  0.00  0.00    +0.210 HD
ENDBRANCH   2  26
TORSDOF 3
