REMARK  Name = ZINC16804736
REMARK  9 active torsions:
REMARK  status: ('A' for Active; 'I' for Inactive)
REMARK    1  A    between atoms: C_6  and  N_7
REMARK    2  A    between atoms: N_7  and  C_8
REMARK    3  A    between atoms: C_8  and  C_9
REMARK    4  A    between atoms: C_9  and  C_10
REMARK    5  A    between atoms: C_13  and  C_15
REMARK    6  A    between atoms: C_15  and  O_16
REMARK    7  A    between atoms: O_16  and  C_17
REMARK    8  A    between atoms: C_17  and  C_19
REMARK    9  A    between atoms: C_21  and  N_27
REMARK                            x       y       z     vdW  Elec       q    Type
REMARK                         _______ _______ _______ _____ _____    ______ ____
ROOT
ATOM      1  N   UNL     1      -0.698   1.558   1.213  0.00  0.00    -0.268 N 
ATOM      2  C   UNL     1      -0.306   2.716   1.781  0.00  0.00    +0.258 C 
ATOM      3  O   UNL     1      -0.894   3.145   2.751  0.00  0.00    -0.272 OA
ENDROOT
BRANCH   1   9
ATOM      4  C   UNL     1      -1.419  -0.447   2.353  0.00  0.00    +0.026 A 
ATOM      5  C   UNL     1      -2.419  -1.194   2.942  0.00  0.00    +0.040 A 
ATOM      6  C   UNL     1      -3.716  -0.711   2.978  0.00  0.00    +0.124 A 
ATOM      7  C   UNL     1      -4.012   0.525   2.429  0.00  0.00    +0.040 A 
ATOM      8  C   UNL     1      -3.014   1.279   1.843  0.00  0.00    +0.026 A 
ATOM      9  C   UNL     1      -1.712   0.796   1.806  0.00  0.00    +0.037 A 
ATOM     10  F   UNL     1      -4.695  -1.446   3.550  0.00  0.00    -0.205 F 
ENDBRANCH   1   9
BRANCH   1  11
ATOM     11  C   UNL     1      -0.064   1.097  -0.024  0.00  0.00    +0.123 C 
BRANCH  11  12
ATOM     12  C   UNL     1      -0.831   1.650  -1.227  0.00  0.00    +0.115 C 
BRANCH  12  13
ATOM     13  C   UNL     1      -0.178   1.176  -2.500  0.00  0.00    +0.212 C 
ATOM     14  O   UNL     1       0.804   0.466  -2.450  0.00  0.00    -0.276 OA
ATOM     15  N   UNL     1      -0.685   1.541  -3.694  0.00  0.00    -0.329 N 
ATOM     16  H   UNL     1      -0.208   1.195  -4.623  0.00  0.00    +0.145 HD
ATOM     17  H   UNL     1      -1.576   2.185  -3.739  0.00  0.00    +0.145 HD
ENDBRANCH  12  13
ENDBRANCH  11  12
ENDBRANCH   1  11
BRANCH   2  18
ATOM     18  C   UNL     1       0.862   3.477   1.210  0.00  0.00    +0.328 C 
BRANCH  18  19
ATOM     19  O   UNL     1       1.085   4.681   1.992  0.00  0.00    -0.451 OA
BRANCH  19  20
ATOM     20  C   UNL     1       2.100   5.479   1.611  0.00  0.00    +0.360 C 
ATOM     21  O   UNL     1       2.782   5.178   0.652  0.00  0.00    -0.243 OA
BRANCH  20  22
ATOM     22  C   UNL     1       2.386   6.721   2.361  0.00  0.00    +0.169 A 
ATOM     23  C   UNL     1       3.441   7.539   1.965  0.00  0.00    +0.095 A 
ATOM     24  C   UNL     1       3.694   8.710   2.679  0.00  0.00    +0.067 A 
ATOM     25  C   UNL     1       2.881   9.008   3.772  0.00  0.00    +0.100 A 
ATOM     26  C   UNL     1       1.853   8.140   4.107  0.00  0.00    +0.150 A 
ATOM     27  N   UNL     1       1.636   7.045   3.410  0.00  0.00    -0.226 NA
ATOM     28 CL   UNL     1       0.836   8.504   5.466  0.00  0.00    -0.060 Cl
ATOM     29 CL   UNL     1       3.153  10.448   4.702  0.00  0.00    -0.078 Cl
ATOM     30 CL   UNL     1       4.423   7.110   0.599  0.00  0.00    -0.079 Cl
BRANCH  24  31
ATOM     31  N   UNL     1       4.737   9.559   2.313  0.00  0.00    -0.356 N 
ATOM     32  H   UNL     1       4.924  10.479   2.886  0.00  0.00    +0.142 HD
ATOM     33  H   UNL     1       5.372   9.309   1.452  0.00  0.00    +0.142 HD
ENDBRANCH  24  31
ENDBRANCH  20  22
ENDBRANCH  19  20
ENDBRANCH  18  19
ENDBRANCH   2  18
TORSDOF 9
