REMARK  Name = ZINC67123732
REMARK  6 active torsions:
REMARK  status: ('A' for Active; 'I' for Inactive)
REMARK    1  A    between atoms: C_1  and  C_2
REMARK    2  A    between atoms: C_2  and  C_4
REMARK    3  A    between atoms: C_2  and  N_11
REMARK    4  A    between atoms: C_12  and  C_14
REMARK    5  A    between atoms: N_16  and  C_19
REMARK    6  A    between atoms: C_23  and  N_25
REMARK                            x       y       z     vdW  Elec       q    Type
REMARK                         _______ _______ _______ _____ _____    ______ ____
ROOT
ATOM      1  C   UNL     1       0.697  -1.084  -3.572  0.00  0.00    +0.167 A 
ATOM      2  C   UNL     1       0.125  -1.255  -4.801  0.00  0.00    +0.149 A 
ATOM      3  N   UNL     1       1.097  -1.701  -5.626  0.00  0.00    -0.219 N 
ATOM      4  N   UNL     1       2.268  -1.792  -4.859  0.00  0.00    -0.060 NA
ATOM      5  N   UNL     1       1.996  -1.417  -3.657  0.00  0.00    -0.124 NA
ENDROOT
BRANCH   3   6
ATOM      6  C   UNL     1       0.963  -2.012  -6.986  0.00  0.00    +0.069 A 
ATOM      7  C   UNL     1      -0.267  -1.866  -7.615  0.00  0.00    +0.028 A 
ATOM      8  C   UNL     1      -0.396  -2.174  -8.955  0.00  0.00    +0.004 A 
ATOM      9  C   UNL     1       0.697  -2.627  -9.671  0.00  0.00    +0.033 A 
ATOM     10  C   UNL     1       1.922  -2.775  -9.047  0.00  0.00    +0.128 A 
ATOM     11  C   UNL     1       2.059  -2.462  -7.708  0.00  0.00    +0.060 A 
BRANCH  10  12
ATOM     12  N   UNL     1       3.089  -3.261  -9.816  0.00  0.00    +0.056 N 
ATOM     13  O   UNL     1       2.971  -3.530 -10.989  0.00  0.00    -0.126 OA
ATOM     14  O   UNL     1       4.161  -3.390  -9.272  0.00  0.00    -0.126 OA
ENDBRANCH  10  12
ENDBRANCH   3   6
BRANCH   1  16
ATOM     15  N   UNL     1       0.688  -0.476  -1.203  0.00  0.00    -0.303 N 
ATOM     16  C   UNL     1       0.006  -0.608  -2.358  0.00  0.00    +0.266 C 
ATOM     17  O   UNL     1      -1.178  -0.335  -2.400  0.00  0.00    -0.268 OA
ATOM     18  H   UNL     1       1.632  -0.695  -1.170  0.00  0.00    +0.150 HD
BRANCH  15  20
ATOM     19  C   UNL     1      -0.019   1.526   0.010  0.00  0.00    +0.033 C 
ATOM     20  C   UNL     1       0.002  -0.004   0.002  0.00  0.00    +0.100 C 
BRANCH  20  21
ATOM     21  C   UNL     1       0.731  -0.503   1.223  0.00  0.00    -0.027 A 
ATOM     22  C   UNL     1       2.113  -0.513   1.246  0.00  0.00    +0.008 A 
ATOM     23  C   UNL     1       2.783  -0.971   2.365  0.00  0.00    +0.038 A 
ATOM     24  C   UNL     1       2.068  -1.419   3.464  0.00  0.00    +0.123 A 
ATOM     25  C   UNL     1       0.684  -1.408   3.439  0.00  0.00    +0.038 A 
ATOM     26  C   UNL     1       0.017  -0.945   2.321  0.00  0.00    +0.008 A 
ATOM     27  F   UNL     1       2.722  -1.866   4.558  0.00  0.00    -0.205 F 
ENDBRANCH  20  21
ENDBRANCH  15  20
ENDBRANCH   1  16
TORSDOF 5
