REMARK  Name = ZINC04547792
REMARK  4 active torsions:
REMARK  status: ('A' for Active; 'I' for Inactive)
REMARK    1  A    between atoms: C_10  and  C_11
REMARK    2  A    between atoms: C_12  and  C_13
REMARK    3  A    between atoms: N_15  and  C_16
REMARK    4  A    between atoms: C_21  and  N_22
REMARK                            x       y       z     vdW  Elec       q    Type
REMARK                         _______ _______ _______ _____ _____    ______ ____
ROOT
ATOM      1  C   UNL     1       6.130   3.358  -0.059  0.00  0.00    +0.241 C 
ATOM      2  O   UNL     1       6.188   2.143  -0.051  0.00  0.00    -0.270 OA
ATOM      3  N   UNL     1       7.264   4.087  -0.063  0.00  0.00    -0.280 N 
ATOM      4  H   UNL     1       7.220   5.053  -0.135  0.00  0.00    +0.155 HD
ENDROOT
BRANCH   3   5
ATOM      5  C   UNL     1       8.505   3.450   0.035  0.00  0.00    +0.064 A 
ATOM      6  C   UNL     1       8.701   2.212  -0.565  0.00  0.00    +0.025 A 
ATOM      7  C   UNL     1       9.929   1.587  -0.469  0.00  0.00    +0.002 A 
ATOM      8  C   UNL     1      10.960   2.188   0.231  0.00  0.00    +0.002 A 
ATOM      9  C   UNL     1      10.766   3.417   0.833  0.00  0.00    +0.034 A 
ATOM     10  C   UNL     1       9.542   4.050   0.737  0.00  0.00    +0.147 A 
BRANCH  10  11
ATOM     11  N   UNL     1       9.335   5.365   1.383  0.00  0.00    +0.058 N 
ATOM     12  O   UNL     1      10.271   5.937   1.913  0.00  0.00    -0.126 OA
ATOM     13  O   UNL     1       8.230   5.877   1.384  0.00  0.00    -0.126 OA
ENDBRANCH  10  11
ENDBRANCH   3   5
BRANCH   1  15
ATOM     14  C   UNL     1       3.694   3.299  -0.061  0.00  0.00    +0.013 C 
ATOM     15  C   UNL     1       4.831   4.029  -0.065  0.00  0.00    +0.068 C 
BRANCH  14  25
ATOM     16  C   UNL     1      -1.237   1.788  -0.060  0.00  0.00    +0.001 A 
ATOM     17  C   UNL     1      -0.018   1.113  -0.049  0.00  0.00    +0.001 A 
ATOM     18  C   UNL     1       1.161   1.797  -0.052  0.00  0.00    +0.009 A 
ATOM     19  C   UNL     1       1.149   3.196  -0.062  0.00  0.00    -0.011 A 
ATOM     20  C   UNL     1      -0.088   3.886  -0.067  0.00  0.00    -0.017 A 
ATOM     21  C   UNL     1      -1.284   3.149  -0.063  0.00  0.00    +0.008 A 
ATOM     22  C   UNL     1      -0.095   5.291  -0.078  0.00  0.00    +0.008 A 
ATOM     23  C   UNL     1       1.072   5.993  -0.082  0.00  0.00    +0.001 A 
ATOM     24  C   UNL     1       2.307   5.361  -0.077  0.00  0.00    +0.008 A 
ATOM     25  C   UNL     1       2.390   3.971  -0.066  0.00  0.00    -0.017 A 
ENDBRANCH  14  25
ENDBRANCH   1  15
TORSDOF 4
