REMARK  Name = ZINC27809446
REMARK  12 active torsions:
REMARK  status: ('A' for Active; 'I' for Inactive)
REMARK    1  A    between atoms: C_1  and  C_2
REMARK    2  A    between atoms: C_4  and  C_25
REMARK    3  A    between atoms: C_5  and  N_9
REMARK    4  A    between atoms: C_6  and  C_8
REMARK    5  A    between atoms: C_10  and  C_12
REMARK    6  A    between atoms: C_12  and  C_14
REMARK    7  A    between atoms: C_12  and  S_15
REMARK    8  A    between atoms: S_15  and  C_16
REMARK    9  A    between atoms: N_20  and  C_21
REMARK   10  A    between atoms: C_21  and  C_22
REMARK   11  A    between atoms: C_21  and  C_23
REMARK   12  A    between atoms: C_21  and  C_24
REMARK                            x       y       z     vdW  Elec       q    Type
REMARK                         _______ _______ _______ _____ _____    ______ ____
ROOT
ATOM      1  N   UNL     1       3.691  -0.753   0.074  0.00  0.00    -0.284 N 
ATOM      2  C   UNL     1       4.822  -0.132  -0.315  0.00  0.00    +0.230 C 
ATOM      3  O   UNL     1       4.794   1.040  -0.625  0.00  0.00    -0.274 OA
ATOM      4  H   UNL     1       3.729  -1.793   0.432  0.00  0.00    +0.155 HD
ENDROOT
BRANCH   1   9
ATOM      5  C   UNL     1      -1.267   1.996  -0.136  0.00  0.00    +0.044 C 
ATOM      6  C   UNL     1       0.048   1.263  -0.076  0.00  0.00    -0.050 A 
ATOM      7  C   UNL     1       1.100   1.792   0.649  0.00  0.00    +0.008 A 
ATOM      8  C   UNL     1       2.309   1.126   0.701  0.00  0.00    -0.029 A 
ATOM      9  C   UNL     1       2.467  -0.076   0.024  0.00  0.00    +0.039 A 
ATOM     10  C   UNL     1       1.409  -0.605  -0.704  0.00  0.00    -0.029 A 
ATOM     11  C   UNL     1       0.203   0.066  -0.751  0.00  0.00    +0.008 A 
ATOM     12  C   UNL     1       1.577  -1.909  -1.440  0.00  0.00    +0.045 C 
ATOM     13  C   UNL     1       3.455   1.703   1.491  0.00  0.00    +0.045 C 
ENDBRANCH   1   9
BRANCH   2  14
ATOM     14  C   UNL     1       6.121  -0.894  -0.366  0.00  0.00    +0.137 C 
ATOM     15  C   UNL     1       6.708  -0.996   1.043  0.00  0.00    +0.029 C 
BRANCH  14  16
ATOM     16  S   UNL     1       7.287  -0.027  -1.444  0.00  0.00    -0.072 S 
BRANCH  16  17
ATOM     17  C   UNL     1       8.620  -1.179  -1.443  0.00  0.00    +0.211 A 
ATOM     18  N   UNL     1       8.660  -2.327  -0.803  0.00  0.00    -0.101 NA
ATOM     19  N   UNL     1       9.778  -2.922  -1.015  0.00  0.00    -0.022 NA
ATOM     20  N   UNL     1      10.523  -2.213  -1.792  0.00  0.00    -0.043 NA
ATOM     21  N   UNL     1       9.794  -1.052  -2.106  0.00  0.00    -0.215 N 
BRANCH  21  22
ATOM     22  C   UNL     1      10.216   0.058  -2.963  0.00  0.00    +0.060 C 
ATOM     23  C   UNL     1      10.231   1.354  -2.149  0.00  0.00    +0.036 C 
ATOM     24  C   UNL     1      11.620  -0.220  -3.505  0.00  0.00    +0.036 C 
ATOM     25  C   UNL     1       9.238   0.201  -4.131  0.00  0.00    +0.036 C 
ENDBRANCH  21  22
ENDBRANCH  16  17
ENDBRANCH  14  16
ENDBRANCH   2  14
TORSDOF 5
