REMARK  Name = ZINC62497577
REMARK  5 active torsions:
REMARK  status: ('A' for Active; 'I' for Inactive)
REMARK    1  A    between atoms: C_2  and  C_3
REMARK    2  A    between atoms: C_3  and  N_4
REMARK    3  A    between atoms: C_8  and  N_24
REMARK    4  A    between atoms: C_12  and  C_16
REMARK    5  A    between atoms: C_16  and  C_17
REMARK                            x       y       z     vdW  Elec       q    Type
REMARK                         _______ _______ _______ _____ _____    ______ ____
ROOT
ATOM      1  N   UNL     1       1.466   2.385  -0.021  0.00  0.00    -0.253 N 
ATOM      2  C   UNL     1       2.191   2.636   1.155  0.00  0.00    +0.079 A 
ATOM      3  C   UNL     1       1.647   2.337   2.394  0.00  0.00    +0.029 A 
ATOM      4  C   UNL     1       2.376   2.577   3.543  0.00  0.00    +0.025 A 
ATOM      5  C   UNL     1       3.654   3.115   3.459  0.00  0.00    +0.028 A 
ATOM      6  C   UNL     1       4.200   3.420   2.219  0.00  0.00    +0.070 A 
ATOM      7  C   UNL     1       3.468   3.187   1.068  0.00  0.00    +0.145 A 
ATOM      8  O   UNL     1       3.980   3.511  -0.150  0.00  0.00    -0.477 OA
ATOM      9  C   UNL     1       3.583   2.699  -1.258  0.00  0.00    +0.263 C 
ATOM     10  C   UNL     1       2.095   2.466  -1.212  0.00  0.00    +0.262 C 
ATOM     11  O   UNL     1       1.464   2.355  -2.242  0.00  0.00    -0.271 OA
ENDROOT
BRANCH   5  12
ATOM     12  N   UNL     1       4.391   3.350   4.624  0.00  0.00    -0.358 N 
ATOM     13  H   UNL     1       4.010   3.137   5.490  0.00  0.00    +0.142 HD
ATOM     14  H   UNL     1       5.284   3.725   4.566  0.00  0.00    +0.142 HD
ENDBRANCH   5  12
BRANCH   1  15
ATOM     15  C   UNL     1       0.045   2.035   0.045  0.00  0.00    +0.202 C 
BRANCH  15  17
ATOM     16  C   UNL     1      -0.207  -0.592   0.240  0.00  0.00    +0.005 C 
ATOM     17  C   UNL     1      -0.096   0.573   0.154  0.00  0.00    -0.086 C 
ENDBRANCH  15  17
ENDBRANCH   1  15
BRANCH   9  18
ATOM     18  C   UNL     1       4.306   1.353  -1.187  0.00  0.00    +0.090 C 
BRANCH  18  19
ATOM     19  C   UNL     1       3.998   0.551  -2.425  0.00  0.00    -0.025 A 
ATOM     20  C   UNL     1       3.001  -0.406  -2.400  0.00  0.00    +0.005 A 
ATOM     21  C   UNL     1       2.718  -1.141  -3.535  0.00  0.00    +0.000 A 
ATOM     22  C   UNL     1       3.432  -0.919  -4.699  0.00  0.00    +0.001 A 
ATOM     23  C   UNL     1       4.429   0.038  -4.726  0.00  0.00    +0.020 A 
ATOM     24  C   UNL     1       4.709   0.778  -3.590  0.00  0.00    +0.044 A 
ATOM     25 CL   UNL     1       5.956   1.984  -3.626  0.00  0.00    -0.083 Cl
ENDBRANCH  18  19
ENDBRANCH   9  18
TORSDOF 5
