REMARK  Name = ZINC08720150
REMARK  11 active torsions:
REMARK  status: ('A' for Active; 'I' for Inactive)
REMARK    1  A    between atoms: C_1  and  C_2
REMARK    2  A    between atoms: C_2  and  C_3
REMARK    3  A    between atoms: C_3  and  C_4
REMARK    4  A    between atoms: C_4  and  N_5
REMARK    5  A    between atoms: N_14  and  C_29
REMARK    6  A    between atoms: C_15  and  C_17
REMARK    7  A    between atoms: C_17  and  S_18
REMARK    8  A    between atoms: S_18  and  C_19
REMARK    9  A    between atoms: C_22  and  C_25
REMARK   10  A    between atoms: N_23  and  C_24
REMARK   11  A    between atoms: C_29  and  C_30
REMARK                            x       y       z     vdW  Elec       q    Type
REMARK                         _______ _______ _______ _____ _____    ______ ____
ROOT
ATOM      1  N   UNL     1      -8.330   3.319  -2.143  0.00  0.00    -0.277 N 
ATOM      2  C   UNL     1      -7.480   2.700  -1.241  0.00  0.00    +0.168 A 
ATOM      3  C   UNL     1      -7.734   1.383  -0.876  0.00  0.00    +0.151 A 
ATOM      4  C   UNL     1      -8.847   0.718  -1.432  0.00  0.00    +0.280 A 
ATOM      5  O   UNL     1      -9.091  -0.436  -1.128  0.00  0.00    -0.265 OA
ATOM      6  N   UNL     1      -9.639   1.375  -2.305  0.00  0.00    -0.273 N 
ATOM      7  H   UNL     1     -10.429   0.907  -2.702  0.00  0.00    +0.173 HD
ATOM      8  C   UNL     1      -9.382   2.648  -2.650  0.00  0.00    +0.331 A 
ATOM      9  O   UNL     1     -10.117   3.209  -3.440  0.00  0.00    -0.246 OA
ATOM     10  N   UNL     1      -6.742   1.032   0.017  0.00  0.00    -0.322 N 
ATOM     11  C   UNL     1      -5.944   2.108   0.163  0.00  0.00    +0.123 A 
ATOM     12  N   UNL     1      -6.389   3.091  -0.579  0.00  0.00    -0.213 NA
ENDROOT
BRANCH  10  13
ATOM     13  C   UNL     1      -6.586  -0.264   0.681  0.00  0.00    +0.120 C 
ATOM     14  C   UNL     1      -7.353  -0.254   2.005  0.00  0.00    +0.027 C 
ENDBRANCH  10  13
BRANCH   1  15
ATOM     15  C   UNL     1      -8.085   4.706  -2.545  0.00  0.00    +0.128 C 
BRANCH  15  16
ATOM     16  C   UNL     1      -8.821   5.651  -1.593  0.00  0.00    +0.021 C 
BRANCH  16  18
ATOM     17  C   UNL     1      -9.300   8.045  -1.060  0.00  0.00    +0.004 C 
ATOM     18  C   UNL     1      -8.564   7.100  -2.013  0.00  0.00    -0.002 C 
ENDBRANCH  16  18
ENDBRANCH  15  16
ENDBRANCH   1  15
BRANCH  11  19
ATOM     19  C   UNL     1      -4.727   2.173   1.050  0.00  0.00    +0.151 C 
BRANCH  19  20
ATOM     20  S   UNL     1      -3.269   1.653   0.112  0.00  0.00    -0.078 S 
BRANCH  20  21
ATOM     21  C   UNL     1      -2.031   1.820   1.355  0.00  0.00    +0.192 A 
ATOM     22  N   UNL     1      -2.216   2.217   2.592  0.00  0.00    -0.122 NA
ATOM     23  N   UNL     1      -1.094   2.227   3.220  0.00  0.00    -0.124 NA
ATOM     24  C   UNL     1      -0.136   1.835   2.429  0.00  0.00    +0.238 A 
ATOM     25  N   UNL     1      -0.698   1.558   1.213  0.00  0.00    -0.302 N 
ATOM     26  C   UNL     1      -0.013   1.086   0.008  0.00  0.00    +0.153 C 
BRANCH  24  27
ATOM     27  C   UNL     1       1.323   1.709   2.787  0.00  0.00    +0.452 C 
ATOM     28  F   UNL     1       1.466   1.745   4.178  0.00  0.00    -0.163 F 
ATOM     29  F   UNL     1       1.821   0.497   2.298  0.00  0.00    -0.163 F 
ATOM     30  F   UNL     1       2.035   2.770   2.217  0.00  0.00    -0.163 F 
ENDBRANCH  24  27
ENDBRANCH  20  21
ENDBRANCH  19  20
ENDBRANCH  11  19
TORSDOF 8
