REMARK  Name = ZINC54746696
REMARK  3 active torsions:
REMARK  status: ('A' for Active; 'I' for Inactive)
REMARK    1  A    between atoms: C_7  and  N_12
REMARK    2  A    between atoms: C_13  and  C_17
REMARK    3  A    between atoms: C_17  and  N_18
REMARK                            x       y       z     vdW  Elec       q    Type
REMARK                         _______ _______ _______ _____ _____    ______ ____
ROOT
ATOM      1  C   UNL     1      -0.017   1.377   0.010  0.00  0.00    +0.001 A 
ATOM      2  C   UNL     1       1.172   2.084   0.002  0.00  0.00    +0.004 A 
ATOM      3  C   UNL     1       2.375   1.409  -0.011  0.00  0.00    +0.046 A 
ATOM      4  C   UNL     1       2.398   0.018  -0.018  0.00  0.00    +0.126 A 
ATOM      5  C   UNL     1       1.207  -0.687  -0.014  0.00  0.00    +0.019 A 
ATOM      6  C   UNL     1       0.002  -0.004   0.002  0.00  0.00    +0.009 A 
ATOM      7  C   UNL     1       1.187  -2.194  -0.033  0.00  0.00    +0.147 C 
ATOM      8  C   UNL     1       2.556  -2.734   0.389  0.00  0.00    +0.073 C 
ATOM      9  C   UNL     1       3.634  -1.986  -0.407  0.00  0.00    +0.231 C 
ATOM     10  O   UNL     1       3.602  -0.610  -0.025  0.00  0.00    -0.492 OA
ENDROOT
BRANCH   7  11
ATOM     11  N   UNL     1       0.165  -2.679   0.899  0.00  0.00    -0.224 N 
ATOM     12  C   UNL     1      -0.900  -3.442   0.590  0.00  0.00    +0.135 A 
ATOM     13  N   UNL     1      -1.553  -3.647   1.708  0.00  0.00    -0.115 NA
ATOM     14  N   UNL     1      -0.921  -3.042   2.654  0.00  0.00    -0.023 NA
ATOM     15  N   UNL     1       0.120  -2.461   2.169  0.00  0.00    -0.043 NA
BRANCH  12  16
ATOM     16  C   UNL     1      -1.271  -3.960  -0.776  0.00  0.00    -0.007 C 
BRANCH  16  17
ATOM     17  N   UNL     1      -0.640  -5.269  -0.991  0.00  0.00    +0.383 N 
ATOM     18  H   UNL     1      -0.889  -5.616  -1.906  0.00  0.00    -0.089 HD
ATOM     19  H   UNL     1       0.362  -5.174  -0.928  0.00  0.00    -0.089 HD
ATOM     20  H   UNL     1      -0.962  -5.917  -0.287  0.00  0.00    -0.089 HD
ENDBRANCH  16  17
ENDBRANCH  12  16
ENDBRANCH   7  11
TORSDOF 3
