REMARK  Name = ZINC67618869
REMARK  4 active torsions:
REMARK  status: ('A' for Active; 'I' for Inactive)
REMARK    1  A    between atoms: C_4  and  C_7
REMARK    2  A    between atoms: C_10  and  N_12
REMARK    3  A    between atoms: N_15  and  C_16
REMARK    4  A    between atoms: C_16  and  C_17
REMARK                            x       y       z     vdW  Elec       q    Type
REMARK                         _______ _______ _______ _____ _____    ______ ____
ROOT
ATOM      1  N   UNL     1       5.363  -1.736  -1.702  0.00  0.00    -0.296 N 
ATOM      2  C   UNL     1       5.608  -2.099  -2.976  0.00  0.00    +0.300 C 
ATOM      3  O   UNL     1       4.683  -2.347  -3.726  0.00  0.00    -0.253 OA
ATOM      4  N   UNL     1       6.878  -2.187  -3.420  0.00  0.00    -0.292 N 
ATOM      5  H   UNL     1       6.101  -1.538  -1.104  0.00  0.00    +0.151 HD
ATOM      6  H   UNL     1       7.615  -1.990  -2.822  0.00  0.00    +0.151 HD
ENDROOT
BRANCH   1   9
ATOM      7  C   UNL     1       3.711  -0.707  -0.038  0.00  0.00    +0.041 C 
ATOM      8  C   UNL     1       3.675  -2.224   0.162  0.00  0.00    +0.033 C 
ATOM      9  C   UNL     1       3.983  -1.640  -1.219  0.00  0.00    +0.082 C 
BRANCH   7  13
ATOM     10  C   UNL     1      -0.017   1.378   0.010  0.00  0.00    +0.000 A 
ATOM     11  C   UNL     1       1.171   2.086   0.002  0.00  0.00    +0.000 A 
ATOM     12  C   UNL     1       2.377   1.411  -0.013  0.00  0.00    +0.004 A 
ATOM     13  C   UNL     1       2.396   0.029  -0.020  0.00  0.00    -0.042 A 
ATOM     14  C   UNL     1       1.208  -0.679  -0.012  0.00  0.00    +0.004 A 
ATOM     15  C   UNL     1       0.002  -0.004   0.002  0.00  0.00    +0.000 A 
ENDBRANCH   7  13
ENDBRANCH   1   9
BRANCH   4  16
ATOM     16  C   UNL     1       7.144  -2.582  -4.806  0.00  0.00    +0.180 C 
BRANCH  16  17
ATOM     17  C   UNL     1       8.631  -2.604  -5.045  0.00  0.00    +0.123 A 
ATOM     18  C   UNL     1       9.421  -3.671  -4.865  0.00  0.00    +0.055 A 
ATOM     19  C   UNL     1      10.780  -3.238  -5.216  0.00  0.00    +0.020 A 
ATOM     20  C   UNL     1      12.026  -3.862  -5.240  0.00  0.00    +0.011 A 
ATOM     21  C   UNL     1      13.130  -3.155  -5.628  0.00  0.00    +0.001 A 
ATOM     22  C   UNL     1      13.018  -1.823  -5.997  0.00  0.00    +0.004 A 
ATOM     23  C   UNL     1      11.794  -1.189  -5.979  0.00  0.00    +0.047 A 
ATOM     24  C   UNL     1      10.659  -1.889  -5.588  0.00  0.00    +0.135 A 
ATOM     25  O   UNL     1       9.357  -1.557  -5.475  0.00  0.00    -0.458 OA
ENDBRANCH  16  17
ENDBRANCH   4  16
TORSDOF 4
