REMARK  Name = ZINC32665956
REMARK  9 active torsions:
REMARK  status: ('A' for Active; 'I' for Inactive)
REMARK    1  A    between atoms: C_1  and  C_2
REMARK    2  A    between atoms: C_3  and  C_30
REMARK    3  A    between atoms: C_4  and  C_20
REMARK    4  A    between atoms: N_9  and  C_10
REMARK    5  A    between atoms: C_22  and  O_28
REMARK    6  A    between atoms: C_23  and  O_27
REMARK    7  A    between atoms: O_28  and  C_29
REMARK    8  A    between atoms: C_30  and  O_32
REMARK    9  A    between atoms: O_32  and  C_33
REMARK                            x       y       z     vdW  Elec       q    Type
REMARK                         _______ _______ _______ _____ _____    ______ ____
ROOT
ATOM      1  C   UNL     1       2.272  -2.735   0.176  0.00  0.00    +0.062 C 
ATOM      2  C   UNL     1       3.596  -2.026   0.053  0.00  0.00    +0.027 C 
ATOM      3  C   UNL     1       4.742  -2.736   0.143  0.00  0.00    +0.078 C 
ATOM      4  C   UNL     1       6.050  -1.983   0.014  0.00  0.00    +0.141 C 
ATOM      5  N   UNL     1       5.965  -0.529  -0.200  0.00  0.00    -0.315 N 
ATOM      6  C   UNL     1       4.745   0.039  -0.273  0.00  0.00    +0.142 C 
ATOM      7  S   UNL     1       4.631   1.728  -0.528  0.00  0.00    -0.018 S 
ATOM      8  N   UNL     1       3.619  -0.675  -0.147  0.00  0.00    -0.255 N 
ATOM      9  H   UNL     1       6.884   0.068  -0.296  0.00  0.00    +0.149 HD
ENDROOT
BRANCH   8  10
ATOM     10  C   UNL     1       2.394   0.003  -0.230  0.00  0.00    +0.044 A 
ATOM     11  C   UNL     1       1.766   0.154  -1.460  0.00  0.00    +0.027 A 
ATOM     12  C   UNL     1       0.560   0.821  -1.542  0.00  0.00    +0.051 A 
ATOM     13  C   UNL     1      -0.029   1.342  -0.399  0.00  0.00    +0.162 A 
ATOM     14  C   UNL     1       0.596   1.190   0.833  0.00  0.00    +0.164 A 
ATOM     15  C   UNL     1       1.808   0.521   0.916  0.00  0.00    +0.073 A 
ATOM     16  O   UNL     1       0.030   1.687   1.967  0.00  0.00    -0.485 OA
ATOM     17  C   UNL     1      -0.994   2.673   1.797  0.00  0.00    +0.270 C 
ATOM     18  C   UNL     1      -1.958   2.181   0.709  0.00  0.00    +0.270 C 
ATOM     19  O   UNL     1      -1.214   2.004  -0.502  0.00  0.00    -0.485 OA
ENDBRANCH   8  10
BRANCH   4  20
ATOM     20  C   UNL     1       6.817  -2.578  -1.139  0.00  0.00    -0.018 A 
ATOM     21  C   UNL     1       7.839  -3.477  -0.897  0.00  0.00    +0.055 A 
ATOM     22  C   UNL     1       8.542  -4.029  -1.956  0.00  0.00    +0.163 A 
ATOM     23  C   UNL     1       8.224  -3.668  -3.262  0.00  0.00    +0.177 A 
ATOM     24  C   UNL     1       7.201  -2.763  -3.498  0.00  0.00    +0.086 A 
ATOM     25  C   UNL     1       6.500  -2.220  -2.436  0.00  0.00    +0.029 A 
ATOM     26 CL   UNL     1       6.801  -2.309  -5.125  0.00  0.00    -0.080 Cl
BRANCH  23  27
ATOM     27  O   UNL     1       8.915  -4.203  -4.304  0.00  0.00    -0.502 OA
ATOM     28  H   UNL     1       8.662  -3.917  -5.336  0.00  0.00    +0.292 HD
ENDBRANCH  23  27
BRANCH  22  29
ATOM     29  O   UNL     1       9.544  -4.918  -1.720  0.00  0.00    -0.491 OA
ATOM     30  C   UNL     1       9.815  -5.242  -0.354  0.00  0.00    +0.277 C 
ENDBRANCH  22  29
ENDBRANCH   4  20
BRANCH   3  31
ATOM     31  C   UNL     1       4.720  -4.135   0.349  0.00  0.00    +0.339 C 
ATOM     32  O   UNL     1       3.657  -4.719   0.449  0.00  0.00    -0.245 OA
BRANCH  31  33
ATOM     33  O   UNL     1       5.878  -4.822   0.435  0.00  0.00    -0.465 OA
ATOM     34  C   UNL     1       5.782  -6.233   0.644  0.00  0.00    +0.280 C 
ENDBRANCH  31  33
ENDBRANCH   3  31
TORSDOF 6
