REMARK  Name = ZINC07320014
REMARK  8 active torsions:
REMARK  status: ('A' for Active; 'I' for Inactive)
REMARK    1  A    between atoms: C_1  and  C_2
REMARK    2  A    between atoms: C_2  and  C_3
REMARK    3  A    between atoms: C_3  and  C_4
REMARK    4  A    between atoms: C_4  and  N_5
REMARK    5  A    between atoms: C_9  and  C_24
REMARK    6  A    between atoms: C_13  and  S_14
REMARK    7  A    between atoms: S_14  and  C_15
REMARK    8  A    between atoms: C_15  and  C_16
REMARK                            x       y       z     vdW  Elec       q    Type
REMARK                         _______ _______ _______ _____ _____    ______ ____
ROOT
ATOM      1  N   UNL     1      -2.566   3.547   0.045  0.00  0.00    -0.319 N 
ATOM      2  C   UNL     1      -1.234   3.165   0.030  0.00  0.00    +0.069 A 
ATOM      3  C   UNL     1      -0.035   3.860   0.022  0.00  0.00    +0.028 A 
ATOM      4  C   UNL     1       1.159   3.170   0.007  0.00  0.00    +0.014 A 
ATOM      5  C   UNL     1       1.169   1.783   0.001  0.00  0.00    +0.057 A 
ATOM      6  C   UNL     1      -0.013   1.076   0.008  0.00  0.00    +0.042 A 
ATOM      7  C   UNL     1      -1.231   1.760   0.017  0.00  0.00    +0.091 A 
ATOM      8  N   UNL     1      -2.528   1.356   0.034  0.00  0.00    -0.222 NA
ATOM      9  C   UNL     1      -3.315   2.404   0.047  0.00  0.00    +0.170 A 
ENDROOT
BRANCH   5  10
ATOM     10  C   UNL     1       2.482   1.044  -0.015  0.00  0.00    +0.417 C 
ATOM     11  F   UNL     1       2.877   0.822  -1.339  0.00  0.00    -0.166 F 
ATOM     12  F   UNL     1       3.455   1.808   0.639  0.00  0.00    -0.166 F 
ATOM     13  F   UNL     1       2.335  -0.184   0.639  0.00  0.00    -0.166 F 
ENDBRANCH   5  10
BRANCH   1  14
ATOM     14  C   UNL     1      -3.076   4.920   0.056  0.00  0.00    +0.124 C 
BRANCH  14  15
ATOM     15  C   UNL     1      -3.268   5.405  -1.382  0.00  0.00    +0.021 C 
BRANCH  15  17
ATOM     16  C   UNL     1      -3.992   7.323  -2.809  0.00  0.00    +0.004 C 
ATOM     17  C   UNL     1      -3.800   6.839  -1.371  0.00  0.00    -0.002 C 
ENDBRANCH  15  17
ENDBRANCH  14  15
ENDBRANCH   1  14
BRANCH   9  18
ATOM     18  S   UNL     1      -5.076   2.348   0.063  0.00  0.00    -0.080 S 
BRANCH  18  19
ATOM     19  C   UNL     1      -5.333   0.556   0.057  0.00  0.00    +0.153 C 
BRANCH  19  20
ATOM     20  C   UNL     1      -6.811   0.261   0.069  0.00  0.00    +0.146 A 
ATOM     21  N   UNL     1      -7.445   0.120   1.220  0.00  0.00    -0.199 NA
ATOM     22  C   UNL     1      -8.751  -0.136   1.235  0.00  0.00    +0.217 A 
ATOM     23  N   UNL     1      -9.415  -0.261   0.091  0.00  0.00    -0.181 NA
ATOM     24  C   UNL     1      -8.773  -0.124  -1.064  0.00  0.00    +0.217 A 
ATOM     25  N   UNL     1      -7.468   0.137  -1.071  0.00  0.00    -0.199 NA
ATOM     26  N   UNL     1      -9.458  -0.254  -2.255  0.00  0.00    -0.327 N 
ATOM     27  N   UNL     1      -9.414  -0.277   2.437  0.00  0.00    -0.327 N 
ATOM     28  H   UNL     1      -8.988  -0.154  -3.098  0.00  0.00    +0.145 HD
ATOM     29  H   UNL     1     -10.409  -0.444  -2.249  0.00  0.00    +0.145 HD
ATOM     30  H   UNL     1     -10.365  -0.468   2.448  0.00  0.00    +0.145 HD
ATOM     31  H   UNL     1      -8.928  -0.186   3.272  0.00  0.00    +0.145 HD
ENDBRANCH  19  20
ENDBRANCH  18  19
ENDBRANCH   9  18
TORSDOF 7
