REMARK  Name = ZINC15277569
REMARK  6 active torsions:
REMARK  status: ('A' for Active; 'I' for Inactive)
REMARK    1  A    between atoms: C_1  and  C_2
REMARK    2  A    between atoms: C_2  and  C_3
REMARK    3  A    between atoms: C_3  and  C_28
REMARK    4  A    between atoms: C_8  and  C_10
REMARK    5  A    between atoms: C_15  and  O_16
REMARK    6  A    between atoms: N_19  and  C_22
REMARK                            x       y       z     vdW  Elec       q    Type
REMARK                         _______ _______ _______ _____ _____    ______ ____
ROOT
ATOM      1  C   UNL     1       0.653  -0.593  -1.189  0.00  0.00    +0.048 C 
ATOM      2  C   UNL     1       0.566  -2.056  -1.428  0.00  0.00    +0.086 C 
ATOM      3  C   UNL     1      -0.826  -2.159  -2.170  0.00  0.00    +0.077 C 
ATOM      4  C   UNL     1      -0.588  -1.089  -3.207  0.00  0.00    -0.023 C 
ATOM      5  C   UNL     1      -0.832  -3.622  -2.400  0.00  0.00    +0.229 C 
ATOM      6  O   UNL     1      -1.277  -4.213  -3.360  0.00  0.00    -0.275 OA
ATOM      7  N   UNL     1      -0.228  -4.164  -1.296  0.00  0.00    -0.210 N 
ATOM      8  C   UNL     1       0.461  -3.231  -0.561  0.00  0.00    +0.229 C 
ATOM      9  O   UNL     1       0.885  -3.346   0.569  0.00  0.00    -0.275 OA
ATOM     10  N   UNL     1       0.004   0.012  -2.388  0.00  0.00    +0.396 N 
ATOM     11  H   UNL     1       0.704   0.519  -2.942  0.00  0.00    -0.083 HD
ATOM     12  H   UNL     1      -0.735   0.660  -2.092  0.00  0.00    -0.083 HD
ENDROOT
BRANCH   4  13
ATOM     13  C   UNL     1      -1.885  -0.658  -3.841  0.00  0.00    -0.019 A 
ATOM     14  C   UNL     1      -3.087  -1.119  -3.337  0.00  0.00    +0.005 A 
ATOM     15  C   UNL     1      -4.278  -0.724  -3.918  0.00  0.00    +0.000 A 
ATOM     16  C   UNL     1      -4.270   0.134  -5.003  0.00  0.00    +0.004 A 
ATOM     17  C   UNL     1      -3.071   0.597  -5.510  0.00  0.00    +0.045 A 
ATOM     18  C   UNL     1      -1.875   0.207  -4.925  0.00  0.00    +0.118 A 
BRANCH  18  19
ATOM     19  O   UNL     1      -0.695   0.666  -5.418  0.00  0.00    -0.507 OA
ATOM     20  H   UNL     1      -0.314   0.108  -6.111  0.00  0.00    +0.292 HD
ENDBRANCH  18  19
ENDBRANCH   4  13
BRANCH   7  21
ATOM     21  C   UNL     1      -0.305  -5.521  -0.954  0.00  0.00    +0.044 A 
ATOM     22  C   UNL     1       0.342  -5.991   0.180  0.00  0.00    +0.024 A 
ATOM     23  C   UNL     1       0.260  -7.328   0.517  0.00  0.00    +0.002 A 
ATOM     24  C   UNL     1      -0.457  -8.200  -0.281  0.00  0.00    +0.000 A 
ATOM     25  C   UNL     1      -1.099  -7.737  -1.414  0.00  0.00    +0.002 A 
ATOM     26  C   UNL     1      -1.025  -6.400  -1.753  0.00  0.00    +0.024 A 
ENDBRANCH   7  21
BRANCH   1  27
ATOM     27  C   UNL     1       2.093  -0.160  -1.088  0.00  0.00    +0.346 C 
ATOM     28  O   UNL     1       2.936  -0.944  -0.721  0.00  0.00    -0.248 OA
ATOM     29  O   UNL     1       2.440   1.097  -1.406  0.00  0.00    -0.248 OA
ENDBRANCH   1  27
BRANCH   1  31
ATOM     30  C   UNL     1      -0.182   1.310   0.198  0.00  0.00    +0.003 C 
ATOM     31  C   UNL     1      -0.107  -0.214   0.083  0.00  0.00    -0.004 C 
ENDBRANCH   1  31
TORSDOF 5
