REMARK  Name = ZINC09329998
REMARK  9 active torsions:
REMARK  status: ('A' for Active; 'I' for Inactive)
REMARK    1  A    between atoms: CG_4  and  CB_7
REMARK    2  A    between atoms: CB_7  and  CA_8
REMARK    3  A    between atoms: CA_8  and  C_10
REMARK    4  A    between atoms: CA_8  and  N_12
REMARK    5  A    between atoms: C_13  and  C_15
REMARK    6  A    between atoms: C_15  and  C_17
REMARK    7  A    between atoms: C_15  and  N_24
REMARK    8  A    between atoms: C_17  and  C_18
REMARK    9  A    between atoms: C_34  and  O_35
REMARK                            x       y       z     vdW  Elec       q    Type
REMARK                         _______ _______ _______ _____ _____    ______ ____
ROOT
ATOM      1  C   UNK A   0      -1.298   2.067   0.019  0.00  0.00    +0.185 C 
ENDROOT
BRANCH   1   2
ATOM      2  N   UNK A   0      -0.016   1.358   0.009  0.00  0.00    -0.250 N 
ATOM      3  C   UNK A   0       1.139   2.062   0.002  0.00  0.00    +0.265 A 
ATOM      4  O   UNK A   0       1.137   3.280   0.009  0.00  0.00    -0.267 OA
ATOM      5  C   UNK A   0       2.397   1.303  -0.014  0.00  0.00    +0.065 A 
ATOM      6  C   UNK A   0       3.640   1.933  -0.023  0.00  0.00    +0.015 A 
ATOM      7  C   UNK A   0       4.779   1.177  -0.038  0.00  0.00    +0.001 A 
ATOM      8  C   UNK A   0       4.709  -0.210  -0.044  0.00  0.00    +0.002 A 
ATOM      9  C   UNK A   0       3.504  -0.854  -0.036  0.00  0.00    +0.029 A 
ATOM     10  C   UNK A   0       2.322  -0.108  -0.020  0.00  0.00    +0.081 A 
ATOM     11  N   UNK A   0       1.105  -0.704  -0.012  0.00  0.00    -0.196 NA
ATOM     12  C   UNK A   0       0.002  -0.004   0.002  0.00  0.00    +0.300 A 
BRANCH  12  13
ATOM     13  O   UNK A   0      -1.176  -0.663   0.010  0.00  0.00    -0.479 OA
ATOM     14  H   UNK A   0      -1.089  -1.626   0.004  0.00  0.00    +0.295 HD
ENDBRANCH  12  13
ENDBRANCH   1   2
BRANCH   1  16
ATOM     15  N   PHE A   1      -3.294   2.214   1.473  0.00  0.00    -0.300 N 
ATOM     16  C   UNK A   0      -2.076   1.682   1.252  0.00  0.00    +0.237 C 
ATOM     17  O   UNK A   0      -1.605   0.893   2.043  0.00  0.00    -0.274 OA
ATOM     18  H   PHE A   1      -3.671   2.845   0.840  0.00  0.00    +0.150 HD
BRANCH  15  19
ATOM     19  CA  PHE A   1      -4.050   1.839   2.671  0.00  0.00    +0.191 C 
BRANCH  19  20
ATOM     20  C   PHE A   1      -4.813   0.567   2.406  0.00  0.00    +0.376 C 
ATOM     21  O   PHE A   1      -4.734   0.029   1.327  0.00  0.00    -0.244 OA
ATOM     22  OXT PHE A   1      -5.581   0.033   3.368  0.00  0.00    -0.244 OA
ENDBRANCH  19  20
BRANCH  19  23
ATOM     23  CB  PHE A   1      -5.031   2.958   3.026  0.00  0.00    +0.069 C 
BRANCH  23  27
ATOM     24  CZ  PHE A   1      -2.855   6.469   4.115  0.00  0.00    +0.000 A 
ATOM     25  CE1 PHE A   1      -3.212   6.259   2.796  0.00  0.00    +0.000 A 
ATOM     26  CD1 PHE A   1      -3.916   5.122   2.444  0.00  0.00    +0.004 A 
ATOM     27  CG  PHE A   1      -4.263   4.197   3.410  0.00  0.00    -0.045 A 
ATOM     28  CD2 PHE A   1      -3.911   4.410   4.730  0.00  0.00    +0.004 A 
ATOM     29  CE2 PHE A   1      -3.203   5.544   5.081  0.00  0.00    +0.000 A 
ENDBRANCH  23  27
ENDBRANCH  19  23
ENDBRANCH  15  19
ENDBRANCH   1  16
BRANCH   1  30
ATOM     30  C   UNK A   0      -2.100   1.690  -1.228  0.00  0.00    +0.070 C 
BRANCH  30  31
ATOM     31  C   UNK A   0      -1.380   2.184  -2.456  0.00  0.00    -0.045 A 
ATOM     32  C   UNK A   0      -1.649   3.446  -2.954  0.00  0.00    +0.004 A 
ATOM     33  C   UNK A   0      -0.986   3.901  -4.078  0.00  0.00    +0.000 A 
ATOM     34  C   UNK A   0      -0.060   3.092  -4.710  0.00  0.00    +0.000 A 
ATOM     35  C   UNK A   0       0.205   1.829  -4.215  0.00  0.00    +0.000 A 
ATOM     36  C   UNK A   0      -0.455   1.375  -3.088  0.00  0.00    +0.004 A 
ENDBRANCH  30  31
ENDBRANCH   1  30
TORSDOF 9
