REMARK  Name = ZINC46891726
REMARK  8 active torsions:
REMARK  status: ('A' for Active; 'I' for Inactive)
REMARK    1  A    between atoms: C_1  and  C_2
REMARK    2  A    between atoms: C_3  and  C_7
REMARK    3  A    between atoms: N_9  and  C_10
REMARK    4  A    between atoms: C_12  and  N_17
REMARK    5  A    between atoms: C_18  and  C_20
REMARK    6  A    between atoms: C_20  and  C_21
REMARK    7  A    between atoms: C_21  and  N_22
REMARK    8  A    between atoms: C_30  and  C_34
REMARK                            x       y       z     vdW  Elec       q    Type
REMARK                         _______ _______ _______ _____ _____    ______ ____
ROOT
ATOM      1  N   UNL     1      -6.856   2.032   0.268  0.00  0.00    -0.285 N 
ATOM      2  C   UNL     1      -8.147   2.357   0.479  0.00  0.00    +0.219 C 
ATOM      3  O   UNL     1      -8.987   1.485   0.553  0.00  0.00    -0.275 OA
ATOM      4  H   UNL     1      -6.197   2.730   0.124  0.00  0.00    +0.155 HD
ENDROOT
BRANCH   1   7
ATOM      5  C   UNL     1      -4.956  -1.036  -0.468  0.00  0.00    +0.071 A 
ATOM      6  C   UNL     1      -5.341   0.297  -0.458  0.00  0.00    +0.049 A 
ATOM      7  C   UNL     1      -6.465   0.687   0.256  0.00  0.00    +0.035 A 
ATOM      8  C   UNL     1      -7.202  -0.256   0.960  0.00  0.00    +0.026 A 
ATOM      9  C   UNL     1      -6.817  -1.584   0.951  0.00  0.00    +0.042 A 
ATOM     10  C   UNL     1      -5.701  -1.977   0.234  0.00  0.00    +0.145 A 
ATOM     11  F   UNL     1      -5.331  -3.277   0.222  0.00  0.00    -0.204 F 
BRANCH   5  14
ATOM     12  C   UNL     1      -2.758  -0.612  -1.274  0.00  0.00    +0.252 C 
ATOM     13  O   UNL     1      -2.812   0.507  -0.799  0.00  0.00    -0.270 OA
ATOM     14  N   UNL     1      -3.823  -1.433  -1.187  0.00  0.00    -0.279 N 
ATOM     15  H   UNL     1      -3.805  -2.299  -1.624  0.00  0.00    +0.155 HD
BRANCH  12  18
ATOM     16  C   UNL     1      -0.119   1.043  -1.644  0.00  0.00    +0.087 C 
ATOM     17  C   UNL     1      -0.371  -0.366  -2.114  0.00  0.00    +0.114 A 
ATOM     18  C   UNL     1      -1.528  -1.069  -1.944  0.00  0.00    +0.078 A 
ATOM     19  C   UNL     1      -1.290  -2.379  -2.567  0.00  0.00    +0.054 A 
ATOM     20  C   UNL     1      -0.036  -2.339  -3.044  0.00  0.00    +0.196 A 
ATOM     21  O   UNL     1       0.498  -1.137  -2.774  0.00  0.00    -0.467 OA
ENDBRANCH  12  18
ENDBRANCH   5  14
ENDBRANCH   1   7
BRANCH   2  22
ATOM     22  C   UNL     1      -8.546   3.803   0.623  0.00  0.00    +0.115 C 
BRANCH  22  23
ATOM     23  C   UNL     1     -10.056   3.894   0.853  0.00  0.00    +0.123 C 
BRANCH  23  24
ATOM     24  N   UNL     1     -10.444   5.300   0.993  0.00  0.00    -0.265 N 
ATOM     25  C   UNL     1     -10.450   5.915   2.253  0.00  0.00    +0.078 A 
ATOM     26  C   UNL     1      -9.799   5.332   3.328  0.00  0.00    +0.027 A 
ATOM     27  C   UNL     1      -9.818   5.955   4.562  0.00  0.00    +0.002 A 
ATOM     28  C   UNL     1     -10.483   7.156   4.726  0.00  0.00    +0.004 A 
ATOM     29  C   UNL     1     -11.133   7.744   3.656  0.00  0.00    +0.047 A 
ATOM     30  C   UNL     1     -11.119   7.127   2.417  0.00  0.00    +0.143 A 
ATOM     31  O   UNL     1     -11.751   7.691   1.353  0.00  0.00    -0.478 OA
ATOM     32  C   UNL     1     -11.161   7.479   0.068  0.00  0.00    +0.256 C 
ATOM     33  C   UNL     1     -10.797   6.025  -0.091  0.00  0.00    +0.260 C 
ATOM     34  O   UNL     1     -10.825   5.507  -1.188  0.00  0.00    -0.271 OA
ATOM     35  C   UNL     1     -12.157   7.879  -1.022  0.00  0.00    +0.062 C 
ENDBRANCH  23  24
ENDBRANCH  22  23
ENDBRANCH   2  22
TORSDOF 6
