REMARK  Name = ZINC19740359
REMARK  7 active torsions:
REMARK  status: ('A' for Active; 'I' for Inactive)
REMARK    1  A    between atoms: C_1  and  C_2
REMARK    2  A    between atoms: C_7  and  C_8
REMARK    3  A    between atoms: C_8  and  N_9
REMARK    4  A    between atoms: C_15  and  C_17
REMARK    5  A    between atoms: C_17  and  C_18
REMARK    6  A    between atoms: N_25  and  C_26
REMARK    7  A    between atoms: C_26  and  C_27
REMARK                            x       y       z     vdW  Elec       q    Type
REMARK                         _______ _______ _______ _____ _____    ______ ____
ROOT
ATOM      1  C   UNL     1      -0.881   0.109   0.367  0.00  0.00    +0.090 C 
ENDROOT
BRANCH   1   2
ATOM      2  C   UNL     1      -0.268   1.510   0.340  0.00  0.00    +0.028 C 
ATOM      3  C   UNL     1       0.802   1.566  -0.714  0.00  0.00    +0.200 C 
ATOM      4  O   UNL     1       0.589   1.042  -1.787  0.00  0.00    -0.278 OA
ATOM      5  N   UNL     1       1.979   2.169  -0.518  0.00  0.00    -0.318 N 
ATOM      6  C   UNL     1       2.348   2.797   0.747  0.00  0.00    +0.085 C 
ATOM      7  C   UNL     1       1.097   3.057   1.588  0.00  0.00    -0.058 C 
ATOM      8  N   UNL     1       0.307   1.817   1.656  0.00  0.00    +0.391 N 
ATOM      9  H   UNL     1       2.683   2.178  -1.363  0.00  0.00    +0.149 HD
ATOM     10  H   UNL     1       0.974   0.991   1.945  0.00  0.00    -0.080 HD
BRANCH   8  11
ATOM     11  C   UNL     1      -0.742   1.917   2.679  0.00  0.00    -0.039 C 
BRANCH  11  12
ATOM     12  C   UNL     1      -0.108   1.986   4.044  0.00  0.00    -0.029 A 
ATOM     13  C   UNL     1      -0.061   3.187   4.725  0.00  0.00    +0.004 A 
ATOM     14  C   UNL     1       0.520   3.251   5.978  0.00  0.00    +0.000 A 
ATOM     15  C   UNL     1       1.055   2.112   6.551  0.00  0.00    +0.003 A 
ATOM     16  C   UNL     1       1.009   0.909   5.872  0.00  0.00    +0.038 A 
ATOM     17  C   UNL     1       0.423   0.844   4.619  0.00  0.00    +0.125 A 
ATOM     18  F   UNL     1       0.373  -0.333   3.957  0.00  0.00    -0.205 F 
ENDBRANCH  11  12
ENDBRANCH   8  11
ENDBRANCH   1   2
BRANCH   1  25
ATOM     19  N   UNL     1      -0.614  -4.862   0.186  0.00  0.00    -0.294 NA
ATOM     20  C   UNL     1       0.766  -4.360   0.177  0.00  0.00    +0.104 C 
ATOM     21  C   UNL     1       0.891  -3.202   1.173  0.00  0.00    +0.123 C 
ATOM     22  N   UNL     1      -0.137  -2.199   0.855  0.00  0.00    -0.299 N 
ATOM     23  C   UNL     1      -1.530  -2.651   0.717  0.00  0.00    +0.123 C 
ATOM     24  C   UNL     1      -1.559  -3.832  -0.267  0.00  0.00    +0.104 C 
ATOM     25  C   UNL     1       0.187  -0.900   0.699  0.00  0.00    +0.215 C 
ATOM     26  O   UNL     1       1.340  -0.545   0.822  0.00  0.00    -0.276 OA
BRANCH  19  27
ATOM     27  C   UNL     1      -0.736  -6.081  -0.625  0.00  0.00    +0.140 C 
BRANCH  27  34
ATOM     28  C   UNL     1      -1.807  -7.681   1.529  0.00  0.00    +0.045 C 
ATOM     29  C   UNL     1      -2.685  -7.283   0.371  0.00  0.00    -0.028 A 
ATOM     30  C   UNL     1      -4.013  -7.681   0.328  0.00  0.00    +0.006 A 
ATOM     31  C   UNL     1      -4.784  -7.291  -0.756  0.00  0.00    +0.020 A 
ATOM     32  C   UNL     1      -4.207  -6.525  -1.752  0.00  0.00    +0.111 A 
ATOM     33  N   UNL     1      -2.942  -6.161  -1.675  0.00  0.00    -0.258 NA
ATOM     34  C   UNL     1      -2.178  -6.518  -0.661  0.00  0.00    +0.058 A 
ENDBRANCH  27  34
ENDBRANCH  19  27
ENDBRANCH   1  25
TORSDOF 6
