REMARK  Name = ZINC60324325
REMARK  7 active torsions:
REMARK  status: ('A' for Active; 'I' for Inactive)
REMARK    1  A    between atoms: C_1  and  N_2
REMARK    2  A    between atoms: C_13  and  C_15
REMARK    3  A    between atoms: C_15  and  C_16
REMARK    4  A    between atoms: C_16  and  C_17
REMARK    5  A    between atoms: N_19  and  C_20
REMARK    6  A    between atoms: C_25  and  N_26
REMARK    7  A    between atoms: N_26  and  C_27
REMARK                            x       y       z     vdW  Elec       q    Type
REMARK                         _______ _______ _______ _____ _____    ______ ____
ROOT
ATOM      1  C   UNL     1      -6.760  -1.024   1.693  0.00  0.00    +0.218 C 
ATOM      2  O   UNL     1      -7.377  -1.968   1.247  0.00  0.00    -0.275 OA
ATOM      3  N   UNL     1      -7.421   0.042   2.186  0.00  0.00    -0.284 N 
ATOM      4  H   UNL     1      -6.931   0.763   2.611  0.00  0.00    +0.155 HD
ENDROOT
BRANCH   3   5
ATOM      5  C   UNL     1      -8.818   0.107   2.085  0.00  0.00    +0.054 A 
ATOM      6  C   UNL     1      -9.476  -0.590   1.083  0.00  0.00    +0.025 A 
ATOM      7  C   UNL     1     -10.853  -0.523   0.985  0.00  0.00    +0.002 A 
ATOM      8  C   UNL     1     -11.579   0.238   1.883  0.00  0.00    +0.002 A 
ATOM      9  C   UNL     1     -10.931   0.936   2.885  0.00  0.00    +0.025 A 
ATOM     10  C   UNL     1      -9.550   0.870   2.995  0.00  0.00    +0.049 A 
BRANCH  10  11
ATOM     11  N   UNL     1      -8.893   1.571   4.011  0.00  0.00    -0.337 N 
ATOM     12  H   UNL     1      -7.923   1.589   4.039  0.00  0.00    +0.147 HD
BRANCH  11  13
ATOM     13  C   UNL     1      -9.668   2.278   5.034  0.00  0.00    +0.033 C 
ATOM     14  C   UNL     1     -10.632   1.300   5.709  0.00  0.00    +0.029 C 
ATOM     15  C   UNL     1     -11.443   2.038   6.777  0.00  0.00    -0.008 C 
ATOM     16  C   UNL     1     -10.493   2.623   7.824  0.00  0.00    +0.007 C 
ATOM     17  C   UNL     1      -9.529   3.601   7.148  0.00  0.00    -0.008 C 
ATOM     18  C   UNL     1      -8.719   2.863   6.081  0.00  0.00    +0.029 C 
ATOM     19  C   UNL     1     -10.325   4.731   6.494  0.00  0.00    +0.007 C 
ATOM     20  C   UNL     1     -11.275   4.146   5.446  0.00  0.00    -0.008 C 
ATOM     21  C   UNL     1     -12.239   3.168   6.122  0.00  0.00    +0.007 C 
ATOM     22  C   UNL     1     -10.465   3.408   4.379  0.00  0.00    +0.029 C 
ENDBRANCH  11  13
ENDBRANCH  10  11
ENDBRANCH   3   5
BRANCH   1  23
ATOM     23  C   UNL     1      -5.253  -1.042   1.695  0.00  0.00    +0.104 C 
BRANCH  23  24
ATOM     24  C   UNL     1      -4.757  -2.354   1.085  0.00  0.00    +0.083 C 
BRANCH  24  37
ATOM     25  C   UNL     1      -0.008   0.093  -0.353  0.00  0.00    +0.155 C 
ATOM     26  N   UNL     1      -0.003  -1.177   0.378  0.00  0.00    -0.280 N 
ATOM     27  C   UNL     1      -1.202  -1.776   0.731  0.00  0.00    +0.168 A 
ATOM     28  C   UNL     1      -1.171  -2.979   1.425  0.00  0.00    +0.149 A 
ATOM     29  C   UNL     1       0.077  -3.554   1.749  0.00  0.00    +0.280 A 
ATOM     30  O   UNL     1       0.130  -4.609   2.356  0.00  0.00    -0.265 OA
ATOM     31  N   UNL     1       1.210  -2.923   1.378  0.00  0.00    -0.273 N 
ATOM     32  H   UNL     1       2.070  -3.314   1.598  0.00  0.00    +0.173 HD
ATOM     33  C   UNL     1       1.165  -1.761   0.702  0.00  0.00    +0.331 A 
ATOM     34  O   UNL     1       2.207  -1.223   0.379  0.00  0.00    -0.246 OA
ATOM     35  N   UNL     1      -2.487  -3.336   1.638  0.00  0.00    -0.336 N 
ATOM     36  H   UNL     1      -2.803  -4.130   2.098  0.00  0.00    +0.167 HD
ATOM     37  C   UNL     1      -3.250  -2.372   1.087  0.00  0.00    +0.110 A 
ATOM     38  N   UNL     1      -2.485  -1.454   0.553  0.00  0.00    -0.214 NA
ENDBRANCH  24  37
ENDBRANCH  23  24
ENDBRANCH   1  23
TORSDOF 6
