REMARK  Name = ZINC67381572
REMARK  8 active torsions:
REMARK  status: ('A' for Active; 'I' for Inactive)
REMARK    1  A    between atoms: C_1  and  C_2
REMARK    2  A    between atoms: C_2  and  C_3
REMARK    3  A    between atoms: C_3  and  C_5
REMARK    4  A    between atoms: C_3  and  N_15
REMARK    5  A    between atoms: N_18  and  C_19
REMARK    6  A    between atoms: C_19  and  C_20
REMARK    7  A    between atoms: C_20  and  C_22
REMARK    8  A    between atoms: C_20  and  N_27
REMARK                            x       y       z     vdW  Elec       q    Type
REMARK                         _______ _______ _______ _____ _____    ______ ____
ROOT
ATOM      1  N   UNL     1      -1.665  -0.194   1.758  0.00  0.00    -0.290 N 
ATOM      2  C   UNL     1      -2.343   0.971   1.725  0.00  0.00    +0.300 C 
ATOM      3  O   UNL     1      -2.320   1.659   0.723  0.00  0.00    -0.253 OA
ATOM      4  N   UNL     1      -3.047   1.371   2.802  0.00  0.00    -0.301 N 
ATOM      5  H   UNL     1      -1.683  -0.743   2.557  0.00  0.00    +0.151 HD
ATOM      6  H   UNL     1      -3.066   0.821   3.601  0.00  0.00    +0.150 HD
ENDROOT
BRANCH   1   7
ATOM      7  C   UNL     1      -0.899  -0.629   0.587  0.00  0.00    +0.140 C 
BRANCH   7   8
ATOM      8  C   UNL     1      -0.760  -2.129   0.607  0.00  0.00    +0.129 A 
ATOM      9  N   UNL     1      -1.355  -2.955   1.510  0.00  0.00    -0.340 N 
ATOM     10  H   UNL     1      -1.932  -2.686   2.242  0.00  0.00    +0.167 HD
ATOM     11  C   UNL     1      -0.983  -4.246   1.193  0.00  0.00    +0.066 A 
ATOM     12  C   UNL     1      -1.263  -5.493   1.734  0.00  0.00    +0.028 A 
ATOM     13  C   UNL     1      -0.717  -6.623   1.164  0.00  0.00    +0.002 A 
ATOM     14  C   UNL     1       0.108  -6.522   0.053  0.00  0.00    +0.002 A 
ATOM     15  C   UNL     1       0.394  -5.303  -0.494  0.00  0.00    +0.030 A 
ATOM     16  C   UNL     1      -0.148  -4.144   0.068  0.00  0.00    +0.089 A 
ATOM     17  N   UNL     1      -0.059  -2.824  -0.240  0.00  0.00    -0.231 NA
ENDBRANCH   7   8
BRANCH   7  19
ATOM     18  C   UNL     1       0.355   1.530   0.473  0.00  0.00    +0.006 C 
ATOM     19  C   UNL     1       0.490   0.013   0.619  0.00  0.00    +0.027 C 
ENDBRANCH   7  19
ENDBRANCH   1   7
BRANCH   4  20
ATOM     20  C   UNL     1      -3.785   2.636   2.766  0.00  0.00    +0.098 C 
BRANCH  20  21
ATOM     21  C   UNL     1      -4.598   2.790   4.053  0.00  0.00    +0.016 C 
BRANCH  21  22
ATOM     22  N   UNL     1      -5.448   1.607   4.239  0.00  0.00    +0.387 N 
ATOM     23  C   UNL     1      -6.366   1.482   3.101  0.00  0.00    -0.078 C 
ATOM     24  C   UNL     1      -7.199   0.207   3.249  0.00  0.00    -0.019 C 
ATOM     25  C   UNL     1      -8.003   0.278   4.550  0.00  0.00    -0.004 C 
ATOM     26  C   UNL     1      -7.041   0.482   5.724  0.00  0.00    -0.019 C 
ATOM     27  C   UNL     1      -6.214   1.748   5.483  0.00  0.00    -0.078 C 
ATOM     28  H   UNL     1      -4.869   0.782   4.294  0.00  0.00    -0.081 HD
ENDBRANCH  21  22
BRANCH  21  29
ATOM     29  C   UNL     1      -3.660   2.924   5.226  0.00  0.00    +0.093 A 
ATOM     30  C   UNL     1      -3.321   4.075   5.833  0.00  0.00    +0.043 A 
ATOM     31  C   UNL     1      -2.426   3.740   6.875  0.00  0.00    +0.041 A 
ATOM     32  C   UNL     1      -2.273   2.404   6.843  0.00  0.00    +0.195 A 
ATOM     33  O   UNL     1      -3.028   1.915   5.845  0.00  0.00    -0.469 OA
ENDBRANCH  21  29
ENDBRANCH  20  21
ENDBRANCH   4  20
TORSDOF 7
