REMARK  Name = ZINC31174435
REMARK  8 active torsions:
REMARK  status: ('A' for Active; 'I' for Inactive)
REMARK    1  A    between atoms: C_1  and  C_2
REMARK    2  A    between atoms: C_2  and  N_3
REMARK    3  A    between atoms: N_3  and  C_4
REMARK    4  A    between atoms: N_3  and  C_16
REMARK    5  A    between atoms: C_4  and  C_5
REMARK    6  A    between atoms: C_16  and  C_17
REMARK    7  A    between atoms: N_22  and  C_23
REMARK    8  A    between atoms: C_23  and  C_24
REMARK                            x       y       z     vdW  Elec       q    Type
REMARK                         _______ _______ _______ _____ _____    ______ ____
ROOT
ATOM      1  N   UNL     1       0.088   0.011   0.048  0.00  0.00    +0.388 N 
ATOM      2  H   UNL     1       0.724  -0.468   0.807  0.00  0.00    -0.081 HD
ENDROOT
BRANCH   1   4
ATOM      3  C   UNL     1       1.823   1.733   0.189  0.00  0.00    -0.017 C 
ATOM      4  C   UNL     1       0.320   1.460   0.113  0.00  0.00    -0.081 C 
ENDBRANCH   1   4
BRANCH   1   5
ATOM      5  C   UNL     1       0.472  -0.525  -1.265  0.00  0.00    -0.030 C 
BRANCH   5   6
ATOM      6  C   UNL     1       0.599  -2.048  -1.177  0.00  0.00    +0.195 C 
ATOM      7  C   UNL     1       0.998  -2.614  -2.547  0.00  0.00    +0.271 C 
ATOM      8  O   UNL     1       1.120  -4.035  -2.426  0.00  0.00    -0.485 OA
ATOM      9  C   UNL     1       1.814  -4.500  -1.351  0.00  0.00    +0.162 A 
ATOM     10  C   UNL     1       2.277  -5.807  -1.353  0.00  0.00    +0.049 A 
ATOM     11  C   UNL     1       2.980  -6.295  -0.267  0.00  0.00    +0.004 A 
ATOM     12  C   UNL     1       3.223  -5.481   0.824  0.00  0.00    +0.004 A 
ATOM     13  C   UNL     1       2.765  -4.177   0.832  0.00  0.00    +0.049 A 
ATOM     14  C   UNL     1       2.060  -3.681  -0.255  0.00  0.00    +0.162 A 
ATOM     15  O   UNL     1       1.619  -2.394  -0.234  0.00  0.00    -0.484 OA
ENDBRANCH   5   6
ENDBRANCH   1   5
BRANCH   1  16
ATOM     16  C   UNL     1      -1.310  -0.314   0.360  0.00  0.00    +0.019 C 
BRANCH  16  17
ATOM     17  C   UNL     1      -1.596   0.031   1.799  0.00  0.00    +0.204 C 
ATOM     18  O   UNL     1      -0.722   0.500   2.496  0.00  0.00    -0.277 OA
ATOM     19  N   UNL     1      -2.824  -0.183   2.312  0.00  0.00    -0.242 N 
ATOM     20  C   UNL     1      -3.080   0.125   3.599  0.00  0.00    +0.306 C 
ATOM     21  O   UNL     1      -2.203   0.595   4.297  0.00  0.00    -0.252 OA
ATOM     22  N   UNL     1      -4.308  -0.089   4.112  0.00  0.00    -0.291 N 
ATOM     23  H   UNL     1      -3.618  -0.609   1.681  0.00  0.00    +0.159 HD
ATOM     24  H   UNL     1      -5.101  -0.514   3.480  0.00  0.00    +0.151 HD
BRANCH  22  25
ATOM     25  C   UNL     1      -4.586   0.246   5.511  0.00  0.00    +0.219 C 
BRANCH  25  26
ATOM     26  C   UNL     1      -6.042  -0.091   5.836  0.00  0.00    +0.405 C 
ATOM     27  F   UNL     1      -6.261  -1.458   5.632  0.00  0.00    -0.169 F 
ATOM     28  F   UNL     1      -6.308   0.228   7.172  0.00  0.00    -0.169 F 
ATOM     29  F   UNL     1      -6.889   0.646   5.003  0.00  0.00    -0.169 F 
ENDBRANCH  25  26
ENDBRANCH  22  25
ENDBRANCH  16  17
ENDBRANCH   1  16
TORSDOF 7
