REMARK  Name = ZINC39727087
REMARK  7 active torsions:
REMARK  status: ('A' for Active; 'I' for Inactive)
REMARK    1  A    between atoms: C_1  and  C_2
REMARK    2  A    between atoms: C_4  and  C_12
REMARK    3  A    between atoms: C_12  and  C_14
REMARK    4  A    between atoms: C_14  and  C_16
REMARK    5  A    between atoms: C_14  and  O_17
REMARK    6  A    between atoms: O_17  and  C_18
REMARK    7  A    between atoms: C_18  and  C_20
REMARK                            x       y       z     vdW  Elec       q    Type
REMARK                         _______ _______ _______ _____ _____    ______ ____
ROOT
ATOM      1  C   UNL     1       1.237  -0.858  -3.686  0.00  0.00    +0.244 C 
ATOM      2  C   UNL     1       2.545  -0.075  -3.823  0.00  0.00    +0.061 C 
ENDROOT
BRANCH   1   3
ATOM      3  C   UNL     1       0.402  -0.252  -2.588  0.00  0.00    +0.202 C 
ATOM      4  O   UNL     1      -0.569   0.422  -2.866  0.00  0.00    -0.288 OA
BRANCH   3   7
ATOM      5  C   UNL     1       0.033   1.587  -0.018  0.00  0.00    +0.035 C 
ATOM      6  C   UNL     1       0.030   0.057  -0.013  0.00  0.00    +0.111 C 
ATOM      7  C   UNL     1       0.747  -0.469  -1.237  0.00  0.00    +0.030 C 
ATOM      8  C   UNL     1       1.813  -1.207  -0.754  0.00  0.00    +0.007 A 
ATOM      9  C   UNL     1       2.842  -1.941  -1.390  0.00  0.00    +0.010 A 
ATOM     10  C   UNL     1       3.776  -2.583  -0.653  0.00  0.00    +0.001 A 
ATOM     11  C   UNL     1       3.777  -2.557   0.751  0.00  0.00    +0.002 A 
ATOM     12  C   UNL     1       2.840  -1.886   1.454  0.00  0.00    +0.026 A 
ATOM     13  C   UNL     1       1.785  -1.159   0.729  0.00  0.00    +0.043 A 
ATOM     14  N   UNL     1       0.776  -0.446   1.144  0.00  0.00    -0.377 N 
ATOM     15  H   UNL     1       0.554  -0.274   2.073  0.00  0.00    +0.160 HD
ENDBRANCH   3   7
ENDBRANCH   1   3
BRANCH   1  16
ATOM     16  O   UNL     1       0.517  -0.803  -4.919  0.00  0.00    -0.450 OA
BRANCH  16  17
ATOM     17  C   UNL     1       0.766  -1.775  -5.818  0.00  0.00    +0.337 C 
ATOM     18  O   UNL     1       1.573  -2.646  -5.562  0.00  0.00    -0.245 OA
BRANCH  17  19
ATOM     19  C   UNL     1       0.059  -1.782  -7.114  0.00  0.00    +0.054 C 
ATOM     20  C   UNL     1      -0.950  -0.882  -7.388  0.00  0.00    +0.007 A 
ATOM     21  C   UNL     1      -1.357   0.118  -6.401  0.00  0.00    +0.010 A 
ATOM     22  C   UNL     1      -2.353   0.981  -6.717  0.00  0.00    +0.001 A 
ATOM     23  C   UNL     1      -2.994   0.933  -7.962  0.00  0.00    +0.002 A 
ATOM     24  C   UNL     1      -2.667   0.034  -8.921  0.00  0.00    +0.024 A 
ATOM     25  C   UNL     1      -1.642  -0.911  -8.694  0.00  0.00    +0.041 A 
ATOM     26  N   UNL     1      -1.327  -1.788  -9.636  0.00  0.00    -0.285 N 
ATOM     27  C   UNL     1      -0.376  -2.704  -9.491  0.00  0.00    +0.222 C 
ATOM     28  O   UNL     1      -0.137  -3.480 -10.395  0.00  0.00    -0.275 OA
ATOM     29  C   UNL     1       0.414  -2.775  -8.204  0.00  0.00    +0.139 C 
ATOM     30  H   UNL     1      -1.816  -1.760 -10.473  0.00  0.00    +0.155 HD
ENDBRANCH  17  19
ENDBRANCH  16  17
ENDBRANCH   1  16
TORSDOF 5
