REMARK  Name = ZINC52836843
REMARK  4 active torsions:
REMARK  status: ('A' for Active; 'I' for Inactive)
REMARK    1  A    between atoms: C_1  and  C_2
REMARK    2  A    between atoms: N_9  and  C_10
REMARK    3  A    between atoms: C_10  and  C_11
REMARK    4  A    between atoms: C_14  and  C_16
REMARK                            x       y       z     vdW  Elec       q    Type
REMARK                         _______ _______ _______ _____ _____    ______ ____
ROOT
ATOM      1  C   UNL     1      -0.018   1.503   0.010  0.00  0.00    +0.088 C 
ATOM      2  C   UNL     1       0.002  -0.004   0.002  0.00  0.00    +0.130 A 
ATOM      3  N   UNL     1       0.005  -0.638  -1.153  0.00  0.00    -0.218 NA
ATOM      4  C   UNL     1       0.024  -1.967  -1.199  0.00  0.00    +0.124 A 
ATOM      5  C   UNL     1       0.039  -2.684  -0.001  0.00  0.00    +0.083 A 
ATOM      6  C   UNL     1       0.035  -1.977   1.187  0.00  0.00    +0.135 A 
ATOM      7  N   UNL     1       0.022  -0.650   1.150  0.00  0.00    -0.221 NA
ATOM      8 CL   UNL     1       0.055  -2.813   2.708  0.00  0.00    -0.062 Cl
ATOM      9  N   UNL     1       0.026  -2.630  -2.416  0.00  0.00    -0.323 N 
ATOM     10  H   UNL     1       0.015  -2.124  -3.243  0.00  0.00    +0.148 HD
ENDROOT
BRANCH   9  11
ATOM     11  C   UNL     1       0.046  -4.094  -2.452  0.00  0.00    +0.159 C 
BRANCH  11  12
ATOM     12  C   UNL     1       0.045  -4.561  -3.885  0.00  0.00    +0.066 A 
ATOM     13  C   UNL     1       1.199  -4.865  -4.533  0.00  0.00    +0.071 A 
ATOM     14  S   UNL     1       0.562  -5.336  -6.134  0.00  0.00    -0.080 S 
ATOM     15  C   UNL     1      -1.073  -5.098  -5.811  0.00  0.00    +0.076 A 
ATOM     16  N   UNL     1      -1.076  -4.697  -4.565  0.00  0.00    -0.248 NA
ATOM     17  C   UNL     1      -2.248  -5.304  -6.732  0.00  0.00    +0.073 C 
ENDBRANCH  11  12
ENDBRANCH   9  11
TORSDOF 2
