REMARK  Name = ZINC04885874
REMARK  7 active torsions:
REMARK  status: ('A' for Active; 'I' for Inactive)
REMARK    1  A    between atoms: C_1  and  C_2
REMARK    2  A    between atoms: C_5  and  C_8
REMARK    3  A    between atoms: N_16  and  C_19
REMARK    4  A    between atoms: C_26  and  C_27
REMARK    5  A    between atoms: C_26  and  C_28
REMARK    6  A    between atoms: C_28  and  O_30
REMARK    7  A    between atoms: O_30  and  C_31
REMARK                            x       y       z     vdW  Elec       q    Type
REMARK                         _______ _______ _______ _____ _____    ______ ____
ROOT
ATOM      1  C   UNL     1       2.542   3.952  -0.167  0.00  0.00    -0.027 C 
ATOM      2  C   UNL     1       2.692   4.534   1.235  0.00  0.00    +0.077 C 
ATOM      3  C   UNL     1       1.597   5.659   1.098  0.00  0.00    +0.086 C 
ATOM      4  C   UNL     1       1.369   6.005   2.481  0.00  0.00    +0.229 C 
ATOM      5  O   UNL     1       1.108   7.098   2.935  0.00  0.00    -0.275 OA
ATOM      6  N   UNL     1       1.511   4.833   3.172  0.00  0.00    -0.207 N 
ATOM      7  C   UNL     1       2.095   3.850   2.424  0.00  0.00    +0.229 C 
ATOM      8  O   UNL     1       2.124   2.664   2.673  0.00  0.00    -0.275 OA
ATOM      9  C   UNL     1       1.911   6.287  -0.191  0.00  0.00    +0.041 C 
ATOM     10  C   UNL     1       0.647   6.870  -0.826  0.00  0.00    +0.002 C 
ATOM     11  N   UNL     1       2.450   5.171  -1.021  0.00  0.00    +0.395 N 
ATOM     12  H   UNL     1       1.822   4.993  -1.813  0.00  0.00    -0.083 HD
ATOM     13  H   UNL     1       3.383   5.419  -1.372  0.00  0.00    -0.083 HD
ENDROOT
BRANCH   1  18
ATOM     14  C   UNL     1      -2.296   0.815  -0.555  0.00  0.00    +0.044 C 
ATOM     15  C   UNL     1      -1.033   1.632  -0.457  0.00  0.00    -0.050 A 
ATOM     16  C   UNL     1      -0.996   2.912  -0.976  0.00  0.00    +0.003 A 
ATOM     17  C   UNL     1       0.160   3.664  -0.880  0.00  0.00    +0.002 A 
ATOM     18  C   UNL     1       1.281   3.133  -0.271  0.00  0.00    -0.061 A 
ATOM     19  C   UNL     1       1.246   1.850   0.244  0.00  0.00    +0.002 A 
ATOM     20  C   UNL     1       0.089   1.099   0.149  0.00  0.00    +0.003 A 
ENDBRANCH   1  18
BRANCH   6  21
ATOM     21  C   UNL     1       1.117   4.662   4.508  0.00  0.00    +0.079 A 
ATOM     22  C   UNL     1       2.007   4.937   5.536  0.00  0.00    +0.027 A 
ATOM     23  C   UNL     1       1.615   4.773   6.851  0.00  0.00    +0.002 A 
ATOM     24  C   UNL     1       0.340   4.324   7.143  0.00  0.00    +0.003 A 
ATOM     25  C   UNL     1      -0.549   4.044   6.122  0.00  0.00    +0.040 A 
ATOM     26  C   UNL     1      -0.165   4.212   4.804  0.00  0.00    +0.145 A 
ATOM     27  F   UNL     1      -1.033   3.938   3.806  0.00  0.00    -0.204 F 
ENDBRANCH   6  21
BRANCH   9  28
ATOM     28  C   UNL     1       2.951   7.364  -0.011  0.00  0.00    +0.296 C 
ATOM     29  O   UNL     1       3.034   7.953   1.041  0.00  0.00    -0.252 OA
BRANCH  28  30
ATOM     30  O   UNL     1       3.784   7.667  -1.018  0.00  0.00    -0.469 OA
ATOM     31  C   UNL     1       4.760   8.714  -0.773  0.00  0.00    +0.280 C 
ENDBRANCH  28  30
ENDBRANCH   9  28
TORSDOF 4
