REMARK  Name = ZINC35577603
REMARK  6 active torsions:
REMARK  status: ('A' for Active; 'I' for Inactive)
REMARK    1  A    between atoms: C_1  and  N_2
REMARK    2  A    between atoms: C_3  and  N_30
REMARK    3  A    between atoms: C_5  and  C_25
REMARK    4  A    between atoms: N_14  and  C_17
REMARK    5  A    between atoms: C_17  and  C_18
REMARK    6  A    between atoms: C_18  and  C_19
REMARK                            x       y       z     vdW  Elec       q    Type
REMARK                         _______ _______ _______ _____ _____    ______ ____
ROOT
ATOM      1  C   UNL     1      -0.839   1.107  -0.196  0.00  0.00    +0.174 C 
ATOM      2  N   UNL     1      -0.357  -0.275  -0.126  0.00  0.00    -0.251 N 
ATOM      3  C   UNL     1       0.010  -1.020  -1.184  0.00  0.00    +0.126 A 
ATOM      4  C   UNL     1       0.404  -2.261  -0.705  0.00  0.00    +0.086 A 
ATOM      5  C   UNL     1       0.886  -3.464  -1.278  0.00  0.00    +0.095 A 
ATOM      6  N   UNL     1       1.166  -4.480  -0.466  0.00  0.00    -0.213 NA
ATOM      7  C   UNL     1       1.008  -4.395   0.851  0.00  0.00    +0.220 A 
ATOM      8  N   UNL     1       0.566  -3.317   1.465  0.00  0.00    -0.193 NA
ATOM      9  C   UNL     1       0.244  -2.214   0.759  0.00  0.00    +0.188 A 
ATOM     10  N   UNL     1      -0.204  -1.014   1.053  0.00  0.00    -0.149 NA
ATOM     11  N   UNL     1       1.324  -5.501   1.619  0.00  0.00    -0.303 N 
ATOM     12  C   UNL     1       1.828  -6.736   0.997  0.00  0.00    +0.089 C 
ATOM     13  C   UNL     1       1.002  -7.915   1.520  0.00  0.00    -0.060 C 
ATOM     14  N   UNL     1       1.031  -7.921   2.987  0.00  0.00    +0.382 N 
ATOM     15  C   UNL     1       0.371  -6.716   3.506  0.00  0.00    -0.060 C 
ATOM     16  C   UNL     1       1.172  -5.475   3.082  0.00  0.00    +0.089 C 
ATOM     17  H   UNL     1       1.989  -7.940   3.303  0.00  0.00    -0.082 HD
ENDROOT
BRANCH   5  18
ATOM     18  C   UNL     1       1.071  -3.587  -2.732  0.00  0.00    +0.038 A 
ATOM     19  C   UNL     1       1.637  -2.687  -3.618  0.00  0.00    +0.017 A 
ATOM     20  C   UNL     1       1.671  -3.086  -4.936  0.00  0.00    +0.008 A 
ATOM     21  C   UNL     1       1.163  -4.296  -5.270  0.00  0.00    +0.046 A 
ATOM     22  S   UNL     1       0.630  -4.936  -3.811  0.00  0.00    -0.095 S 
ENDBRANCH   5  18
BRANCH   3  23
ATOM     23  N   UNL     1      -0.003  -0.621  -2.508  0.00  0.00    -0.343 N 
ATOM     24  H   UNL     1      -0.080   0.320  -2.731  0.00  0.00    +0.144 HD
ATOM     25  H   UNL     1       0.066  -1.282  -3.215  0.00  0.00    +0.144 HD
ENDBRANCH   3  23
BRANCH  14  26
ATOM     26  C   UNL     1       0.332  -9.113   3.485  0.00  0.00    -0.074 C 
BRANCH  26  27
ATOM     27  C   UNL     1       0.469  -9.186   5.007  0.00  0.00    +0.016 C 
BRANCH  27  28
ATOM     28  C   UNL     1      -0.249 -10.409   5.518  0.00  0.00    -0.049 A 
ATOM     29  C   UNL     1      -1.584 -10.330   5.868  0.00  0.00    +0.003 A 
ATOM     30  C   UNL     1      -2.243 -11.452   6.337  0.00  0.00    +0.000 A 
ATOM     31  C   UNL     1      -1.566 -12.652   6.455  0.00  0.00    +0.000 A 
ATOM     32  C   UNL     1      -0.232 -12.730   6.104  0.00  0.00    +0.000 A 
ATOM     33  C   UNL     1       0.426 -11.610   5.631  0.00  0.00    +0.003 A 
ENDBRANCH  27  28
ENDBRANCH  26  27
ENDBRANCH  14  26
TORSDOF 5
