REMARK  Name = ZINC49007944
REMARK  8 active torsions:
REMARK  status: ('A' for Active; 'I' for Inactive)
REMARK    1  A    between atoms: C_1  and  C_2
REMARK    2  A    between atoms: C_7  and  N_10
REMARK    3  A    between atoms: N_10  and  C_11
REMARK    4  A    between atoms: C_12  and  C_14
REMARK    5  A    between atoms: C_17  and  N_21
REMARK    6  A    between atoms: C_18  and  N_20
REMARK    7  A    between atoms: N_21  and  C_22
REMARK    8  A    between atoms: N_21  and  C_23
REMARK                            x       y       z     vdW  Elec       q    Type
REMARK                         _______ _______ _______ _____ _____    ______ ____
ROOT
ATOM      1  C   UNL     1      -0.140  -3.614   3.455  0.00  0.00    +0.039 A 
ATOM      2  C   UNL     1       0.979  -2.797   3.641  0.00  0.00    +0.015 A 
ATOM      3  C   UNL     1       1.875  -3.074   4.650  0.00  0.00    +0.026 A 
ATOM      4  C   UNL     1       1.670  -4.166   5.485  0.00  0.00    +0.050 A 
ATOM      5  C   UNL     1       0.554  -4.987   5.304  0.00  0.00    +0.047 A 
ATOM      6  C   UNL     1      -0.351  -4.709   4.298  0.00  0.00    +0.037 A 
ENDROOT
BRANCH   1   9
ATOM      7  N   UNL     1      -0.673  -2.731   1.237  0.00  0.00    -0.298 N 
ATOM      8  C   UNL     1      -1.642  -2.320   0.218  0.00  0.00    +0.132 C 
ATOM      9  C   UNL     1      -1.099  -3.317   2.374  0.00  0.00    +0.247 C 
ATOM     10  O   UNL     1      -2.273  -3.601   2.509  0.00  0.00    -0.270 OA
BRANCH   7  16
ATOM     11  C   UNL     1       0.506   1.082  -0.355  0.00  0.00    +0.007 C 
ATOM     12  C   UNL     1       0.236  -0.420  -0.253  0.00  0.00    -0.012 C 
ATOM     13  C   UNL     1       0.670  -1.105  -1.551  0.00  0.00    +0.003 C 
ATOM     14  C   UNL     1       0.400  -2.608  -1.450  0.00  0.00    +0.002 C 
ATOM     15  C   UNL     1       1.192  -3.190  -0.277  0.00  0.00    +0.022 C 
ATOM     16  C   UNL     1       0.758  -2.505   1.021  0.00  0.00    +0.076 C 
ATOM     17  C   UNL     1       1.027  -1.002   0.920  0.00  0.00    +0.025 C 
ENDBRANCH   7  16
ENDBRANCH   1   9
BRANCH   5  18
ATOM     18  N   UNL     1       0.349  -6.087   6.147  0.00  0.00    -0.357 N 
ATOM     19  H   UNL     1       0.982  -6.279   6.856  0.00  0.00    +0.142 HD
ATOM     20  H   UNL     1      -0.426  -6.656   6.021  0.00  0.00    +0.142 HD
ENDBRANCH   5  18
BRANCH   4  21
ATOM     21  N   UNL     1       2.579  -4.443   6.504  0.00  0.00    -0.335 N 
ATOM     22  C   UNL     1       2.391  -3.856   7.833  0.00  0.00    +0.129 C 
ATOM     23  C   UNL     1       3.724  -5.320   6.247  0.00  0.00    +0.129 C 
ENDBRANCH   4  21
TORSDOF 4
