REMARK  Name = ZINC40782377
REMARK  5 active torsions:
REMARK  status: ('A' for Active; 'I' for Inactive)
REMARK    1  A    between atoms: C_5  and  C_7
REMARK    2  A    between atoms: N_9  and  N_10
REMARK    3  A    between atoms: C_12  and  N_25
REMARK    4  A    between atoms: C_13  and  N_17
REMARK    5  A    between atoms: N_17  and  C_18
REMARK                            x       y       z     vdW  Elec       q    Type
REMARK                         _______ _______ _______ _____ _____    ______ ____
ROOT
ATOM      1  N   UNL     1       2.528  -4.189   0.368  0.00  0.00    -0.247 N 
ATOM      2  C   UNL     1       3.726  -4.854   0.136  0.00  0.00    +0.161 A 
ATOM      3  C   UNL     1       3.775  -6.250   0.142  0.00  0.00    +0.107 A 
ATOM      4  C   UNL     1       5.004  -6.866  -0.097  0.00  0.00    +0.149 A 
ATOM      5  N   UNL     1       6.075  -6.107  -0.320  0.00  0.00    -0.219 NA
ATOM      6  C   UNL     1       5.984  -4.792  -0.317  0.00  0.00    +0.225 A 
ATOM      7  N   UNL     1       4.843  -4.171  -0.102  0.00  0.00    -0.217 NA
ATOM      8  H   UNL     1       1.718  -4.695   0.540  0.00  0.00    +0.172 HD
ENDROOT
BRANCH   1  11
ATOM      9  C   UNL     1       1.327  -2.144   0.579  0.00  0.00    +0.278 C 
ATOM     10  O   UNL     1       0.313  -2.778   0.795  0.00  0.00    -0.267 OA
ATOM     11  N   UNL     1       2.489  -2.789   0.354  0.00  0.00    -0.230 N 
ATOM     12  H   UNL     1       3.299  -2.283   0.181  0.00  0.00    +0.173 HD
BRANCH   9  17
ATOM     13  C   UNL     1       0.060   1.383   0.780  0.00  0.00    +0.004 A 
ATOM     14  C   UNL     1       1.243   2.060   0.529  0.00  0.00    +0.020 A 
ATOM     15  C   UNL     1       2.405   1.338   0.305  0.00  0.00    +0.111 A 
ATOM     16  N   UNL     1       2.398   0.023   0.328  0.00  0.00    -0.250 NA
ATOM     17  C   UNL     1       1.287  -0.663   0.564  0.00  0.00    +0.127 A 
ATOM     18  C   UNL     1       0.082  -0.003   0.797  0.00  0.00    +0.033 A 
ENDBRANCH   9  17
ENDBRANCH   1  11
BRANCH   3  19
ATOM     19  N   UNL     1       2.621  -7.011   0.383  0.00  0.00    -0.353 N 
ATOM     20  H   UNL     1       1.773  -6.569   0.547  0.00  0.00    +0.143 HD
ATOM     21  H   UNL     1       2.670  -7.980   0.384  0.00  0.00    +0.143 HD
ENDBRANCH   3  19
BRANCH   4  22
ATOM     22  N   UNL     1       5.109  -8.253  -0.102  0.00  0.00    -0.298 N 
ATOM     23  H   UNL     1       4.312  -8.800  -0.021  0.00  0.00    +0.154 HD
BRANCH  22  24
ATOM     24  C   UNL     1       6.363  -8.858  -0.222  0.00  0.00    +0.032 A 
ATOM     25  C   UNL     1       6.499 -10.043  -0.935  0.00  0.00    +0.024 A 
ATOM     26  C   UNL     1       7.739 -10.639  -1.052  0.00  0.00    +0.016 A 
ATOM     27  C   UNL     1       8.846 -10.057  -0.460  0.00  0.00    +0.013 A 
ATOM     28  C   UNL     1       8.714  -8.878   0.251  0.00  0.00    +0.016 A 
ATOM     29  C   UNL     1       7.478  -8.274   0.367  0.00  0.00    +0.024 A 
ATOM     30  I   UNL     1      10.726 -10.965  -0.641  0.00  0.00    -0.044 I 
ENDBRANCH  22  24
ENDBRANCH   4  22
TORSDOF 5
