REMARK  Name = ZINC04097449
REMARK  12 active torsions:
REMARK  status: ('A' for Active; 'I' for Inactive)
REMARK    1  A    between atoms: C_1  and  C_2
REMARK    2  A    between atoms: C_2  and  C_3
REMARK    3  A    between atoms: C_4  and  C_21
REMARK    4  A    between atoms: C_10  and  O_19
REMARK    5  A    between atoms: C_11  and  O_17
REMARK    6  A    between atoms: O_17  and  C_18
REMARK    7  A    between atoms: O_19  and  C_20
REMARK    8  A    between atoms: C_21  and  C_22
REMARK    9  A    between atoms: C_26  and  O_34
REMARK   10  A    between atoms: C_27  and  O_32
REMARK   11  A    between atoms: O_32  and  C_33
REMARK   12  A    between atoms: O_34  and  C_35
REMARK                            x       y       z     vdW  Elec       q    Type
REMARK                         _______ _______ _______ _____ _____    ______ ____
ROOT
ATOM      1  C   UNL     1       0.135  -6.709   0.757  0.00  0.00    -0.087 C 
ATOM      2  C   UNL     1      -0.936  -6.141   1.220  0.00  0.00    -0.075 C 
ATOM      3  C   UNL     1      -1.184  -4.663   1.119  0.00  0.00    +0.020 C 
ATOM      4  C   UNL     1      -0.242  -4.049   0.077  0.00  0.00    -0.033 C 
ATOM      5  C   UNL     1      -0.329  -2.548   0.161  0.00  0.00    -0.054 A 
ATOM      6  C   UNL     1      -1.589  -1.969   0.234  0.00  0.00    +0.051 A 
ATOM      7  C   UNL     1      -1.726  -0.595   0.316  0.00  0.00    +0.162 A 
ATOM      8  C   UNL     1      -0.593   0.213   0.316  0.00  0.00    +0.162 A 
ATOM      9  C   UNL     1       0.661  -0.368   0.244  0.00  0.00    +0.053 A 
ATOM     10  C   UNL     1       0.791  -1.746   0.167  0.00  0.00    -0.044 A 
ATOM     11  C   UNL     1       2.178  -2.333   0.091  0.00  0.00    +0.017 C 
ATOM     12  C   UNL     1       2.102  -3.762  -0.446  0.00  0.00    -0.073 C 
ATOM     13  C   UNL     1       1.233  -5.955   0.066  0.00  0.00    -0.047 C 
ATOM     14  N   UNL     1       1.127  -4.517   0.368  0.00  0.00    +0.387 N 
ATOM     15  H   UNL     1       1.330  -4.365   1.363  0.00  0.00    -0.080 HD
ENDROOT
BRANCH   1  17
ATOM     16  C   UNL     1      -0.208  -8.905  -0.342  0.00  0.00    +0.008 C 
ATOM     17  C   UNL     1       0.284  -8.200   0.923  0.00  0.00    +0.025 C 
ENDBRANCH   1  17
BRANCH   8  18
ATOM     18  O   UNL     1      -0.717   1.565   0.391  0.00  0.00    -0.491 OA
ATOM     19  C   UNL     1       0.491   2.329   0.392  0.00  0.00    +0.277 C 
ENDBRANCH   8  18
BRANCH   7  20
ATOM     20  O   UNL     1      -2.963  -0.036   0.392  0.00  0.00    -0.491 OA
ATOM     21  C   UNL     1      -4.080  -0.928   0.387  0.00  0.00    +0.277 C 
ENDBRANCH   7  20
BRANCH   2  22
ATOM     22  C   UNL     1      -1.977  -7.002   1.889  0.00  0.00    +0.019 C 
BRANCH  22  23
ATOM     23  C   UNL     1      -1.712  -7.045   3.395  0.00  0.00    -0.036 C 
ATOM     24  C   UNL     1      -2.674  -8.007   4.042  0.00  0.00    -0.054 A 
ATOM     25  C   UNL     1      -2.925  -9.215   3.406  0.00  0.00    +0.051 A 
ATOM     26  C   UNL     1      -3.798 -10.132   3.963  0.00  0.00    +0.162 A 
ATOM     27  C   UNL     1      -4.428  -9.839   5.170  0.00  0.00    +0.162 A 
ATOM     28  C   UNL     1      -4.175  -8.636   5.799  0.00  0.00    +0.053 A 
ATOM     29  C   UNL     1      -3.300  -7.718   5.235  0.00  0.00    -0.044 A 
ATOM     30  C   UNL     1      -3.063  -6.417   5.958  0.00  0.00    +0.016 C 
ATOM     31  C   UNL     1      -1.798  -5.745   5.423  0.00  0.00    -0.077 C 
ATOM     32  N   UNL     1      -1.880  -5.695   3.952  0.00  0.00    +0.384 N 
ATOM     33  H   UNL     1      -2.796  -5.324   3.674  0.00  0.00    -0.085 HD
ATOM     34  H   UNL     1      -1.139  -5.083   3.590  0.00  0.00    -0.085 HD
BRANCH  27  35
ATOM     35  O   UNL     1      -5.286 -10.735   5.726  0.00  0.00    -0.491 OA
ATOM     36  C   UNL     1      -5.895 -10.366   6.966  0.00  0.00    +0.277 C 
ENDBRANCH  27  35
BRANCH  26  37
ATOM     37  O   UNL     1      -4.040 -11.313   3.335  0.00  0.00    -0.491 OA
ATOM     38  C   UNL     1      -3.358 -11.543   2.100  0.00  0.00    +0.277 C 
ENDBRANCH  26  37
ENDBRANCH  22  23
ENDBRANCH   2  22
TORSDOF 7
