REMARK  Name = ZINC04470840
REMARK  6 active torsions:
REMARK  status: ('A' for Active; 'I' for Inactive)
REMARK    1  A    between atoms: C_1  and  C_2
REMARK    2  A    between atoms: C_2  and  C_3
REMARK    3  A    between atoms: C_6  and  N_9
REMARK    4  A    between atoms: N_11  and  C_24
REMARK    5  A    between atoms: C_15  and  C_16
REMARK    6  A    between atoms: C_21  and  O_22
REMARK                            x       y       z     vdW  Elec       q    Type
REMARK                         _______ _______ _______ _____ _____    ______ ____
ROOT
ATOM      1  N   UNL     1       2.543   3.986   0.018  0.00  0.00    -0.226 NA
ATOM      2  C   UNL     1       1.489   3.315   0.425  0.00  0.00    +0.168 C 
ATOM      3  N   UNL     1       1.389   1.973   0.722  0.00  0.00    -0.249 N 
ATOM      4  C   UNL     1       0.240   1.455   1.122  0.00  0.00    +0.259 C 
ATOM      5  O   UNL     1       0.135   0.272   1.388  0.00  0.00    -0.269 OA
ATOM      6  C   UNL     1      -0.909   2.374   1.226  0.00  0.00    +0.078 C 
ATOM      7  C   UNL     1      -2.188   2.115   1.600  0.00  0.00    +0.032 C 
ATOM      8  S   UNL     1      -0.164   3.920   0.728  0.00  0.00    -0.049 S 
ATOM      9  C   UNL     1       2.568   1.113   0.593  0.00  0.00    +0.140 C 
ENDROOT
BRANCH   1  13
ATOM     10  C   UNL     1       6.057   1.986  -0.859  0.00  0.00    -0.047 A 
ATOM     11  C   UNL     1       5.000   1.943  -1.751  0.00  0.00    +0.006 A 
ATOM     12  C   UNL     1       3.825   2.608  -1.465  0.00  0.00    +0.028 A 
ATOM     13  C   UNL     1       3.705   3.324  -0.272  0.00  0.00    +0.067 A 
ATOM     14  C   UNL     1       4.778   3.367   0.621  0.00  0.00    +0.028 A 
ATOM     15  C   UNL     1       5.945   2.693   0.325  0.00  0.00    +0.006 A 
BRANCH  10  17
ATOM     16  C   UNL     1       8.278   2.189  -1.944  0.00  0.00    +0.009 C 
ATOM     17  C   UNL     1       7.337   1.257  -1.178  0.00  0.00    +0.032 C 
ENDBRANCH  10  17
ENDBRANCH   1  13
BRANCH   7  18
ATOM     18  C   UNL     1      -2.541   0.800   2.147  0.00  0.00    +0.018 A 
ATOM     19  C   UNL     1      -1.629   0.102   2.949  0.00  0.00    +0.011 A 
ATOM     20  C   UNL     1      -1.969  -1.130   3.462  0.00  0.00    +0.001 A 
ATOM     21  C   UNL     1      -3.206  -1.688   3.180  0.00  0.00    +0.004 A 
ATOM     22  C   UNL     1      -4.114  -1.013   2.386  0.00  0.00    +0.046 A 
ATOM     23  C   UNL     1      -3.793   0.230   1.865  0.00  0.00    +0.124 A 
BRANCH  23  24
ATOM     24  O   UNL     1      -4.683   0.893   1.084  0.00  0.00    -0.506 OA
ATOM     25  H   UNL     1      -4.603   0.696   0.141  0.00  0.00    +0.292 HD
ENDBRANCH  23  24
ENDBRANCH   7  18
TORSDOF 4
