REMARK  Name = ZINC62562611
REMARK  4 active torsions:
REMARK  status: ('A' for Active; 'I' for Inactive)
REMARK    1  A    between atoms: C_1  and  C_2
REMARK    2  A    between atoms: C_3  and  N_22
REMARK    3  A    between atoms: N_8  and  C_20
REMARK    4  A    between atoms: C_11  and  C_14
REMARK                            x       y       z     vdW  Elec       q    Type
REMARK                         _______ _______ _______ _____ _____    ______ ____
ROOT
ATOM      1  C   UNL     1       0.127   1.103  -0.380  0.00  0.00    +0.048 C 
ATOM      2  C   UNL     1       0.101  -0.397  -0.224  0.00  0.00    -0.005 A 
ATOM      3  C   UNL     1       0.096  -1.156  -1.397  0.00  0.00    +0.031 A 
ATOM      4  C   UNL     1       0.040  -2.539  -1.345  0.00  0.00    +0.046 A 
ATOM      5  C   UNL     1      -0.027  -3.176  -0.118  0.00  0.00    +0.086 A 
ATOM      6  C   UNL     1      -0.012  -2.430   1.042  0.00  0.00    +0.162 A 
ATOM      7  C   UNL     1       0.089  -1.029   0.999  0.00  0.00    +0.084 A 
ATOM      8  N   UNL     1       0.171  -0.395   2.244  0.00  0.00    -0.268 N 
ATOM      9  C   UNL     1      -0.563  -0.908   3.264  0.00  0.00    +0.265 C 
ATOM     10  O   UNL     1      -0.865  -0.223   4.212  0.00  0.00    -0.271 OA
ATOM     11  C   UNL     1      -0.949  -2.366   3.217  0.00  0.00    +0.289 C 
ATOM     12  O   UNL     1      -0.118  -3.034   2.260  0.00  0.00    -0.472 OA
ATOM     13  C   UNL     1       1.065   0.728   2.528  0.00  0.00    +0.138 C 
ATOM     14 CL   UNL     1      -0.129  -4.908  -0.044  0.00  0.00    -0.080 Cl
ENDROOT
BRANCH  11  15
ATOM     15  C   UNL     1      -2.395  -2.498   2.816  0.00  0.00    +0.002 A 
ATOM     16  C   UNL     1      -2.772  -2.272   1.505  0.00  0.00    +0.008 A 
ATOM     17  C   UNL     1      -4.098  -2.392   1.136  0.00  0.00    +0.000 A 
ATOM     18  C   UNL     1      -5.049  -2.739   2.078  0.00  0.00    +0.000 A 
ATOM     19  C   UNL     1      -4.672  -2.966   3.389  0.00  0.00    +0.000 A 
ATOM     20  C   UNL     1      -3.345  -2.850   3.756  0.00  0.00    +0.008 A 
ENDBRANCH  11  15
BRANCH   3  21
ATOM     21  N   UNL     1       0.147  -0.503  -2.635  0.00  0.00    -0.358 N 
ATOM     22  H   UNL     1       0.186   0.466  -2.671  0.00  0.00    +0.142 HD
ATOM     23  H   UNL     1       0.145  -1.019  -3.456  0.00  0.00    +0.142 HD
ENDBRANCH   3  21
TORSDOF 2
