REMARK  Name = ZINC67562572
REMARK  3 active torsions:
REMARK  status: ('A' for Active; 'I' for Inactive)
REMARK    1  A    between atoms: C_4  and  N_8
REMARK    2  A    between atoms: C_9  and  C_11
REMARK    3  A    between atoms: C_17  and  C_20
REMARK                            x       y       z     vdW  Elec       q    Type
REMARK                         _______ _______ _______ _____ _____    ______ ____
ROOT
ATOM      1  C   UNL     1       4.941  -2.712  -0.276  0.00  0.00    +0.302 C 
ATOM      2  O   UNL     1       3.885  -2.114  -0.290  0.00  0.00    -0.265 OA
ATOM      3  N   UNL     1       4.952  -4.060  -0.284  0.00  0.00    -0.289 N 
ATOM      4  C   UNL     1       3.696  -4.828  -0.281  0.00  0.00    +0.136 C 
ATOM      5  C   UNL     1       3.773  -5.875   0.835  0.00  0.00    +0.180 C 
ATOM      6  O   UNL     1       4.978  -6.630   0.691  0.00  0.00    -0.364 OA
ATOM      7  C   UNL     1       6.173  -5.856   0.821  0.00  0.00    +0.221 C 
ATOM      8  C   UNL     1       6.219  -4.807  -0.301  0.00  0.00    +0.149 C 
ENDROOT
BRANCH   7   9
ATOM      9  C   UNL     1       7.373  -6.760   0.714  0.00  0.00    +0.241 C 
ATOM     10  O   UNL     1       7.226  -7.935   0.453  0.00  0.00    -0.273 OA
ATOM     11  N   UNL     1       8.611  -6.263   0.909  0.00  0.00    -0.327 N 
ATOM     12  H   UNL     1       8.729  -5.324   1.118  0.00  0.00    +0.145 HD
ATOM     13  H   UNL     1       9.384  -6.846   0.840  0.00  0.00    +0.145 HD
ENDBRANCH   7   9
BRANCH   1  15
ATOM     14  N   UNL     1       6.218  -0.615  -0.112  0.00  0.00    -0.276 N 
ATOM     15  C   UNL     1       6.228  -1.955  -0.252  0.00  0.00    +0.303 C 
ATOM     16  O   UNL     1       7.282  -2.547  -0.357  0.00  0.00    -0.265 OA
ATOM     17  H   UNL     1       5.381  -0.148   0.037  0.00  0.00    +0.155 HD
BRANCH  14  21
ATOM     18  C   UNL     1       9.786   1.527  -0.315  0.00  0.00    +0.017 A 
ATOM     19  C   UNL     1       8.618   2.085  -0.803  0.00  0.00    +0.023 A 
ATOM     20  C   UNL     1       7.433   1.377  -0.738  0.00  0.00    +0.062 A 
ATOM     21  C   UNL     1       7.415   0.103  -0.180  0.00  0.00    +0.053 A 
ATOM     22  C   UNL     1       8.590  -0.453   0.308  0.00  0.00    +0.040 A 
ATOM     23  C   UNL     1       9.772   0.260   0.240  0.00  0.00    +0.020 A 
ATOM     24 BR   UNL     1      11.372  -0.497   0.905  0.00  0.00    -0.050 Br
ATOM     25 CL   UNL     1       5.967   2.078  -1.349  0.00  0.00    -0.082 Cl
ENDBRANCH  14  21
ENDBRANCH   1  15
TORSDOF 3
