REMARK  Name = ZINC04406572
REMARK  6 active torsions:
REMARK  status: ('A' for Active; 'I' for Inactive)
REMARK    1  A    between atoms: C_1  and  C_2
REMARK    2  A    between atoms: C_2  and  C_3
REMARK    3  A    between atoms: C_3  and  C_5
REMARK    4  A    between atoms: C_3  and  N_6
REMARK    5  A    between atoms: C_12  and  C_19
REMARK    6  A    between atoms: N_17  and  C_18
REMARK                            x       y       z     vdW  Elec       q    Type
REMARK                         _______ _______ _______ _____ _____    ______ ____
ROOT
ATOM      1  N   UNL     1      -0.355   1.100   0.301  0.00  0.00    -0.289 N 
ATOM      2  C   UNL     1       0.981   1.710   0.228  0.00  0.00    +0.159 C 
ATOM      3  C   UNL     1       1.934   0.544   0.094  0.00  0.00    +0.042 C 
ATOM      4  C   UNL     1       1.174  -0.570   0.097  0.00  0.00    +0.058 C 
ATOM      5  C   UNL     1      -0.189  -0.232   0.220  0.00  0.00    +0.247 C 
ATOM      6  O   UNL     1      -1.099  -1.042   0.250  0.00  0.00    -0.270 OA
ATOM      7  C   UNL     1       1.880  -1.905  -0.026  0.00  0.00    +0.143 C 
ATOM      8  N   UNL     1       3.348  -1.875  -0.139  0.00  0.00    -0.288 N 
ATOM      9  C   UNL     1       3.969  -0.679  -0.126  0.00  0.00    +0.307 C 
ATOM     10  O   UNL     1       5.180  -0.644  -0.218  0.00  0.00    -0.252 OA
ATOM     11  N   UNL     1       3.294   0.473  -0.015  0.00  0.00    -0.260 N 
ATOM     12  C   UNL     1       4.055   1.724  -0.010  0.00  0.00    +0.139 C 
ATOM     13  H   UNL     1       3.856  -2.697  -0.220  0.00  0.00    +0.151 HD
ENDROOT
BRANCH   7  14
ATOM     14  C   UNL     1       1.335  -2.608  -1.242  0.00  0.00    -0.003 A 
ATOM     15  C   UNL     1       0.654  -1.891  -2.209  0.00  0.00    +0.007 A 
ATOM     16  C   UNL     1       0.159  -2.535  -3.327  0.00  0.00    +0.002 A 
ATOM     17  C   UNL     1       0.334  -3.899  -3.475  0.00  0.00    +0.021 A 
ATOM     18  C   UNL     1       1.009  -4.618  -2.506  0.00  0.00    +0.060 A 
ATOM     19  C   UNL     1       1.510  -3.973  -1.388  0.00  0.00    +0.064 A 
ATOM     20 CL   UNL     1       2.357  -4.875  -0.171  0.00  0.00    -0.082 Cl
ATOM     21 CL   UNL     1       1.229  -6.330  -2.691  0.00  0.00    -0.082 Cl
ENDBRANCH   7  14
BRANCH   1  22
ATOM     22  C   UNL     1      -1.629   1.811   0.431  0.00  0.00    +0.073 C 
ATOM     23  C   UNL     1      -2.516   1.493  -0.775  0.00  0.00    +0.028 C 
BRANCH  22  25
ATOM     24  C   UNL     1      -1.505   1.796   2.926  0.00  0.00    +0.005 C 
ATOM     25  C   UNL     1      -2.333   1.366   1.714  0.00  0.00    +0.019 C 
ENDBRANCH  22  25
ENDBRANCH   1  22
TORSDOF 3
