REMARK  Name = ZINC63589402
REMARK  9 active torsions:
REMARK  status: ('A' for Active; 'I' for Inactive)
REMARK    1  A    between atoms: C_1  and  C_2
REMARK    2  A    between atoms: C_2  and  O_3
REMARK    3  A    between atoms: O_3  and  C_4
REMARK    4  A    between atoms: C_7  and  C_10
REMARK    5  A    between atoms: C_10  and  N_12
REMARK    6  A    between atoms: N_14  and  C_15
REMARK    7  A    between atoms: N_22  and  C_23
REMARK    8  A    between atoms: C_23  and  C_24
REMARK    9  A    between atoms: C_24  and  C_25
REMARK                            x       y       z     vdW  Elec       q    Type
REMARK                         _______ _______ _______ _____ _____    ______ ____
ROOT
ATOM      1  N   UNL     1       1.760  -6.740  -3.857  0.00  0.00    -0.143 NA
ATOM      2  C   UNL     1       1.195  -7.778  -3.260  0.00  0.00    +0.194 C 
ATOM      3  N   UNL     1       1.247  -7.895  -1.900  0.00  0.00    -0.328 N 
ATOM      4  N   UNL     1       0.560  -8.730  -4.002  0.00  0.00    -0.357 N 
ATOM      5  H   UNL     1       0.924  -7.173  -1.338  0.00  0.00    +0.169 HD
ATOM      6  H   UNL     1       0.563  -8.672  -4.970  0.00  0.00    +0.162 HD
ENDROOT
BRANCH   3   7
ATOM      7  C   UNL     1       1.767  -9.056  -1.318  0.00  0.00    +0.044 A 
ATOM      8  C   UNL     1       2.838  -9.712  -1.912  0.00  0.00    +0.026 A 
ATOM      9  C   UNL     1       3.350 -10.858  -1.335  0.00  0.00    +0.005 A 
ATOM     10  C   UNL     1       2.799 -11.353  -0.168  0.00  0.00    +0.038 A 
ATOM     11  C   UNL     1       1.732 -10.701   0.428  0.00  0.00    +0.125 A 
ATOM     12  C   UNL     1       1.218  -9.550  -0.142  0.00  0.00    +0.064 A 
ATOM     13  F   UNL     1       1.195 -11.187   1.569  0.00  0.00    -0.205 F 
ENDBRANCH   3   7
BRANCH   1  14
ATOM     14  C   UNL     1       2.501  -5.879  -3.146  0.00  0.00    +0.270 C 
ATOM     15  O   UNL     1       2.579  -5.998  -1.936  0.00  0.00    -0.268 OA
BRANCH  14  19
ATOM     16  C   UNL     1       4.578  -2.736  -5.111  0.00  0.00    +0.121 A 
ATOM     17  C   UNL     1       4.668  -2.869  -3.731  0.00  0.00    +0.046 A 
ATOM     18  C   UNL     1       3.996  -3.887  -3.091  0.00  0.00    +0.017 A 
ATOM     19  C   UNL     1       3.224  -4.785  -3.830  0.00  0.00    +0.039 A 
ATOM     20  C   UNL     1       3.135  -4.648  -5.217  0.00  0.00    +0.017 A 
ATOM     21  C   UNL     1       3.806  -3.625  -5.850  0.00  0.00    +0.046 A 
BRANCH  16  22
ATOM     22  O   UNL     1       5.242  -1.733  -5.739  0.00  0.00    -0.492 OA
BRANCH  22  24
ATOM     23  C   UNL     1       6.688   0.203  -5.798  0.00  0.00    +0.048 C 
ATOM     24  C   UNL     1       6.018  -0.856  -4.920  0.00  0.00    +0.225 C 
ENDBRANCH  22  24
ENDBRANCH  16  22
ENDBRANCH  14  19
ENDBRANCH   1  14
BRANCH   4  25
ATOM     25  C   UNL     1      -0.128  -9.840  -3.337  0.00  0.00    +0.120 C 
BRANCH  25  26
ATOM     26  C   UNL     1      -0.755 -10.756  -4.390  0.00  0.00    +0.054 C 
BRANCH  26  27
ATOM     27  C   UNL     1      -1.563 -11.828  -3.706  0.00  0.00    -0.040 C 
ATOM     28  C   UNL     1      -2.884 -11.793  -3.420  0.00  0.00    -0.001 A 
ATOM     29  C   UNL     1      -3.925 -10.784  -3.650  0.00  0.00    +0.010 A 
ATOM     30  C   UNL     1      -5.188 -11.040  -3.242  0.00  0.00    +0.001 A 
ATOM     31  C   UNL     1      -5.528 -12.241  -2.605  0.00  0.00    +0.002 A 
ATOM     32  C   UNL     1      -4.627 -13.216  -2.358  0.00  0.00    +0.026 A 
ATOM     33  C   UNL     1      -3.269 -13.054  -2.746  0.00  0.00    +0.043 A 
ATOM     34  N   UNL     1      -2.225 -13.838  -2.620  0.00  0.00    -0.380 N 
ATOM     35  C   UNL     1      -1.061 -13.165  -3.206  0.00  0.00    +0.144 C 
ATOM     36  H   UNL     1      -2.224 -14.717  -2.211  0.00  0.00    +0.160 HD
ENDBRANCH  26  27
ENDBRANCH  25  26
ENDBRANCH   4  25
TORSDOF 8
