REMARK  Name = ZINC13040706
REMARK  16 active torsions:
REMARK  status: ('A' for Active; 'I' for Inactive)
REMARK    1  A    between atoms: C_1  and  C_2
REMARK    2  A    between atoms: C_4  and  C_34
REMARK    3  A    between atoms: C_6  and  N_8
REMARK    4  A    between atoms: C_9  and  C_11
REMARK    5  A    between atoms: C_11  and  C_12
REMARK    6  A    between atoms: C_12  and  C_13
REMARK    7  A    between atoms: N_15  and  C_16
REMARK    8  A    between atoms: N_15  and  C_20
REMARK    9  A    between atoms: C_16  and  C_17
REMARK   10  A    between atoms: C_17  and  C_18
REMARK   11  A    between atoms: C_17  and  C_19
REMARK   12  A    between atoms: C_21  and  N_33
REMARK   13  A    between atoms: N_22  and  C_29
REMARK   14  A    between atoms: C_29  and  C_30
REMARK   15  A    between atoms: C_30  and  C_31
REMARK   16  A    between atoms: C_30  and  C_32
REMARK                            x       y       z     vdW  Elec       q    Type
REMARK                         _______ _______ _______ _____ _____    ______ ____
ROOT
ATOM      1  C   UNL     1      -1.775  -0.934   0.103  0.00  0.00    +0.220 C 
ATOM      2  O   UNL     1      -0.574  -0.766   0.056  0.00  0.00    -0.275 OA
ATOM      3  N   UNL     1      -2.296  -2.150  -0.165  0.00  0.00    -0.264 N 
ENDROOT
BRANCH   3   4
ATOM      4  C   UNL     1      -1.441  -3.249  -0.393  0.00  0.00    +0.140 A 
ATOM      5  C   UNL     1      -1.448  -3.903  -1.608  0.00  0.00    +0.127 A 
ATOM      6  N   UNL     1      -0.603  -4.972  -1.800  0.00  0.00    -0.280 N 
ATOM      7  C   UNL     1       0.220  -5.374  -0.815  0.00  0.00    +0.331 A 
ATOM      8  O   UNL     1       0.959  -6.321  -1.005  0.00  0.00    -0.246 OA
ATOM      9  N   UNL     1       0.240  -4.749   0.375  0.00  0.00    -0.273 N 
ATOM     10  H   UNL     1       0.859  -5.071   1.092  0.00  0.00    +0.173 HD
ATOM     11  C   UNL     1      -0.564  -3.694   0.613  0.00  0.00    +0.277 A 
ATOM     12  O   UNL     1      -0.534  -3.131   1.694  0.00  0.00    -0.266 OA
BRANCH   5  13
ATOM     13  N   UNL     1      -2.289  -3.492  -2.614  0.00  0.00    -0.343 N 
ATOM     14  H   UNL     1      -2.817  -2.686  -2.506  0.00  0.00    +0.144 HD
ATOM     15  H   UNL     1      -2.355  -4.009  -3.433  0.00  0.00    +0.144 HD
ENDBRANCH   5  13
BRANCH   6  16
ATOM     16  C   UNL     1      -0.599  -5.675  -3.086  0.00  0.00    +0.131 C 
BRANCH  16  17
ATOM     17  C   UNL     1       0.423  -5.025  -4.020  0.00  0.00    +0.003 C 
ATOM     18  C   UNL     1       1.830  -5.216  -3.449  0.00  0.00    +0.009 C 
ATOM     19  C   UNL     1       0.340  -5.678  -5.401  0.00  0.00    +0.009 C 
ENDBRANCH  16  17
ENDBRANCH   6  16
ENDBRANCH   3   4
BRANCH   1  20
ATOM     20  C   UNL     1      -2.684   0.213   0.460  0.00  0.00    +0.105 C 
BRANCH  20  21
ATOM     21  C   UNL     1      -1.859   1.496   0.590  0.00  0.00    +0.105 C 
BRANCH  21  23
ATOM     22  N   UNL     1      -2.259   3.880   1.114  0.00  0.00    -0.285 N 
ATOM     23  C   UNL     1      -2.768   2.643   0.947  0.00  0.00    +0.218 C 
ATOM     24  O   UNL     1      -3.959   2.455   1.079  0.00  0.00    -0.275 OA
ATOM     25  H   UNL     1      -1.300   4.019   1.071  0.00  0.00    +0.155 HD
BRANCH  22  31
ATOM     26  C   UNL     1      -6.349   5.673   3.169  0.00  0.00    +0.044 C 
ATOM     27  C   UNL     1      -5.103   5.860   2.343  0.00  0.00    -0.048 A 
ATOM     28  C   UNL     1      -4.802   7.103   1.818  0.00  0.00    +0.006 A 
ATOM     29  C   UNL     1      -3.660   7.279   1.059  0.00  0.00    -0.048 A 
ATOM     30  C   UNL     1      -2.814   6.212   0.824  0.00  0.00    +0.026 A 
ATOM     31  C   UNL     1      -3.113   4.962   1.351  0.00  0.00    +0.034 A 
ATOM     32  C   UNL     1      -4.264   4.788   2.107  0.00  0.00    +0.026 A 
ATOM     33  C   UNL     1      -3.336   8.636   0.488  0.00  0.00    +0.044 C 
ENDBRANCH  22  31
ENDBRANCH  21  23
ENDBRANCH  20  21
ENDBRANCH   1  20
BRANCH   3  34
ATOM     34  C   UNL     1      -3.749  -2.328  -0.220  0.00  0.00    +0.117 C 
BRANCH  34  35
ATOM     35  C   UNL     1      -4.288  -2.557   1.194  0.00  0.00    +0.001 C 
ATOM     36  C   UNL     1      -5.818  -2.585   1.157  0.00  0.00    +0.009 C 
ATOM     37  C   UNL     1      -3.766  -3.891   1.729  0.00  0.00    +0.009 C 
ENDBRANCH  34  35
ENDBRANCH   3  34
TORSDOF 10
