REMARK  Name = ZINC39920601
REMARK  6 active torsions:
REMARK  status: ('A' for Active; 'I' for Inactive)
REMARK    1  A    between atoms: C_10  and  O_11
REMARK    2  A    between atoms: O_11  and  C_12
REMARK    3  A    between atoms: C_12  and  C_13
REMARK    4  A    between atoms: N_15  and  N_16
REMARK    5  A    between atoms: C_17  and  C_29
REMARK    6  A    between atoms: C_32  and  O_35
REMARK                            x       y       z     vdW  Elec       q    Type
REMARK                         _______ _______ _______ _____ _____    ______ ____
ROOT
ATOM      1  N   UNL     1       9.759   0.784  -0.105  0.00  0.00    -0.191 N 
ATOM      2  C   UNL     1      10.219   0.807  -1.493  0.00  0.00    +0.212 C 
ATOM      3  N   UNL     1      11.678   0.966  -1.544  0.00  0.00    -0.320 N 
ATOM      4  C   UNL     1      12.272   1.907  -0.710  0.00  0.00    +0.041 A 
ATOM      5  C   UNL     1      13.443   2.558  -1.058  0.00  0.00    +0.025 A 
ATOM      6  C   UNL     1      13.991   3.488  -0.195  0.00  0.00    +0.017 A 
ATOM      7  C   UNL     1      13.377   3.774   1.015  0.00  0.00    +0.019 A 
ATOM      8  C   UNL     1      12.210   3.133   1.377  0.00  0.00    +0.030 A 
ATOM      9  C   UNL     1      11.648   2.192   0.517  0.00  0.00    +0.060 A 
ATOM     10  C   UNL     1      10.405   1.476   0.857  0.00  0.00    +0.267 C 
ATOM     11  O   UNL     1       9.968   1.505   1.992  0.00  0.00    -0.268 OA
ATOM     12 BR   UNL     1      14.146   5.051   2.178  0.00  0.00    -0.050 Br
ATOM     13  H   UNL     1      12.215   0.426  -2.144  0.00  0.00    +0.148 HD
ENDROOT
BRANCH   2  14
ATOM     14  C   UNL     1       9.570   1.959  -2.216  0.00  0.00    -0.008 A 
ATOM     15  C   UNL     1       8.865   1.732  -3.384  0.00  0.00    +0.011 A 
ATOM     16  C   UNL     1       8.269   2.786  -4.048  0.00  0.00    +0.046 A 
ATOM     17  C   UNL     1       8.378   4.073  -3.542  0.00  0.00    +0.117 A 
ATOM     18  C   UNL     1       9.085   4.298  -2.370  0.00  0.00    +0.046 A 
ATOM     19  C   UNL     1       9.675   3.240  -1.707  0.00  0.00    +0.011 A 
BRANCH  17  20
ATOM     20  O   UNL     1       7.793   5.112  -4.195  0.00  0.00    -0.507 OA
ATOM     21  H   UNL     1       6.885   5.291  -3.914  0.00  0.00    +0.292 HD
ENDBRANCH  17  20
ENDBRANCH   2  14
BRANCH   1  24
ATOM     22  C   UNL     1       7.446   0.656   0.445  0.00  0.00    +0.267 C 
ATOM     23  O   UNL     1       7.388   1.867   0.433  0.00  0.00    -0.271 OA
ATOM     24  N   UNL     1       8.624   0.036   0.231  0.00  0.00    -0.227 N 
ATOM     25  H   UNL     1       8.685  -0.929   0.311  0.00  0.00    +0.173 HD
BRANCH  22  26
ATOM     26  C   UNL     1       6.202  -0.156   0.697  0.00  0.00    +0.326 C 
BRANCH  26  27
ATOM     27  O   UNL     1       5.092   0.723   0.892  0.00  0.00    -0.482 OA
BRANCH  27  37
ATOM     28  C   UNL     1       0.470   2.485   1.743  0.00  0.00    +0.001 A 
ATOM     29  C   UNL     1       1.699   3.094   1.497  0.00  0.00    +0.001 A 
ATOM     30  C   UNL     1       2.822   2.351   1.296  0.00  0.00    +0.012 A 
ATOM     31  C   UNL     1       2.744   0.950   1.336  0.00  0.00    +0.024 A 
ATOM     32  C   UNL     1       1.495   0.329   1.585  0.00  0.00    -0.014 A 
ATOM     33  C   UNL     1       0.357   1.129   1.788  0.00  0.00    +0.008 A 
ATOM     34  C   UNL     1       1.417  -1.073   1.625  0.00  0.00    +0.009 A 
ATOM     35  C   UNL     1       2.539  -1.818   1.425  0.00  0.00    +0.004 A 
ATOM     36  C   UNL     1       3.769  -1.214   1.180  0.00  0.00    +0.046 A 
ATOM     37  C   UNL     1       3.885   0.147   1.133  0.00  0.00    +0.129 A 
ENDBRANCH  27  37
ENDBRANCH  26  27
ENDBRANCH  22  26
ENDBRANCH   1  24
TORSDOF 6
