REMARK  Name = ZINC53149633
REMARK  5 active torsions:
REMARK  status: ('A' for Active; 'I' for Inactive)
REMARK    1  A    between atoms: C_6  and  C_7
REMARK    2  A    between atoms: C_7  and  N_8
REMARK    3  A    between atoms: N_8  and  S_9
REMARK    4  A    between atoms: S_9  and  C_12
REMARK    5  A    between atoms: C_15  and  C_17
REMARK                            x       y       z     vdW  Elec       q    Type
REMARK                         _______ _______ _______ _____ _____    ______ ____
ROOT
ATOM      1  N   UNL     1      -1.726  -1.017  -1.368  0.00  0.00    -0.185 NA
ATOM      2  H   UNL     1      -1.325  -0.518  -2.097  0.00  0.00    +0.148 HD
ENDROOT
BRANCH   1   3
ATOM      3  S   UNL     1      -2.899  -2.143  -1.682  0.00  0.00    +0.065 S 
ATOM      4  O   UNL     1      -3.113  -2.126  -3.087  0.00  0.00    -0.153 OA
ATOM      5  O   UNL     1      -2.526  -3.323  -0.983  0.00  0.00    -0.153 OA
BRANCH   3   6
ATOM      6  C   UNL     1      -4.388  -1.565  -0.938  0.00  0.00    +0.143 A 
ATOM      7  C   UNL     1      -5.348  -0.782  -1.492  0.00  0.00    +0.037 A 
ATOM      8  C   UNL     1      -6.444  -0.438  -0.743  0.00  0.00    +0.025 A 
ATOM      9  C   UNL     1      -6.470  -0.939   0.553  0.00  0.00    +0.102 A 
ATOM     10  S   UNL     1      -4.948  -1.865   0.617  0.00  0.00    -0.062 S 
BRANCH   9  11
ATOM     11  C   UNL     1      -7.453  -0.764   1.560  0.00  0.00    +0.393 C 
ATOM     12  O   UNL     1      -8.449  -0.089   1.332  0.00  0.00    -0.240 OA
ATOM     13  O   UNL     1      -7.306  -1.288   2.657  0.00  0.00    -0.240 OA
ENDBRANCH   9  11
ENDBRANCH   3   6
ENDBRANCH   1   3
BRANCH   1  14
ATOM     14  C   UNL     1      -1.293  -0.775   0.010  0.00  0.00    +0.141 C 
BRANCH  14  20
ATOM     15  C   UNL     1      -0.017   1.378   0.010  0.00  0.00    +0.008 A 
ATOM     16  C   UNL     1       1.170   2.086   0.002  0.00  0.00    +0.040 A 
ATOM     17  C   UNL     1       2.379   1.412  -0.013  0.00  0.00    +0.142 A 
ATOM     18  C   UNL     1       2.397   0.026  -0.021  0.00  0.00    +0.076 A 
ATOM     19  C   UNL     1       1.208  -0.680  -0.013  0.00  0.00    +0.027 A 
ATOM     20  C   UNL     1       0.002  -0.004   0.002  0.00  0.00    -0.030 A 
ATOM     21 CL   UNL     1       3.911  -0.823  -0.040  0.00  0.00    -0.081 Cl
ATOM     22  F   UNL     1       3.539   2.103  -0.021  0.00  0.00    -0.204 F 
ENDBRANCH  14  20
ENDBRANCH   1  14
TORSDOF 5
