REMARK  Name = ZINC02891855
REMARK  5 active torsions:
REMARK  status: ('A' for Active; 'I' for Inactive)
REMARK    1  A    between atoms: C_1  and  C_2
REMARK    2  A    between atoms: C_15  and  C_20
REMARK    3  A    between atoms: N_16  and  C_17
REMARK    4  A    between atoms: C_17  and  C_18
REMARK    5  A    between atoms: C_18  and  O_19
REMARK                            x       y       z     vdW  Elec       q    Type
REMARK                         _______ _______ _______ _____ _____    ______ ____
ROOT
ATOM      1  C   UNL     1      -3.216   1.831  -0.058  0.00  0.00    +0.061 C 
ATOM      2  C   UNL     1      -2.964   0.984  -1.279  0.00  0.00    +0.008 C 
ATOM      3  C   UNL     1      -3.610   1.267  -2.435  0.00  0.00    +0.027 C 
ATOM      4  C   UNL     1      -3.372   0.466  -3.571  0.00  0.00    -0.005 C 
ATOM      5  C   UNL     1      -4.057   0.739  -4.838  0.00  0.00    +0.106 C 
ATOM      6  C   UNL     1      -4.841   1.905  -5.001  0.00  0.00    +0.257 C 
ATOM      7  O   UNL     1      -4.959   2.702  -4.087  0.00  0.00    -0.270 OA
ATOM      8  N   UNL     1      -5.452   2.124  -6.182  0.00  0.00    -0.236 N 
ATOM      9  C   UNL     1      -5.331   1.246  -7.193  0.00  0.00    +0.313 C 
ATOM     10  O   UNL     1      -5.900   1.472  -8.243  0.00  0.00    -0.252 OA
ATOM     11  N   UNL     1      -4.600   0.125  -7.074  0.00  0.00    -0.236 N 
ATOM     12  C   UNL     1      -3.955  -0.160  -5.925  0.00  0.00    +0.257 C 
ATOM     13  O   UNL     1      -3.294  -1.179  -5.824  0.00  0.00    -0.270 OA
ATOM     14  C   UNL     1      -2.459  -0.605  -3.461  0.00  0.00    +0.036 C 
ATOM     15  C   UNL     1      -1.843  -0.829  -2.276  0.00  0.00    +0.115 C 
ATOM     16  N   UNL     1      -2.094  -0.043  -1.209  0.00  0.00    -0.298 N 
ATOM     17  H   UNL     1      -5.988   2.923  -6.303  0.00  0.00    +0.159 HD
ATOM     18  H   UNL     1      -4.535  -0.486  -7.824  0.00  0.00    +0.159 HD
ENDROOT
BRANCH  15  19
ATOM     19  C   UNL     1      -0.866  -1.969  -2.148  0.00  0.00    +0.430 C 
ATOM     20  F   UNL     1      -0.768  -2.639  -3.373  0.00  0.00    -0.165 F 
ATOM     21  F   UNL     1       0.390  -1.469  -1.789  0.00  0.00    -0.165 F 
ATOM     22  F   UNL     1      -1.313  -2.858  -1.165  0.00  0.00    -0.165 F 
ENDBRANCH  15  19
BRANCH  16  23
ATOM     23  C   UNL     1      -1.409  -0.316   0.057  0.00  0.00    +0.138 C 
BRANCH  23  24
ATOM     24  C   UNL     1      -0.136   0.529   0.141  0.00  0.00    +0.175 C 
BRANCH  24  25
ATOM     25  O   UNL     1      -0.487   1.914   0.192  0.00  0.00    -0.393 OA
ATOM     26  H   UNL     1       0.272   2.510   0.246  0.00  0.00    +0.209 HD
ENDBRANCH  24  25
ENDBRANCH  23  24
ENDBRANCH  16  23
TORSDOF 4
