REMARK  Name = ZINC39411813
REMARK  6 active torsions:
REMARK  status: ('A' for Active; 'I' for Inactive)
REMARK    1  A    between atoms: C_1  and  C_2
REMARK    2  A    between atoms: C_8  and  S_10
REMARK    3  A    between atoms: S_10  and  C_11
REMARK    4  A    between atoms: C_11  and  C_12
REMARK    5  A    between atoms: N_21  and  C_22
REMARK    6  A    between atoms: C_22  and  C_23
REMARK                            x       y       z     vdW  Elec       q    Type
REMARK                         _______ _______ _______ _____ _____    ______ ____
ROOT
ATOM      1  C   UNL     1       5.397  -1.982  -0.035  0.00  0.00    +0.169 C 
ATOM      2  N   UNL     1       5.599  -2.863   1.121  0.00  0.00    -0.324 N 
ATOM      3  C   UNL     1       5.897  -4.140   0.626  0.00  0.00    +0.050 A 
ATOM      4  C   UNL     1       6.172  -5.326   1.296  0.00  0.00    +0.025 A 
ATOM      5  C   UNL     1       6.442  -6.479   0.583  0.00  0.00    +0.002 A 
ATOM      6  C   UNL     1       6.442  -6.456  -0.799  0.00  0.00    +0.002 A 
ATOM      7  C   UNL     1       6.171  -5.282  -1.474  0.00  0.00    +0.025 A 
ATOM      8  C   UNL     1       5.897  -4.117  -0.766  0.00  0.00    +0.053 A 
ATOM      9  N   UNL     1       5.598  -2.824  -1.220  0.00  0.00    -0.305 N 
ATOM     10  H   UNL     1       5.537  -2.609   2.055  0.00  0.00    +0.148 HD
ENDROOT
BRANCH   1  11
ATOM     11  C   UNL     1       3.977  -1.414  -0.025  0.00  0.00    +0.119 C 
BRANCH  11  12
ATOM     12  S   UNL     1       2.781  -2.777  -0.027  0.00  0.00    -0.084 S 
BRANCH  12  20
ATOM     13  C   UNL     1      -0.018   1.503   0.010  0.00  0.00    +0.066 C 
ATOM     14  C   UNL     1       0.002  -0.004   0.002  0.00  0.00    +0.046 A 
ATOM     15  C   UNL     1      -1.171  -0.701   0.004  0.00  0.00    +0.093 A 
ATOM     16  C   UNL     1      -1.128  -2.107  -0.004  0.00  0.00    +0.252 A 
ATOM     17  O   UNL     1      -2.158  -2.761  -0.004  0.00  0.00    -0.268 OA
ATOM     18  N   UNL     1       0.076  -2.718  -0.014  0.00  0.00    -0.302 N 
ATOM     19  H   UNL     1       0.130  -3.687  -0.020  0.00  0.00    +0.171 HD
ATOM     20  C   UNL     1       1.214  -1.970  -0.015  0.00  0.00    +0.169 A 
ATOM     21  N   UNL     1       1.164  -0.652  -0.013  0.00  0.00    -0.228 NA
ENDBRANCH  12  20
ENDBRANCH  11  12
ENDBRANCH   1  11
BRANCH   9  22
ATOM     22  C   UNL     1       5.503  -2.393  -2.617  0.00  0.00    +0.142 C 
BRANCH  22  23
ATOM     23  C   UNL     1       6.854  -1.923  -3.091  0.00  0.00    -0.030 A 
ATOM     24  C   UNL     1       7.216  -0.597  -2.943  0.00  0.00    +0.005 A 
ATOM     25  C   UNL     1       8.455  -0.165  -3.377  0.00  0.00    +0.000 A 
ATOM     26  C   UNL     1       9.333  -1.060  -3.960  0.00  0.00    +0.000 A 
ATOM     27  C   UNL     1       8.972  -2.386  -4.107  0.00  0.00    +0.000 A 
ATOM     28  C   UNL     1       7.735  -2.818  -3.669  0.00  0.00    +0.005 A 
ENDBRANCH  22  23
ENDBRANCH   9  22
TORSDOF 5
