REMARK  Name = ZINC59040587
REMARK  12 active torsions:
REMARK  status: ('A' for Active; 'I' for Inactive)
REMARK    1  A    between atoms: C_1  and  N_2
REMARK    2  A    between atoms: N_2  and  C_3
REMARK    3  A    between atoms: N_2  and  C_4
REMARK    4  A    between atoms: C_4  and  C_6
REMARK    5  A    between atoms: C_4  and  C_29
REMARK    6  A    between atoms: C_6  and  N_7
REMARK    7  A    between atoms: N_10  and  C_11
REMARK    8  A    between atoms: C_15  and  C_17
REMARK    9  A    between atoms: C_18  and  C_19
REMARK   10  A    between atoms: C_23  and  C_25
REMARK   11  A    between atoms: C_25  and  O_27
REMARK   12  A    between atoms: O_27  and  C_28
REMARK                            x       y       z     vdW  Elec       q    Type
REMARK                         _______ _______ _______ _____ _____    ______ ____
ROOT
ATOM      1  C   UNL     1      -3.958   3.826  -2.934  0.00  0.00    +0.036 A 
ATOM      2  C   UNL     1      -4.877   3.110  -3.693  0.00  0.00    +0.023 A 
ATOM      3  C   UNL     1      -5.610   3.744  -4.678  0.00  0.00    +0.003 A 
ATOM      4  C   UNL     1      -5.436   5.092  -4.916  0.00  0.00    +0.017 A 
ATOM      5  C   UNL     1      -4.515   5.821  -4.159  0.00  0.00    +0.027 A 
ATOM      6  C   UNL     1      -3.778   5.181  -3.160  0.00  0.00    +0.040 A 
ENDROOT
BRANCH   1  10
ATOM      7  N   UNL     1      -2.097   3.247   0.109  0.00  0.00    -0.300 N 
ATOM      8  C   UNL     1      -2.897   3.833  -0.804  0.00  0.00    +0.304 C 
ATOM      9  O   UNL     1      -3.329   4.952  -0.606  0.00  0.00    -0.253 OA
ATOM     10  N   UNL     1      -3.218   3.178  -1.938  0.00  0.00    -0.269 N 
ATOM     11  H   UNL     1      -1.753   2.354  -0.050  0.00  0.00    +0.150 HD
ATOM     12  H   UNL     1      -2.937   2.259  -2.063  0.00  0.00    +0.156 HD
BRANCH   7  13
ATOM     13  C   UNL     1      -1.748   3.959   1.341  0.00  0.00    +0.098 C 
BRANCH  13  14
ATOM     14  C   UNL     1      -0.940   3.034   2.253  0.00  0.00    +0.016 C 
BRANCH  14  15
ATOM     15  C   UNL     1      -1.800   1.872   2.679  0.00  0.00    +0.093 A 
ATOM     16  C   UNL     1      -2.437   1.757   3.858  0.00  0.00    +0.043 A 
ATOM     17  C   UNL     1      -3.121   0.519   3.834  0.00  0.00    +0.041 A 
ATOM     18  C   UNL     1      -2.861  -0.047   2.642  0.00  0.00    +0.195 A 
ATOM     19  O   UNL     1      -2.065   0.780   1.945  0.00  0.00    -0.469 OA
ENDBRANCH  14  15
BRANCH  14  21
ATOM     20  C   UNL     1       1.125   3.655   1.202  0.00  0.00    -0.096 C 
ATOM     21  N   UNL     1       0.234   2.533   1.526  0.00  0.00    +0.384 N 
ATOM     22  C   UNL     1       0.952   1.563   2.363  0.00  0.00    -0.096 C 
ATOM     23  H   UNL     1      -0.065   2.084   0.672  0.00  0.00    -0.082 HD
ENDBRANCH  14  21
ENDBRANCH  13  14
ENDBRANCH   7  13
ENDBRANCH   1  10
BRANCH   5  24
ATOM     24  C   UNL     1      -4.331   7.220  -4.403  0.00  0.00    -0.061 C 
ATOM     25  C   UNL     1      -4.180   8.367  -4.604  0.00  0.00    -0.061 C 
BRANCH  25  26
ATOM     26  C   UNL     1      -3.996   9.765  -4.848  0.00  0.00    +0.026 A 
ATOM     27  C   UNL     1      -4.742  10.408  -5.841  0.00  0.00    +0.017 A 
ATOM     28  C   UNL     1      -4.565  11.756  -6.077  0.00  0.00    +0.002 A 
ATOM     29  C   UNL     1      -3.653  12.480  -5.336  0.00  0.00    +0.015 A 
ATOM     30  C   UNL     1      -2.900  11.852  -4.340  0.00  0.00    +0.060 A 
ATOM     31  C   UNL     1      -3.077  10.492  -4.092  0.00  0.00    +0.031 A 
BRANCH  30  32
ATOM     32  C   UNL     1      -1.924  12.629  -3.549  0.00  0.00    +0.339 C 
ATOM     33  O   UNL     1      -1.271  12.082  -2.683  0.00  0.00    -0.245 OA
BRANCH  32  34
ATOM     34  O   UNL     1      -1.759  13.945  -3.787  0.00  0.00    -0.464 OA
ATOM     35  C   UNL     1      -0.798  14.633  -2.984  0.00  0.00    +0.280 C 
ENDBRANCH  32  34
ENDBRANCH  30  32
ENDBRANCH  25  26
ENDBRANCH   5  24
TORSDOF 9
