REMARK  Name = ZINC56628694
REMARK  10 active torsions:
REMARK  status: ('A' for Active; 'I' for Inactive)
REMARK    1  A    between atoms: C_1  and  C_2
REMARK    2  A    between atoms: C_2  and  C_3
REMARK    3  A    between atoms: C_2  and  C_4
REMARK    4  A    between atoms: C_4  and  C_5
REMARK    5  A    between atoms: C_5  and  C_7
REMARK    6  A    between atoms: C_5  and  N_12
REMARK    7  A    between atoms: N_15  and  C_16
REMARK    8  A    between atoms: C_18  and  C_24
REMARK    9  A    between atoms: C_21  and  O_22
REMARK   10  A    between atoms: O_22  and  C_23
REMARK                            x       y       z     vdW  Elec       q    Type
REMARK                         _______ _______ _______ _____ _____    ______ ____
ROOT
ATOM      1  N   UNL     1      -2.201   1.097  -1.561  0.00  0.00    -0.292 N 
ATOM      2  C   UNL     1      -2.261   1.622  -2.801  0.00  0.00    +0.304 C 
ATOM      3  O   UNL     1      -2.233   0.891  -3.772  0.00  0.00    -0.252 OA
ATOM      4  N   UNL     1      -2.353   2.957  -2.963  0.00  0.00    -0.266 N 
ATOM      5  H   UNL     1      -2.223   1.679  -0.786  0.00  0.00    +0.151 HD
ATOM      6  H   UNL     1      -2.444   3.534  -2.190  0.00  0.00    +0.156 HD
ENDROOT
BRANCH   4   7
ATOM      7  C   UNL     1      -2.318   3.510  -4.251  0.00  0.00    +0.077 A 
ATOM      8  C   UNL     1      -2.873   2.823  -5.315  0.00  0.00    +0.040 A 
ATOM      9  C   UNL     1      -2.836   3.378  -6.596  0.00  0.00    +0.038 A 
ATOM     10  C   UNL     1      -2.238   4.624  -6.798  0.00  0.00    +0.017 A 
ATOM     11  C   UNL     1      -1.686   5.304  -5.734  0.00  0.00    +0.048 A 
ATOM     12  C   UNL     1      -1.727   4.757  -4.459  0.00  0.00    +0.141 A 
BRANCH   9  13
ATOM     13  C   UNL     1      -3.427   2.648  -7.736  0.00  0.00    +0.242 C 
ATOM     14  O   UNL     1      -3.946   1.563  -7.559  0.00  0.00    -0.270 OA
ATOM     15  N   UNL     1      -3.390   3.185  -8.971  0.00  0.00    -0.325 N 
ATOM     16  H   UNL     1      -2.975   4.051  -9.112  0.00  0.00    +0.145 HD
ATOM     17  H   UNL     1      -3.778   2.706  -9.720  0.00  0.00    +0.145 HD
ENDBRANCH   9  13
BRANCH  12  18
ATOM     18  O   UNL     1      -1.187   5.433  -3.413  0.00  0.00    -0.493 OA
ATOM     19  C   UNL     1      -0.598   6.704  -3.697  0.00  0.00    +0.277 C 
ENDBRANCH  12  18
ENDBRANCH   4   7
BRANCH   1  20
ATOM     20  C   UNL     1      -2.101  -0.354  -1.384  0.00  0.00    +0.112 C 
BRANCH  20  21
ATOM     21  C   UNL     1      -3.480  -0.960  -1.417  0.00  0.00    +0.010 A 
ATOM     22  C   UNL     1      -3.890  -2.117  -1.991  0.00  0.00    +0.013 A 
ATOM     23  C   UNL     1      -5.221  -2.479  -1.893  0.00  0.00    +0.008 A 
ATOM     24  C   UNL     1      -6.076  -1.667  -1.225  0.00  0.00    +0.045 A 
ATOM     25  S   UNL     1      -4.996  -0.345  -0.702  0.00  0.00    -0.100 S 
ENDBRANCH  20  21
BRANCH  20  26
ATOM     26  C   UNL     1      -1.441  -0.659  -0.037  0.00  0.00    +0.030 C 
BRANCH  26  28
ATOM     27  C   UNL     1       0.592  -0.275   1.363  0.00  0.00    +0.007 C 
ATOM     28  C   UNL     1      -0.015  -0.107  -0.031  0.00  0.00    -0.015 C 
ATOM     29  C   UNL     1       0.833  -0.870  -1.051  0.00  0.00    +0.007 C 
ENDBRANCH  26  28
ENDBRANCH  20  26
ENDBRANCH   1  20
TORSDOF 7
