REMARK  Name = ZINC17878613
REMARK  6 active torsions:
REMARK  status: ('A' for Active; 'I' for Inactive)
REMARK    1  A    between atoms: C_1  and  C_2
REMARK    2  A    between atoms: C_5  and  C_29
REMARK    3  A    between atoms: C_6  and  C_8
REMARK    4  A    between atoms: C_8  and  N_9
REMARK    5  A    between atoms: C_16  and  C_19
REMARK    6  A    between atoms: C_16  and  O_27
REMARK                            x       y       z     vdW  Elec       q    Type
REMARK                         _______ _______ _______ _____ _____    ______ ____
ROOT
ATOM      1  N   UNL     1       1.460  -2.725   3.033  0.00  0.00    -0.264 N 
ATOM      2  C   UNL     1       2.176  -3.757   2.425  0.00  0.00    +0.043 A 
ATOM      3  C   UNL     1       1.800  -4.671   1.442  0.00  0.00    +0.025 A 
ATOM      4  C   UNL     1       2.699  -5.616   0.994  0.00  0.00    +0.017 A 
ATOM      5  C   UNL     1       3.981  -5.664   1.514  0.00  0.00    +0.018 A 
ATOM      6  C   UNL     1       4.362  -4.758   2.490  0.00  0.00    +0.024 A 
ATOM      7  C   UNL     1       3.465  -3.815   2.939  0.00  0.00    +0.017 A 
ATOM      8  C   UNL     1       3.562  -2.712   3.968  0.00  0.00    +0.189 C 
ATOM      9  C   UNL     1       2.195  -2.062   3.941  0.00  0.00    +0.258 C 
ATOM     10  O   UNL     1       1.832  -1.121   4.615  0.00  0.00    -0.272 OA
ATOM     11 BR   UNL     1       5.207  -6.963   0.895  0.00  0.00    -0.050 Br
ENDROOT
BRANCH   8  12
ATOM     12  C   UNL     1       4.639  -1.701   3.570  0.00  0.00    +0.187 C 
ATOM     13  C   UNL     1       4.830  -0.637   4.645  0.00  0.00    +0.255 C 
ATOM     14  O   UNL     1       3.958   0.139   4.985  0.00  0.00    -0.272 OA
ATOM     15  N   UNL     1       6.032  -0.648   5.162  0.00  0.00    -0.159 NA
ATOM     16  C   UNL     1       6.987  -1.486   4.801  0.00  0.00    +0.145 C 
ATOM     17  S   UNL     1       6.316  -2.458   3.600  0.00  0.00    -0.077 S 
ATOM     18  N   UNL     1       8.255  -1.550   5.298  0.00  0.00    -0.340 N 
ATOM     19  H   UNL     1       8.535  -0.935   5.994  0.00  0.00    +0.144 HD
ATOM     20  H   UNL     1       8.878  -2.211   4.956  0.00  0.00    +0.144 HD
ENDBRANCH   8  12
BRANCH   8  21
ATOM     21  O   UNL     1       3.838  -3.256   5.260  0.00  0.00    -0.373 OA
ATOM     22  H   UNL     1       3.170  -3.880   5.574  0.00  0.00    +0.211 HD
ENDBRANCH   8  21
BRANCH   1  23
ATOM     23  C   UNL     1       0.068  -2.398   2.713  0.00  0.00    +0.149 C 
BRANCH  23  29
ATOM     24  C   UNL     1      -0.610  -5.809   6.311  0.00  0.00    +0.044 C 
ATOM     25  C   UNL     1      -1.175  -4.791   5.355  0.00  0.00    -0.050 A 
ATOM     26  C   UNL     1      -2.537  -4.554   5.323  0.00  0.00    +0.003 A 
ATOM     27  C   UNL     1      -3.056  -3.620   4.446  0.00  0.00    +0.004 A 
ATOM     28  C   UNL     1      -2.212  -2.922   3.602  0.00  0.00    -0.046 A 
ATOM     29  C   UNL     1      -0.851  -3.158   3.634  0.00  0.00    -0.027 A 
ATOM     30  C   UNL     1      -0.332  -4.090   4.514  0.00  0.00    +0.008 A 
ATOM     31  C   UNL     1      -2.778  -1.904   2.645  0.00  0.00    +0.044 C 
ENDBRANCH  23  29
ENDBRANCH   1  23
TORSDOF 4
