REMARK  Name = ZINC45621234
REMARK  7 active torsions:
REMARK  status: ('A' for Active; 'I' for Inactive)
REMARK    1  A    between atoms: C_1  and  C_2
REMARK    2  A    between atoms: C_2  and  C_3
REMARK    3  A    between atoms: C_3  and  C_26
REMARK    4  A    between atoms: N_6  and  C_10
REMARK    5  A    between atoms: C_10  and  N_11
REMARK    6  A    between atoms: N_14  and  C_17
REMARK    7  A    between atoms: C_17  and  C_18
REMARK                            x       y       z     vdW  Elec       q    Type
REMARK                         _______ _______ _______ _____ _____    ______ ____
ROOT
ATOM      1  C   UNL     1       0.718  -0.497  -1.257  0.00  0.00    +0.138 C 
ATOM      2  C   UNL     1       0.081   0.093  -2.499  0.00  0.00    +0.252 C 
ATOM      3  O   UNL     1      -1.061  -0.057  -2.878  0.00  0.00    -0.272 OA
ATOM      4  N   UNL     1       1.047   0.819  -3.095  0.00  0.00    -0.210 N 
ATOM      5  C   UNL     1       2.195   0.770  -2.408  0.00  0.00    +0.311 C 
ATOM      6  O   UNL     1       3.210   1.345  -2.748  0.00  0.00    -0.252 OA
ATOM      7  N   UNL     1       2.099   0.013  -1.301  0.00  0.00    -0.281 N 
ATOM      8  H   UNL     1       2.803  -0.163  -0.657  0.00  0.00    +0.152 HD
ENDROOT
BRANCH   1   9
ATOM      9  C   UNL     1       0.707  -2.003  -1.315  0.00  0.00    -0.015 A 
ATOM     10  C   UNL     1      -0.340  -2.709  -0.752  0.00  0.00    +0.007 A 
ATOM     11  C   UNL     1      -0.351  -4.090  -0.805  0.00  0.00    +0.020 A 
ATOM     12  C   UNL     1       0.686  -4.766  -1.423  0.00  0.00    +0.041 A 
ATOM     13  C   UNL     1       1.734  -4.059  -1.987  0.00  0.00    +0.020 A 
ATOM     14  C   UNL     1       1.740  -2.678  -1.938  0.00  0.00    +0.007 A 
ATOM     15 CL   UNL     1       0.673  -6.501  -1.490  0.00  0.00    -0.084 Cl
ENDBRANCH   1   9
BRANCH   1  17
ATOM     16  C   UNL     1      -0.019   1.526   0.010  0.00  0.00    +0.007 C 
ATOM     17  C   UNL     1       0.002  -0.004   0.002  0.00  0.00    +0.037 C 
ENDBRANCH   1  17
BRANCH   4  18
ATOM     18  C   UNL     1       0.864   1.569  -4.340  0.00  0.00    +0.205 C 
BRANCH  18  19
ATOM     19  N   UNL     1       0.415   2.932  -4.029  0.00  0.00    -0.290 NA
ATOM     20  C   UNL     1      -1.032   2.964  -3.773  0.00  0.00    +0.067 C 
ATOM     21  C   UNL     1      -1.449   4.388  -3.396  0.00  0.00    -0.063 C 
ATOM     22  N   UNL     1      -1.107   5.305  -4.491  0.00  0.00    +0.387 N 
ATOM     23  C   UNL     1       0.344   5.280  -4.719  0.00  0.00    -0.063 C 
ATOM     24  C   UNL     1       0.775   3.864  -5.107  0.00  0.00    +0.067 C 
ATOM     25  H   UNL     1      -1.584   5.016  -5.332  0.00  0.00    -0.081 HD
BRANCH  22  26
ATOM     26  C   UNL     1      -1.524   6.668  -4.136  0.00  0.00    +0.019 C 
BRANCH  26  27
ATOM     27  C   UNL     1      -1.286   7.587  -5.307  0.00  0.00    +0.199 C 
ATOM     28  O   UNL     1      -0.816   7.149  -6.336  0.00  0.00    -0.278 OA
ATOM     29  N   UNL     1      -1.596   8.895  -5.210  0.00  0.00    -0.303 N 
ATOM     30  C   UNL     1      -2.160   9.441  -3.969  0.00  0.00    +0.107 C 
ATOM     31  C   UNL     1      -1.307  10.632  -3.521  0.00  0.00    +0.019 C 
ATOM     32  C   UNL     1      -1.210  11.643  -4.665  0.00  0.00    +0.003 C 
ATOM     33  C   UNL     1      -0.531  10.989  -5.871  0.00  0.00    +0.019 C 
ATOM     34  C   UNL     1      -1.370   9.803  -6.343  0.00  0.00    +0.107 C 
ENDBRANCH  26  27
ENDBRANCH  22  26
ENDBRANCH  18  19
ENDBRANCH   4  18
TORSDOF 6
