REMARK  Name = ZINC08790875
REMARK  6 active torsions:
REMARK  status: ('A' for Active; 'I' for Inactive)
REMARK    1  A    between atoms: C_1  and  C_2
REMARK    2  A    between atoms: C_2  and  C_3
REMARK    3  A    between atoms: C_17  and  C_19
REMARK    4  A    between atoms: C_19  and  C_20
REMARK    5  A    between atoms: N_25  and  C_28
REMARK    6  A    between atoms: C_28  and  C_29
REMARK                            x       y       z     vdW  Elec       q    Type
REMARK                         _______ _______ _______ _____ _____    ______ ____
ROOT
ATOM      1  C   UNL     1       0.667  -4.531  -2.181  0.00  0.00    -0.026 A 
ATOM      2  C   UNL     1       1.440  -5.382  -1.419  0.00  0.00    +0.005 A 
ATOM      3  C   UNL     1       2.396  -4.875  -0.559  0.00  0.00    +0.001 A 
ATOM      4  C   UNL     1       2.578  -3.506  -0.461  0.00  0.00    +0.004 A 
ATOM      5  C   UNL     1       1.808  -2.653  -1.219  0.00  0.00    -0.027 A 
ATOM      6  C   UNL     1       0.842  -3.153  -2.088  0.00  0.00    +0.039 A 
ATOM      7  N   UNL     1       0.192  -2.104  -2.742  0.00  0.00    -0.286 N 
ATOM      8  C   UNL     1       0.663  -0.900  -2.364  0.00  0.00    +0.211 C 
ATOM      9  O   UNL     1       0.287   0.183  -2.761  0.00  0.00    -0.277 OA
ATOM     10  C   UNL     1       1.746  -1.158  -1.352  0.00  0.00    +0.050 C 
ATOM     11  C   UNL     1       1.435  -0.487  -0.010  0.00  0.00    +0.088 C 
ATOM     12  C   UNL     1       2.257   0.832  -0.014  0.00  0.00    +0.073 C 
ATOM     13  C   UNL     1       2.987   0.839  -1.374  0.00  0.00    -0.049 C 
ATOM     14  C   UNL     1       1.193   1.906   0.001  0.00  0.00    +0.224 C 
ATOM     15  O   UNL     1       1.403   3.100   0.005  0.00  0.00    -0.275 OA
ATOM     16  N   UNL     1      -0.016   1.334   0.009  0.00  0.00    -0.237 N 
ATOM     17  C   UNL     1       0.002  -0.004   0.002  0.00  0.00    +0.225 C 
ATOM     18  O   UNL     1      -0.978  -0.718   0.005  0.00  0.00    -0.275 OA
ATOM     19  H   UNL     1      -0.516  -2.227  -3.393  0.00  0.00    +0.155 HD
ATOM     20  N   UNL     1       3.034  -0.575  -1.757  0.00  0.00    +0.394 N 
ATOM     21  H   UNL     1       3.160  -0.663  -2.772  0.00  0.00    -0.083 HD
ATOM     22  H   UNL     1       3.806  -1.048  -1.274  0.00  0.00    -0.083 HD
ENDROOT
BRANCH   1  24
ATOM     23  C   UNL     1       0.223  -5.223  -4.521  0.00  0.00    +0.009 C 
ATOM     24  C   UNL     1      -0.371  -5.095  -3.117  0.00  0.00    +0.033 C 
ENDBRANCH   1  24
BRANCH  13  25
ATOM     25  C   UNL     1       4.393   1.422  -1.221  0.00  0.00    +0.080 C 
BRANCH  25  26
ATOM     26  C   UNL     1       5.041   1.533  -2.577  0.00  0.00    +0.209 C 
ATOM     27  O   UNL     1       4.438   1.180  -3.568  0.00  0.00    -0.276 OA
ATOM     28  N   UNL     1       6.291   2.025  -2.689  0.00  0.00    -0.329 N 
ATOM     29  H   UNL     1       6.774   2.307  -1.896  0.00  0.00    +0.145 HD
ATOM     30  H   UNL     1       6.708   2.096  -3.562  0.00  0.00    +0.145 HD
ENDBRANCH  25  26
ENDBRANCH  13  25
BRANCH  16  31
ATOM     31  C   UNL     1      -1.259   2.109   0.020  0.00  0.00    +0.151 C 
BRANCH  31  32
ATOM     32  C   UNL     1      -1.678   2.367   1.444  0.00  0.00    -0.026 A 
ATOM     33  C   UNL     1      -1.236   3.502   2.098  0.00  0.00    +0.009 A 
ATOM     34  C   UNL     1      -1.619   3.743   3.405  0.00  0.00    +0.050 A 
ATOM     35  C   UNL     1      -2.446   2.847   4.062  0.00  0.00    +0.166 A 
ATOM     36  C   UNL     1      -2.891   1.704   3.403  0.00  0.00    +0.167 A 
ATOM     37  C   UNL     1      -2.509   1.472   2.091  0.00  0.00    +0.054 A 
ATOM     38  O   UNL     1      -3.684   0.990   4.254  0.00  0.00    -0.453 OA
ATOM     39  C   UNL     1      -4.051   1.910   5.300  0.00  0.00    +0.466 C 
ATOM     40  O   UNL     1      -2.960   2.850   5.326  0.00  0.00    -0.453 OA
ENDBRANCH  31  32
ENDBRANCH  16  31
TORSDOF 5
