REMARK  Name = ZINC09337853
REMARK  6 active torsions:
REMARK  status: ('A' for Active; 'I' for Inactive)
REMARK    1  A    between atoms: C_1  and  C_2
REMARK    2  A    between atoms: C_13  and  C_15
REMARK    3  A    between atoms: C_15  and  O_16
REMARK    4  A    between atoms: O_16  and  C_17
REMARK    5  A    between atoms: C_17  and  C_19
REMARK    6  A    between atoms: C_23  and  N_25
REMARK                            x       y       z     vdW  Elec       q    Type
REMARK                         _______ _______ _______ _____ _____    ______ ____
ROOT
ATOM      1  O   UNL     1      -6.076   3.839   0.047  0.00  0.00    -0.452 OA
ENDROOT
BRANCH   1   2
ATOM      2  C   UNL     1      -6.725   4.713  -0.746  0.00  0.00    +0.340 C 
ATOM      3  O   UNL     1      -6.199   5.118  -1.762  0.00  0.00    -0.245 OA
BRANCH   2   4
ATOM      4  C   UNL     1      -8.079   5.178  -0.379  0.00  0.00    +0.061 A 
ATOM      5  C   UNL     1      -8.689   4.709   0.787  0.00  0.00    +0.015 A 
ATOM      6  C   UNL     1      -9.951   5.149   1.129  0.00  0.00    +0.003 A 
ATOM      7  C   UNL     1     -10.620   6.046   0.317  0.00  0.00    +0.023 A 
ATOM      8  C   UNL     1     -10.023   6.515  -0.847  0.00  0.00    +0.036 A 
ATOM      9  C   UNL     1      -8.754   6.083  -1.198  0.00  0.00    +0.038 A 
BRANCH   8  10
ATOM     10  N   UNL     1     -10.705   7.423  -1.666  0.00  0.00    -0.270 N 
ATOM     11  C   UNL     1     -10.502   7.412  -2.998  0.00  0.00    +0.301 C 
ATOM     12  O   UNL     1      -9.788   6.565  -3.498  0.00  0.00    -0.253 OA
ATOM     13  N   UNL     1     -11.091   8.342  -3.777  0.00  0.00    -0.313 N 
ATOM     14  H   UNL     1     -11.323   8.060  -1.274  0.00  0.00    +0.156 HD
ATOM     15  H   UNL     1     -11.661   9.018  -3.378  0.00  0.00    +0.146 HD
ATOM     16  H   UNL     1     -10.945   8.334  -4.736  0.00  0.00    +0.146 HD
ENDBRANCH   8  10
ENDBRANCH   2   4
ENDBRANCH   1   2
BRANCH   1  17
ATOM     17  C   UNL     1      -4.749   3.425  -0.375  0.00  0.00    +0.328 C 
BRANCH  17  29
ATOM     18  C   UNL     1      -3.016   2.830  -1.789  0.00  0.00    +0.028 C 
ATOM     19  C   UNL     1      -2.094   2.405  -0.645  0.00  0.00    +0.079 C 
ATOM     20  C   UNL     1      -1.309   1.150  -1.049  0.00  0.00    +0.027 C 
ATOM     21  C   UNL     1      -0.345   0.785   0.079  0.00  0.00    +0.039 C 
ATOM     22  C   UNL     1      -1.075   0.713   1.394  0.00  0.00    -0.026 A 
ATOM     23  C   UNL     1      -0.511  -0.003   2.436  0.00  0.00    +0.005 A 
ATOM     24  C   UNL     1      -1.155  -0.085   3.655  0.00  0.00    +0.000 A 
ATOM     25  C   UNL     1      -2.369   0.550   3.843  0.00  0.00    +0.002 A 
ATOM     26  C   UNL     1      -2.939   1.265   2.809  0.00  0.00    +0.024 A 
ATOM     27  C   UNL     1      -2.294   1.347   1.581  0.00  0.00    +0.040 A 
ATOM     28  N   UNL     1      -2.893   2.071   0.541  0.00  0.00    -0.266 N 
ATOM     29  C   UNL     1      -4.183   2.454   0.628  0.00  0.00    +0.258 C 
ATOM     30  O   UNL     1      -4.887   2.017   1.514  0.00  0.00    -0.272 OA
ENDBRANCH  17  29
ENDBRANCH   1  17
TORSDOF 5
