REMARK  Name = ZINC20900177
REMARK  7 active torsions:
REMARK  status: ('A' for Active; 'I' for Inactive)
REMARK    1  A    between atoms: C_1  and  C_2
REMARK    2  A    between atoms: C_2  and  C_3
REMARK    3  A    between atoms: C_3  and  C_4
REMARK    4  A    between atoms: C_9  and  C_25
REMARK    5  A    between atoms: N_16  and  C_17
REMARK    6  A    between atoms: C_21  and  C_24
REMARK    7  A    between atoms: C_22  and  C_23
REMARK                            x       y       z     vdW  Elec       q    Type
REMARK                         _______ _______ _______ _____ _____    ______ ____
ROOT
ATOM      1  C   UNL     1       4.715   5.636   0.297  0.00  0.00    +0.124 C 
ATOM      2  C   UNL     1       5.800   6.156  -0.612  0.00  0.00    +0.040 A 
ATOM      3  C   UNL     1       6.029   7.429  -0.970  0.00  0.00    +0.025 A 
ATOM      4  C   UNL     1       7.151   7.429  -1.824  0.00  0.00    +0.023 A 
ATOM      5  C   UNL     1       7.561   6.150  -1.955  0.00  0.00    +0.016 A 
ATOM      6  N   UNL     1       6.734   5.360  -1.217  0.00  0.00    -0.345 N 
ATOM      7  C   UNL     1       6.803   3.901  -1.075  0.00  0.00    +0.141 C 
ATOM      8  C   UNL     1       6.018   3.477   0.170  0.00  0.00    +0.131 C 
ATOM      9  N   UNL     1       4.719   4.166   0.183  0.00  0.00    -0.275 N 
ATOM     10  C   UNL     1       3.566   3.474   0.089  0.00  0.00    +0.307 C 
ATOM     11  O   UNL     1       3.585   2.259   0.088  0.00  0.00    -0.252 OA
ATOM     12  N   UNL     1       2.393   4.131  -0.005  0.00  0.00    -0.269 N 
ATOM     13  C   UNL     1       8.733   5.678  -2.776  0.00  0.00    +0.063 C 
ATOM     14  H   UNL     1       2.382   5.223  -0.131  0.00  0.00    +0.156 HD
ENDROOT
BRANCH  12  15
ATOM     15  C   UNL     1       1.188   3.422   0.057  0.00  0.00    +0.038 A 
ATOM     16  C   UNL     1       1.132   2.104  -0.378  0.00  0.00    +0.023 A 
ATOM     17  C   UNL     1      -0.059   1.407  -0.316  0.00  0.00    +0.002 A 
ATOM     18  C   UNL     1      -1.195   2.020   0.180  0.00  0.00    +0.004 A 
ATOM     19  C   UNL     1      -1.143   3.332   0.614  0.00  0.00    -0.046 A 
ATOM     20  C   UNL     1       0.045   4.034   0.554  0.00  0.00    -0.026 A 
ATOM     21  C   UNL     1       0.101   5.464   1.028  0.00  0.00    +0.046 C 
ATOM     22  C   UNL     1      -2.384   3.996   1.153  0.00  0.00    +0.044 C 
ENDBRANCH  12  15
BRANCH   1  23
ATOM     23  C   UNL     1       5.008   6.049   1.741  0.00  0.00    +0.028 C 
BRANCH  23  25
ATOM     24  C   UNL     1       4.163   5.989   4.091  0.00  0.00    +0.004 C 
ATOM     25  C   UNL     1       3.870   5.576   2.648  0.00  0.00    -0.001 C 
ENDBRANCH  23  25
ENDBRANCH   1  23
TORSDOF 3
