REMARK  Name = ZINC63426767
REMARK  15 active torsions:
REMARK  status: ('A' for Active; 'I' for Inactive)
REMARK    1  A    between atoms: C_1  and  C_2
REMARK    2  A    between atoms: C_5  and  N_9
REMARK    3  A    between atoms: C_6  and  C_8
REMARK    4  A    between atoms: C_10  and  C_12
REMARK    5  A    between atoms: C_12  and  S_13
REMARK    6  A    between atoms: S_13  and  C_14
REMARK    7  A    between atoms: C_18  and  C_21
REMARK    8  A    between atoms: C_21  and  C_23
REMARK    9  A    between atoms: C_21  and  N_33
REMARK   10  A    between atoms: C_23  and  C_24
REMARK   11  A    between atoms: C_34  and  O_36
REMARK   12  A    between atoms: O_36  and  C_37
REMARK   13  A    between atoms: C_37  and  C_38
REMARK   14  A    between atoms: C_37  and  C_39
REMARK   15  A    between atoms: C_37  and  C_40
REMARK                            x       y       z     vdW  Elec       q    Type
REMARK                         _______ _______ _______ _____ _____    ______ ____
ROOT
ATOM      1  C   UNL     1       2.154  -8.800   0.085  0.00  0.00    +0.133 C 
ENDROOT
BRANCH   1   5
ATOM      2  C   UNL     1       0.809  -9.908  -2.997  0.00  0.00    +0.319 C 
ATOM      3  N   UNL     1       1.040  -8.463  -3.127  0.00  0.00    -0.146 NA
ATOM      4  N   UNL     1       1.176  -7.952  -2.008  0.00  0.00    -0.155 NA
ATOM      5  C   UNL     1       1.056  -8.980  -0.966  0.00  0.00    +0.280 C 
ATOM      6  O   UNL     1       1.218 -10.239  -1.654  0.00  0.00    -0.316 OA
BRANCH   2   7
ATOM      7  S   UNL     1       1.815 -10.817  -4.203  0.00  0.00    -0.095 S 
BRANCH   7   8
ATOM      8  C   UNL     1       3.515 -10.309  -3.828  0.00  0.00    +0.169 C 
BRANCH   8  10
ATOM      9  N   UNL     1       5.760 -10.575  -4.833  0.00  0.00    -0.285 N 
ATOM     10  C   UNL     1       4.453 -10.904  -4.847  0.00  0.00    +0.227 C 
ATOM     11  O   UNL     1       4.032 -11.680  -5.679  0.00  0.00    -0.275 OA
ATOM     12  H   UNL     1       6.109 -10.006  -4.129  0.00  0.00    +0.155 HD
BRANCH   9  17
ATOM     13  C   UNL     1       9.217 -12.516  -8.891  0.00  0.00    +0.044 C 
ATOM     14  C   UNL     1       8.298 -12.000  -7.813  0.00  0.00    -0.050 A 
ATOM     15  C   UNL     1       7.198 -12.745  -7.429  0.00  0.00    +0.005 A 
ATOM     16  C   UNL     1       6.355 -12.276  -6.442  0.00  0.00    +0.024 A 
ATOM     17  C   UNL     1       6.613 -11.054  -5.833  0.00  0.00    +0.036 A 
ATOM     18  C   UNL     1       7.718 -10.308  -6.221  0.00  0.00    -0.029 A 
ATOM     19  C   UNL     1       8.561 -10.786  -7.206  0.00  0.00    +0.008 A 
ATOM     20  C   UNL     1       8.002  -8.982  -5.564  0.00  0.00    +0.045 C 
ENDBRANCH   9  17
ENDBRANCH   8  10
ENDBRANCH   7   8
ENDBRANCH   2   7
ENDBRANCH   1   5
BRANCH   1  21
ATOM     21  N   UNL     1       2.048  -7.465   0.679  0.00  0.00    -0.274 N 
ATOM     22  C   UNL     1       0.893  -7.072   1.251  0.00  0.00    +0.401 C 
ATOM     23  O   UNL     1      -0.037  -7.849   1.339  0.00  0.00    -0.226 OA
ATOM     24  H   UNL     1       2.809  -6.864   0.660  0.00  0.00    +0.152 HD
BRANCH  22  25
ATOM     25  O   UNL     1       0.769  -5.818   1.725  0.00  0.00    -0.445 OA
BRANCH  25  26
ATOM     26  C   UNL     1      -0.518  -5.433   2.212  0.00  0.00    +0.107 C 
ATOM     27  C   UNL     1      -0.900  -6.320   3.399  0.00  0.00    +0.055 C 
ATOM     28  C   UNL     1      -0.476  -3.970   2.662  0.00  0.00    +0.055 C 
ATOM     29  C   UNL     1      -1.555  -5.595   1.099  0.00  0.00    +0.055 C 
ENDBRANCH  25  26
ENDBRANCH  22  25
ENDBRANCH   1  21
BRANCH   1  30
ATOM     30  C   UNL     1       1.992  -9.859   1.178  0.00  0.00    +0.060 C 
BRANCH  30  31
ATOM     31  C   UNL     1       3.142  -9.761   2.146  0.00  0.00    -0.040 C 
ATOM     32  C   UNL     1       3.164  -9.084   3.317  0.00  0.00    -0.001 A 
ATOM     33  C   UNL     1       2.162  -8.266   4.011  0.00  0.00    +0.010 A 
ATOM     34  C   UNL     1       2.484  -7.701   5.197  0.00  0.00    +0.001 A 
ATOM     35  C   UNL     1       3.748  -7.877   5.779  0.00  0.00    +0.002 A 
ATOM     36  C   UNL     1       4.720  -8.614   5.201  0.00  0.00    +0.026 A 
ATOM     37  C   UNL     1       4.490  -9.254   3.952  0.00  0.00    +0.043 A 
ATOM     38  N   UNL     1       5.258 -10.008   3.203  0.00  0.00    -0.380 N 
ATOM     39  C   UNL     1       4.503 -10.406   2.010  0.00  0.00    +0.144 C 
ATOM     40  H   UNL     1       6.172 -10.263   3.406  0.00  0.00    +0.160 HD
ENDBRANCH  30  31
ENDBRANCH   1  30
TORSDOF 10
