REMARK  Name = ZINC15084749
REMARK  12 active torsions:
REMARK  status: ('A' for Active; 'I' for Inactive)
REMARK    1  A    between atoms: C_1  and  C_2
REMARK    2  A    between atoms: C_2  and  C_3
REMARK    3  A    between atoms: C_3  and  C_4
REMARK    4  A    between atoms: C_5  and  C_17
REMARK    5  A    between atoms: C_6  and  O_15
REMARK    6  A    between atoms: C_9  and  O_10
REMARK    7  A    between atoms: O_10  and  C_11
REMARK    8  A    between atoms: O_15  and  C_16
REMARK    9  A    between atoms: C_19  and  C_32
REMARK   10  A    between atoms: C_20  and  N_31
REMARK   11  A    between atoms: C_27  and  C_29
REMARK   12  A    between atoms: C_27  and  C_30
REMARK                            x       y       z     vdW  Elec       q    Type
REMARK                         _______ _______ _______ _____ _____    ______ ____
ROOT
ATOM      1  C   UNL     1      -0.908   5.461   0.124  0.00  0.00    +0.105 C 
ATOM      2  C   UNL     1      -1.539   6.017  -1.122  0.00  0.00    +0.098 C 
ATOM      3  C   UNL     1      -1.467   5.334  -2.290  0.00  0.00    +0.198 C 
ATOM      4  O   UNL     1      -0.834   4.153  -2.372  0.00  0.00    -0.445 OA
ATOM      5  C   UNL     1      -0.640   3.419  -1.260  0.00  0.00    +0.115 C 
ATOM      6  C   UNL     1      -0.656   3.981  -0.038  0.00  0.00    +0.046 C 
ATOM      7  C   UNL     1      -0.436   3.216   1.123  0.00  0.00    +0.164 C 
ATOM      8  O   UNL     1      -0.477   3.756   2.211  0.00  0.00    -0.292 OA
ATOM      9  C   UNL     1      -0.145   1.741   1.044  0.00  0.00    +0.086 C 
ATOM     10  C   UNL     1       0.518   1.439  -0.304  0.00  0.00    -0.021 C 
ATOM     11  C   UNL     1      -0.399   1.936  -1.423  0.00  0.00    +0.081 C 
ATOM     12  C   UNL     1       0.731  -0.070  -0.446  0.00  0.00    +0.012 C 
ATOM     13  C   UNL     1       1.866   2.158  -0.386  0.00  0.00    +0.012 C 
ENDROOT
BRANCH   1  15
ATOM     14  C   UNL     1       0.517   7.035   1.449  0.00  0.00    +0.006 A 
ATOM     15  C   UNL     1       0.399   6.166   0.380  0.00  0.00    +0.018 A 
ATOM     16  C   UNL     1       1.478   5.946  -0.460  0.00  0.00    +0.170 A 
ATOM     17  C   UNL     1       2.686   6.595  -0.226  0.00  0.00    +0.211 A 
ATOM     18  C   UNL     1       2.806   7.464   0.851  0.00  0.00    +0.211 A 
ATOM     19  C   UNL     1       1.719   7.680   1.691  0.00  0.00    +0.169 A 
ATOM     20  O   UNL     1       4.075   7.970   0.866  0.00  0.00    -0.449 OA
ATOM     21  C   UNL     1       4.849   7.091   0.028  0.00  0.00    +0.467 C 
ATOM     22  O   UNL     1       3.879   6.554  -0.891  0.00  0.00    -0.449 OA
BRANCH  19  23
ATOM     23  O   UNL     1       1.834   8.530   2.747  0.00  0.00    -0.491 OA
ATOM     24  C   UNL     1       1.511   9.903   2.513  0.00  0.00    +0.277 C 
ENDBRANCH  19  23
BRANCH  16  25
ATOM     25  O   UNL     1       1.358   5.094  -1.515  0.00  0.00    -0.491 OA
ATOM     26  C   UNL     1       1.200   5.681  -2.808  0.00  0.00    +0.277 C 
ENDBRANCH  16  25
BRANCH  14  27
ATOM     27  C   UNL     1      -0.662   7.276   2.357  0.00  0.00    +0.039 C 
BRANCH  27  29
ATOM     28  C   UNL     1      -1.676   6.707   4.568  0.00  0.00    +0.004 C 
ATOM     29  C   UNL     1      -0.554   6.369   3.584  0.00  0.00    +0.001 C 
ENDBRANCH  27  29
ENDBRANCH  14  27
ENDBRANCH   1  15
BRANCH   3  30
ATOM     30  N   UNL     1      -2.054   5.860  -3.414  0.00  0.00    -0.328 N 
ATOM     31  H   UNL     1      -2.515   6.712  -3.366  0.00  0.00    +0.145 HD
ATOM     32  H   UNL     1      -2.009   5.380  -4.255  0.00  0.00    +0.145 HD
ENDBRANCH   3  30
BRANCH   2  33
ATOM     33  C   UNL     1      -2.220   7.276  -1.075  0.00  0.00    +0.101 C 
ATOM     34  N   UNL     1      -2.760   8.274  -1.037  0.00  0.00    -0.191 NA
ENDBRANCH   2  33
TORSDOF 7
