REMARK  Name = ZINC05528371
REMARK  8 active torsions:
REMARK  status: ('A' for Active; 'I' for Inactive)
REMARK    1  A    between atoms: C_1  and  C_2
REMARK    2  A    between atoms: C_17  and  C_32
REMARK    3  A    between atoms: C_20  and  O_31
REMARK    4  A    between atoms: C_23  and  C_30
REMARK    5  A    between atoms: C_24  and  C_25
REMARK    6  A    between atoms: C_24  and  O_29
REMARK    7  A    between atoms: C_25  and  C_27
REMARK    8  A    between atoms: C_27  and  O_28
REMARK                            x       y       z     vdW  Elec       q    Type
REMARK                         _______ _______ _______ _____ _____    ______ ____
ROOT
ATOM      1  C   UNL     1       1.624   8.960  -5.185  0.00  0.00    +0.011 C 
ATOM      2  C   UNL     1       1.917   8.722  -3.703  0.00  0.00    +0.026 C 
ATOM      3  C   UNL     1       2.442   7.276  -3.489  0.00  0.00    +0.011 C 
ATOM      4  C   UNL     1       1.250   6.557  -2.839  0.00  0.00    +0.002 C 
ATOM      5  C   UNL     1       1.545   5.270  -2.126  0.00  0.00    -0.001 C 
ATOM      6  C   UNL     1       3.008   5.079  -1.764  0.00  0.00    +0.008 C 
ATOM      7  C   UNL     1       3.160   3.956  -0.735  0.00  0.00    +0.032 C 
ATOM      8  C   UNL     1       1.947   3.057  -0.781  0.00  0.00    -0.060 C 
ATOM      9  C   UNL     1       2.082   1.770  -1.078  0.00  0.00    +0.046 C 
ATOM     10  C   UNL     1       0.929   0.874  -1.122  0.00  0.00    +0.156 C 
ATOM     11  O   UNL     1       1.089  -0.308  -1.349  0.00  0.00    -0.293 OA
ATOM     12  C   UNL     1      -0.459   1.415  -0.894  0.00  0.00    +0.080 C 
ATOM     13  C   UNL     1      -0.491   2.904  -1.244  0.00  0.00    +0.019 C 
ATOM     14  C   UNL     1       0.591   3.656  -0.480  0.00  0.00    -0.005 C 
ATOM     15  C   UNL     1       0.645   5.127  -0.898  0.00  0.00    +0.031 C 
ATOM     16  C   UNL     1      -0.732   5.704  -1.197  0.00  0.00    +0.119 C 
ATOM     17  C   UNL     1      -0.650   7.235  -1.325  0.00  0.00    +0.041 C 
ATOM     18  C   UNL     1       0.680   7.645  -1.906  0.00  0.00    +0.009 C 
ATOM     19  C   UNL     1       0.614   8.844  -2.876  0.00  0.00    +0.134 C 
ATOM     20  C   UNL     1       1.659   8.026  -0.791  0.00  0.00    +0.015 C 
ATOM     21  C   UNL     1       0.328   3.572   1.028  0.00  0.00    +0.016 C 
ENDROOT
BRANCH  19  22
ATOM     22  C   UNL     1       0.595  10.132  -2.102  0.00  0.00    +0.190 C 
ATOM     23  O   UNL     1       1.225  10.229  -1.076  0.00  0.00    -0.292 OA
BRANCH  22  24
ATOM     24  C   UNL     1      -0.210  11.302  -2.605  0.00  0.00    +0.233 C 
BRANCH  24  25
ATOM     25  O   UNL     1      -0.069  12.401  -1.702  0.00  0.00    -0.387 OA
ATOM     26  H   UNL     1      -0.561  13.191  -1.964  0.00  0.00    +0.210 HD
ENDBRANCH  24  25
ENDBRANCH  22  24
ENDBRANCH  19  22
BRANCH  19  27
ATOM     27  O   UNL     1      -0.527   8.736  -3.721  0.00  0.00    -0.380 OA
ATOM     28  H   UNL     1      -0.620   9.463  -4.352  0.00  0.00    +0.211 HD
ENDBRANCH  19  27
BRANCH  16  29
ATOM     29  O   UNL     1      -1.239   5.173  -2.426  0.00  0.00    -0.391 OA
ATOM     30  H   UNL     1      -2.114   5.506  -2.667  0.00  0.00    +0.210 HD
ENDBRANCH  16  29
TORSDOF 5
