REMARK  Name = ZINC39335740
REMARK  8 active torsions:
REMARK  status: ('A' for Active; 'I' for Inactive)
REMARK    1  A    between atoms: C_1  and  C_2
REMARK    2  A    between atoms: C_3  and  C_21
REMARK    3  A    between atoms: C_4  and  N_20
REMARK    4  A    between atoms: C_6  and  S_10
REMARK    5  A    between atoms: C_7  and  C_8
REMARK    6  A    between atoms: S_10  and  C_11
REMARK    7  A    between atoms: C_11  and  C_13
REMARK    8  A    between atoms: C_11  and  C_14
REMARK                            x       y       z     vdW  Elec       q    Type
REMARK                         _______ _______ _______ _____ _____    ______ ____
ROOT
ATOM      1  C   UNL     1      -0.018   1.503   0.010  0.00  0.00    +0.046 C 
ATOM      2  C   UNL     1       0.002  -0.004   0.002  0.00  0.00    -0.010 A 
ATOM      3  C   UNL     1       0.006  -0.714  -1.202  0.00  0.00    +0.095 A 
ATOM      4  C   UNL     1       0.026  -2.122  -1.167  0.00  0.00    +0.135 A 
ATOM      5  N   UNL     1       0.041  -2.772  -0.015  0.00  0.00    -0.224 NA
ATOM      6  C   UNL     1       0.037  -2.135   1.147  0.00  0.00    +0.117 A 
ATOM      7  C   UNL     1       0.023  -0.726   1.197  0.00  0.00    +0.088 A 
ENDROOT
BRANCH   4   8
ATOM      8  N   UNL     1       0.030  -2.833  -2.350  0.00  0.00    -0.342 N 
ATOM      9  H   UNL     1       0.019  -2.362  -3.199  0.00  0.00    +0.144 HD
ATOM     10  H   UNL     1       0.043  -3.803  -2.334  0.00  0.00    +0.144 HD
ENDBRANCH   4   8
BRANCH   7  11
ATOM     11  C   UNL     1       0.025  -0.045   2.457  0.00  0.00    +0.102 C 
ATOM     12  N   UNL     1       0.027   0.495   3.456  0.00  0.00    -0.191 NA
ENDBRANCH   7  11
BRANCH   3  13
ATOM     13  C   UNL     1      -0.010  -0.019  -2.454  0.00  0.00    +0.103 C 
ATOM     14  N   UNL     1      -0.023   0.532  -3.447  0.00  0.00    -0.191 NA
ENDBRANCH   3  13
BRANCH   6  15
ATOM     15  S   UNL     1       0.057  -3.059   2.647  0.00  0.00    -0.097 S 
BRANCH  15  16
ATOM     16  C   UNL     1       0.079  -4.788   2.096  0.00  0.00    +0.080 C 
ATOM     17  C   UNL     1       1.387  -5.071   1.355  0.00  0.00    +0.024 C 
BRANCH  16  18
ATOM     18  C   UNL     1      -0.027  -5.697   3.293  0.00  0.00    -0.034 A 
ATOM     19  C   UNL     1       0.933  -5.646   4.287  0.00  0.00    +0.005 A 
ATOM     20  C   UNL     1       0.836  -6.481   5.385  0.00  0.00    +0.000 A 
ATOM     21  C   UNL     1      -0.221  -7.366   5.489  0.00  0.00    +0.000 A 
ATOM     22  C   UNL     1      -1.181  -7.416   4.496  0.00  0.00    +0.000 A 
ATOM     23  C   UNL     1      -1.086  -6.579   3.401  0.00  0.00    +0.005 A 
ENDBRANCH  16  18
ENDBRANCH  15  16
ENDBRANCH   6  15
TORSDOF 6
