REMARK  Name = ZINC41360716
REMARK  10 active torsions:
REMARK  status: ('A' for Active; 'I' for Inactive)
REMARK    1  A    between atoms: C_1  and  C_2
REMARK    2  A    between atoms: C_4  and  C_9
REMARK    3  A    between atoms: C_9  and  S_10
REMARK    4  A    between atoms: S_10  and  C_11
REMARK    5  A    between atoms: C_14  and  C_19
REMARK    6  A    between atoms: N_15  and  C_16
REMARK    7  A    between atoms: C_16  and  C_17
REMARK    8  A    between atoms: C_16  and  C_18
REMARK    9  A    between atoms: C_19  and  C_20
REMARK   10  A    between atoms: C_19  and  C_21
REMARK                            x       y       z     vdW  Elec       q    Type
REMARK                         _______ _______ _______ _____ _____    ______ ____
ROOT
ATOM      1  S   UNL     1      -1.071  -0.622  -5.086  0.00  0.00    -0.080 S 
ENDROOT
BRANCH   1   2
ATOM      2  C   UNL     1      -1.864  -1.785  -6.145  0.00  0.00    +0.192 A 
ATOM      3  N   UNL     1      -3.150  -2.044  -6.196  0.00  0.00    -0.122 NA
ATOM      4  N   UNL     1      -3.379  -2.947  -7.082  0.00  0.00    -0.133 NA
ATOM      5  C   UNL     1      -2.263  -3.315  -7.645  0.00  0.00    +0.137 A 
ATOM      6  N   UNL     1      -1.259  -2.584  -7.072  0.00  0.00    -0.303 N 
BRANCH   6   7
ATOM      7  C   UNL     1       0.171  -2.647  -7.386  0.00  0.00    +0.085 C 
ATOM      8  C   UNL     1       0.650  -1.274  -7.862  0.00  0.00    +0.030 C 
ATOM      9  C   UNL     1       0.951  -3.054  -6.134  0.00  0.00    +0.030 C 
ENDBRANCH   6   7
BRANCH   5  10
ATOM     10  C   UNL     1      -2.108  -4.349  -8.729  0.00  0.00    +0.051 C 
ATOM     11  C   UNL     1      -2.624  -5.698  -8.225  0.00  0.00    +0.015 C 
ATOM     12  C   UNL     1      -2.912  -3.923  -9.959  0.00  0.00    +0.015 C 
ENDBRANCH   5  10
ENDBRANCH   1   2
BRANCH   1  13
ATOM     13  C   UNL     1      -2.431   0.089  -4.118  0.00  0.00    +0.133 C 
BRANCH  13  17
ATOM     14  C   UNL     1      -0.013   1.086   0.008  0.00  0.00    +0.086 C 
ATOM     15  C   UNL     1      -0.742   1.585  -1.213  0.00  0.00    +0.107 A 
ATOM     16  N   UNL     1      -1.229   0.721  -2.063  0.00  0.00    -0.238 NA
ATOM     17  C   UNL     1      -1.883   1.114  -3.159  0.00  0.00    +0.059 A 
ATOM     18  C   UNL     1      -2.053   2.442  -3.409  0.00  0.00    +0.094 A 
ATOM     19  C   UNL     1      -1.527   3.374  -2.491  0.00  0.00    +0.252 A 
ATOM     20  N   UNL     1      -0.881   2.912  -1.400  0.00  0.00    -0.311 N 
ATOM     21  O   UNL     1      -1.658   4.573  -2.678  0.00  0.00    -0.268 OA
ATOM     22  H   UNL     1      -0.514   3.535  -0.753  0.00  0.00    +0.170 HD
ENDBRANCH  13  17
ENDBRANCH   1  13
TORSDOF 5
