REMARK  Name = ZINC12432688
REMARK  6 active torsions:
REMARK  status: ('A' for Active; 'I' for Inactive)
REMARK    1  A    between atoms: C_14  and  N_46
REMARK    2  A    between atoms: C_17  and  C_18
REMARK    3  A    between atoms: C_17  and  N_46
REMARK    4  A    between atoms: C_20  and  C_23
REMARK    5  A    between atoms: C_24  and  C_25
REMARK    6  A    between atoms: C_25  and  O_26
REMARK                            x       y       z     vdW  Elec       q    Type
REMARK                         _______ _______ _______ _____ _____    ______ ____
ROOT
ATOM      1  C   UNL     1       5.588   6.100   5.479  0.00  0.00    +0.002 A 
ATOM      2  C   UNL     1       6.711   5.305   5.301  0.00  0.00    +0.001 A 
ATOM      3  C   UNL     1       6.553   3.987   4.911  0.00  0.00    +0.017 A 
ATOM      4  C   UNL     1       5.291   3.488   4.709  0.00  0.00    +0.041 A 
ATOM      5  C   UNL     1       4.125   4.267   4.881  0.00  0.00    +0.080 A 
ATOM      6  C   UNL     1       4.324   5.609   5.279  0.00  0.00    +0.029 A 
ATOM      7  N   UNL     1       2.956   3.632   4.645  0.00  0.00    -0.225 NA
ATOM      8  C   UNL     1       2.900   2.372   4.278  0.00  0.00    +0.162 A 
ATOM      9  S   UNL     1       4.626   1.911   4.230  0.00  0.00    -0.052 S 
ATOM     10  N   UNL     1       1.790   1.599   4.004  0.00  0.00    -0.311 N 
ATOM     11  C   UNL     1       0.864   1.586   5.144  0.00  0.00    +0.107 C 
ATOM     12  C   UNL     1      -0.279   0.608   4.864  0.00  0.00    +0.017 C 
ATOM     13  C   UNL     1      -1.013   1.039   3.591  0.00  0.00    -0.013 C 
ATOM     14  C   UNL     1      -0.016   1.091   2.429  0.00  0.00    -0.054 C 
ATOM     15  C   UNL     1       1.120   2.055   2.780  0.00  0.00    +0.091 C 
ENDROOT
BRANCH  14  16
ATOM     16  N   UNL     1      -0.709   1.566   1.217  0.00  0.00    +0.385 N 
ATOM     17  H   UNL     1      -0.723   2.592   1.214  0.00  0.00    -0.085 HD
ATOM     18  H   UNL     1      -1.672   1.210   1.216  0.00  0.00    -0.085 HD
BRANCH  16  19
ATOM     19  C   UNL     1      -0.013   1.086   0.008  0.00  0.00    -0.039 C 
BRANCH  19  20
ATOM     20  C   UNL     1      -0.742   1.585  -1.213  0.00  0.00    -0.026 A 
ATOM     21  C   UNL     1      -0.556   2.733  -1.901  0.00  0.00    +0.026 A 
ATOM     22  C   UNL     1      -1.354   2.992  -3.013  0.00  0.00    +0.032 A 
ATOM     23  C   UNL     1      -2.299   2.067  -3.366  0.00  0.00    +0.062 A 
ATOM     24  S   UNL     1      -2.065   0.807  -2.123  0.00  0.00    -0.102 S 
BRANCH  22  25
ATOM     25  C   UNL     1      -1.189   4.197  -3.769  0.00  0.00    -0.063 C 
ATOM     26  C   UNL     1      -1.055   5.185  -4.389  0.00  0.00    -0.069 C 
BRANCH  26  27
ATOM     27  C   UNL     1      -0.886   6.424  -5.166  0.00  0.00    +0.244 C 
BRANCH  27  28
ATOM     28  O   UNL     1       0.444   6.481  -5.687  0.00  0.00    -0.383 OA
ATOM     29  H   UNL     1       0.626   7.273  -6.211  0.00  0.00    +0.211 HD
ENDBRANCH  27  28
ENDBRANCH  26  27
ENDBRANCH  22  25
ENDBRANCH  19  20
ENDBRANCH  16  19
ENDBRANCH  14  16
TORSDOF 6
