REMARK  Name = ZINC05602761
REMARK  7 active torsions:
REMARK  status: ('A' for Active; 'I' for Inactive)
REMARK    1  A    between atoms: C_1  and  C_2
REMARK    2  A    between atoms: C_2  and  C_3
REMARK    3  A    between atoms: C_3  and  C_4
REMARK    4  A    between atoms: C_3  and  C_5
REMARK    5  A    between atoms: C_3  and  C_6
REMARK    6  A    between atoms: N_19  and  N_20
REMARK    7  A    between atoms: C_21  and  C_22
REMARK                            x       y       z     vdW  Elec       q    Type
REMARK                         _______ _______ _______ _____ _____    ______ ____
ROOT
ATOM      1  C   UNL     1       5.481   1.946   0.804  0.00  0.00    -0.001 C 
ATOM      2  C   UNL     1       6.478   2.829   0.047  0.00  0.00    +0.009 C 
ATOM      3  C   UNL     1       6.209   4.296   0.409  0.00  0.00    +0.043 C 
ATOM      4  C   UNL     1       4.737   4.550   0.295  0.00  0.00    -0.004 A 
ATOM      5  C   UNL     1       3.753   3.630   0.213  0.00  0.00    -0.024 A 
ATOM      6  C   UNL     1       2.382   4.132   0.114  0.00  0.00    +0.052 A 
ATOM      7  C   UNL     1       1.169   3.395   0.009  0.00  0.00    +0.150 A 
ATOM      8  N   UNL     1       0.023   4.051  -0.076  0.00  0.00    -0.219 NA
ATOM      9  C   UNL     1      -0.035   5.370  -0.072  0.00  0.00    +0.224 A 
ATOM     10  N   UNL     1       1.056   6.107   0.017  0.00  0.00    -0.228 NA
ATOM     11  C   UNL     1       2.240   5.534   0.106  0.00  0.00    +0.114 A 
ATOM     12  S   UNL     1       3.910   6.117   0.239  0.00  0.00    -0.073 S 
ATOM     13  N   UNL     1       1.188   2.011   0.002  0.00  0.00    -0.220 N 
ATOM     14  C   UNL     1       4.077   2.139   0.230  0.00  0.00    +0.040 C 
ATOM     15  H   UNL     1       2.017   1.538  -0.172  0.00  0.00    +0.176 HD
ENDROOT
BRANCH   1  16
ATOM     16  C   UNL     1       5.892   0.479   0.659  0.00  0.00    -0.032 C 
ATOM     17  C   UNL     1       4.903  -0.405   1.421  0.00  0.00    +0.011 C 
ATOM     18  C   UNL     1       5.887   0.091  -0.821  0.00  0.00    +0.011 C 
BRANCH  16  20
ATOM     19  C   UNL     1       7.707  -1.183   1.088  0.00  0.00    +0.004 C 
ATOM     20  C   UNL     1       7.297   0.284   1.233  0.00  0.00    +0.003 C 
ENDBRANCH  16  20
ENDBRANCH   1  16
BRANCH  13  21
ATOM     21  N   UNL     1       0.010   1.293   0.244  0.00  0.00    -0.189 NA
ATOM     22  C   UNL     1       0.027  -0.005   0.237  0.00  0.00    +0.138 C 
BRANCH  22  23
ATOM     23  C   UNL     1      -1.212  -0.760   0.492  0.00  0.00    -0.003 A 
ATOM     24  C   UNL     1      -2.420  -0.097   0.750  0.00  0.00    +0.029 A 
ATOM     25  C   UNL     1      -3.556  -0.844   0.978  0.00  0.00    +0.111 A 
ATOM     26  N   UNL     1      -3.515  -2.163   0.966  0.00  0.00    -0.263 NA
ATOM     27  C   UNL     1      -2.399  -2.827   0.732  0.00  0.00    +0.111 A 
ATOM     28  C   UNL     1      -1.216  -2.162   0.489  0.00  0.00    +0.029 A 
ENDBRANCH  22  23
ENDBRANCH  13  21
TORSDOF 4
