REMARK  Name = ZINC48247227
REMARK  12 active torsions:
REMARK  status: ('A' for Active; 'I' for Inactive)
REMARK    1  A    between atoms: C_1  and  C_2
REMARK    2  A    between atoms: C_2  and  N_3
REMARK    3  A    between atoms: N_3  and  C_4
REMARK    4  A    between atoms: N_3  and  C_6
REMARK    5  A    between atoms: C_4  and  C_5
REMARK    6  A    between atoms: C_6  and  C_8
REMARK    7  A    between atoms: C_6  and  C_9
REMARK    8  A    between atoms: C_9  and  N_10
REMARK    9  A    between atoms: N_13  and  C_14
REMARK   10  A    between atoms: C_14  and  C_16
REMARK   11  A    between atoms: C_14  and  C_23
REMARK   12  A    between atoms: N_27  and  C_28
REMARK                            x       y       z     vdW  Elec       q    Type
REMARK                         _______ _______ _______ _____ _____    ______ ____
ROOT
ATOM      1  N   UNL     1       0.566  -1.571   1.610  0.00  0.00    -0.301 N 
ATOM      2  C   UNL     1       1.433  -1.782   2.620  0.00  0.00    +0.300 C 
ATOM      3  O   UNL     1       1.202  -2.639   3.450  0.00  0.00    -0.253 OA
ATOM      4  N   UNL     1       2.556  -1.042   2.709  0.00  0.00    -0.286 N 
ATOM      5  H   UNL     1       0.750  -0.886   0.947  0.00  0.00    +0.150 HD
ATOM      6  H   UNL     1       2.740  -0.358   2.047  0.00  0.00    +0.151 HD
ENDROOT
BRANCH   1   7
ATOM      7  C   UNL     1      -0.655  -2.375   1.512  0.00  0.00    +0.090 C 
BRANCH   7   8
ATOM      8  C   UNL     1      -1.402  -2.014   0.227  0.00  0.00    -0.054 C 
ATOM      9  C   UNL     1      -2.711  -2.803   0.159  0.00  0.00    -0.012 C 
BRANCH   8  10
ATOM     10  N   UNL     1      -1.697  -0.574   0.220  0.00  0.00    +0.382 N 
ATOM     11  H   UNL     1      -0.843  -0.056   0.361  0.00  0.00    -0.081 HD
BRANCH  10  13
ATOM     12  C   UNL     1      -1.249  -0.382  -2.180  0.00  0.00    -0.017 C 
ATOM     13  C   UNL     1      -2.289  -0.202  -1.072  0.00  0.00    -0.082 C 
ENDBRANCH  10  13
BRANCH  10  14
ATOM     14  C   UNL     1      -2.643  -0.263   1.300  0.00  0.00    -0.082 C 
ATOM     15  C   UNL     1      -2.831   1.252   1.392  0.00  0.00    -0.017 C 
ENDBRANCH  10  14
ENDBRANCH   8  10
ENDBRANCH   7   8
ENDBRANCH   1   7
BRANCH   4  16
ATOM     16  C   UNL     1       3.498  -1.271   3.808  0.00  0.00    +0.171 C 
BRANCH  16  17
ATOM     17  C   UNL     1       4.875  -0.821   3.390  0.00  0.00    -0.020 A 
ATOM     18  C   UNL     1       5.029   0.342   2.659  0.00  0.00    +0.009 A 
ATOM     19  C   UNL     1       6.290   0.757   2.276  0.00  0.00    +0.038 A 
ATOM     20  C   UNL     1       7.400   0.007   2.626  0.00  0.00    +0.123 A 
ATOM     21  C   UNL     1       7.245  -1.158   3.359  0.00  0.00    +0.038 A 
ATOM     22  C   UNL     1       5.983  -1.567   3.745  0.00  0.00    +0.009 A 
ATOM     23  F   UNL     1       8.634   0.411   2.252  0.00  0.00    -0.205 F 
ENDBRANCH  16  17
BRANCH  16  24
ATOM     24  C   UNL     1       3.059  -0.489   5.018  0.00  0.00    +0.134 A 
ATOM     25  N   UNL     1       2.652   0.751   5.016  0.00  0.00    -0.238 NA
ATOM     26  C   UNL     1       2.343   1.117   6.269  0.00  0.00    +0.130 A 
ATOM     27  C   UNL     1       2.566   0.064   7.078  0.00  0.00    +0.106 A 
ATOM     28  N   UNL     1       3.015  -0.957   6.284  0.00  0.00    -0.336 N 
ATOM     29  C   UNL     1       3.383  -2.304   6.726  0.00  0.00    +0.150 C 
ENDBRANCH  16  24
ENDBRANCH   4  16
TORSDOF 8
