REMARK  Name = ZINC05658535
REMARK  6 active torsions:
REMARK  status: ('A' for Active; 'I' for Inactive)
REMARK    1  A    between atoms: C_1  and  C_2
REMARK    2  A    between atoms: C_2  and  C_4
REMARK    3  A    between atoms: C_2  and  N_10
REMARK    4  A    between atoms: C_11  and  C_13
REMARK    5  A    between atoms: C_14  and  N_28
REMARK    6  A    between atoms: C_18  and  C_22
REMARK                            x       y       z     vdW  Elec       q    Type
REMARK                         _______ _______ _______ _____ _____    ______ ____
ROOT
ATOM      1  C   UNL     1       3.234   3.687  -0.008  0.00  0.00    +0.097 A 
ATOM      2  C   UNL     1       3.499   2.335  -0.018  0.00  0.00    +0.053 A 
ATOM      3  C   UNL     1       2.376   1.411  -0.013  0.00  0.00    +0.029 A 
ATOM      4  C   UNL     1       2.398  -0.007  -0.021  0.00  0.00    +0.014 A 
ATOM      5  C   UNL     1       1.219  -0.691  -0.013  0.00  0.00    +0.029 A 
ATOM      6  C   UNL     1       0.002  -0.004   0.002  0.00  0.00    +0.072 A 
ATOM      7  N   UNL     1      -0.016   1.323   0.009  0.00  0.00    -0.239 NA
ATOM      8  C   UNL     1       1.099   2.019   0.002  0.00  0.00    +0.111 A 
ATOM      9  S   UNL     1       1.454   3.759   0.009  0.00  0.00    -0.062 S 
ENDROOT
BRANCH   6  10
ATOM     10  C   UNL     1      -1.274  -0.760   0.010  0.00  0.00    +0.003 A 
ATOM     11  C   UNL     1      -1.280  -2.158  -0.004  0.00  0.00    +0.030 A 
ATOM     12  C   UNL     1      -2.489  -2.823   0.010  0.00  0.00    +0.111 A 
ATOM     13  N   UNL     1      -3.627  -2.156   0.024  0.00  0.00    -0.263 NA
ATOM     14  C   UNL     1      -3.666  -0.838   0.031  0.00  0.00    +0.111 A 
ATOM     15  C   UNL     1      -2.503  -0.095   0.025  0.00  0.00    +0.030 A 
ENDBRANCH   6  10
BRANCH   1  17
ATOM     16  N   UNL     1       3.710   6.034   0.001  0.00  0.00    -0.304 N 
ATOM     17  C   UNL     1       4.157   4.763  -0.011  0.00  0.00    +0.253 C 
ATOM     18  O   UNL     1       5.354   4.538  -0.023  0.00  0.00    -0.270 OA
ATOM     19  H   UNL     1       2.756   6.213   0.011  0.00  0.00    +0.150 HD
BRANCH  16  21
ATOM     20  C   UNL     1       5.077   7.460  -1.441  0.00  0.00    +0.033 C 
ATOM     21  C   UNL     1       4.663   7.146  -0.002  0.00  0.00    +0.100 C 
BRANCH  21  22
ATOM     22  C   UNL     1       4.019   8.362   0.612  0.00  0.00    -0.027 A 
ATOM     23  C   UNL     1       2.699   8.662   0.328  0.00  0.00    +0.005 A 
ATOM     24  C   UNL     1       2.107   9.775   0.894  0.00  0.00    +0.000 A 
ATOM     25  C   UNL     1       2.836  10.594   1.737  0.00  0.00    +0.000 A 
ATOM     26  C   UNL     1       4.157  10.297   2.016  0.00  0.00    +0.000 A 
ATOM     27  C   UNL     1       4.748   9.181   1.453  0.00  0.00    +0.005 A 
ENDBRANCH  21  22
ENDBRANCH  16  21
ENDBRANCH   1  17
BRANCH   2  28
ATOM     28  N   UNL     1       4.805   1.866  -0.033  0.00  0.00    -0.356 N 
ATOM     29  H   UNL     1       4.978   0.912  -0.040  0.00  0.00    +0.142 HD
ATOM     30  H   UNL     1       5.545   2.493  -0.036  0.00  0.00    +0.142 HD
ENDBRANCH   2  28
TORSDOF 5
