REMARK  Name = ZINC13976191
REMARK  12 active torsions:
REMARK  status: ('A' for Active; 'I' for Inactive)
REMARK    1  A    between atoms: C_1  and  C_2
REMARK    2  A    between atoms: C_5  and  C_31
REMARK    3  A    between atoms: C_6  and  O_8
REMARK    4  A    between atoms: O_8  and  C_9
REMARK    5  A    between atoms: C_9  and  C_10
REMARK    6  A    between atoms: N_12  and  C_13
REMARK    7  A    between atoms: C_13  and  N_15
REMARK    8  A    between atoms: N_15  and  N_16
REMARK    9  A    between atoms: C_17  and  C_19
REMARK   10  A    between atoms: C_19  and  C_20
REMARK   11  A    between atoms: C_20  and  C_21
REMARK   12  A    between atoms: N_23  and  C_24
REMARK                            x       y       z     vdW  Elec       q    Type
REMARK                         _______ _______ _______ _____ _____    ______ ____
ROOT
ATOM      1  N   UNL     1       5.157   9.099   0.056  0.00  0.00    -0.246 N 
ATOM      2  H   UNL     1       6.168   9.534   0.053  0.00  0.00    +0.172 HD
ENDROOT
BRANCH   1   3
ATOM      3  N   UNL     1       4.034   9.936   0.060  0.00  0.00    -0.235 N 
ATOM      4  C   UNL     1       4.191  11.275   0.059  0.00  0.00    +0.230 C 
ATOM      5  O   UNL     1       5.305  11.755   0.055  0.00  0.00    -0.274 OA
ATOM      6  H   UNL     1       3.024   9.501   0.064  0.00  0.00    +0.173 HD
BRANCH   4   7
ATOM      7  C   UNL     1       2.982  12.175   0.063  0.00  0.00    +0.106 C 
BRANCH   7   8
ATOM      8  C   UNL     1       3.435  13.636   0.062  0.00  0.00    +0.105 C 
BRANCH   8   9
ATOM      9  C   UNL     1       2.227  14.537   0.066  0.00  0.00    +0.218 C 
ATOM     10  O   UNL     1       1.113  14.057   0.070  0.00  0.00    -0.275 OA
ATOM     11  N   UNL     1       2.384  15.875   0.065  0.00  0.00    -0.284 N 
ATOM     12  H   UNL     1       3.391  16.311   0.136  0.00  0.00    +0.155 HD
BRANCH  11  13
ATOM     13  C   UNL     1       1.265  16.711  -0.026  0.00  0.00    +0.052 A 
ATOM     14  C   UNL     1       0.069  16.340   0.574  0.00  0.00    +0.025 A 
ATOM     15  C   UNL     1      -1.032  17.170   0.488  0.00  0.00    +0.002 A 
ATOM     16  C   UNL     1      -0.948  18.364  -0.205  0.00  0.00    +0.002 A 
ATOM     17  C   UNL     1       0.239  18.734  -0.809  0.00  0.00    +0.022 A 
ATOM     18  C   UNL     1       1.347  17.911  -0.722  0.00  0.00    +0.062 A 
ATOM     19 CL   UNL     1       2.837  18.376  -1.480  0.00  0.00    -0.082 Cl
ENDBRANCH  11  13
ENDBRANCH   8   9
ENDBRANCH   7   8
ENDBRANCH   4   7
ENDBRANCH   1   3
BRANCH   1  20
ATOM     20  C   UNL     1       5.000   7.760   0.057  0.00  0.00    +0.153 C 
ATOM     21  S   UNL     1       6.373   6.737   0.052  0.00  0.00    -0.017 S 
BRANCH  20  24
ATOM     22  C   UNL     1       3.606   5.888   0.062  0.00  0.00    +0.256 C 
ATOM     23  O   UNL     1       4.578   5.164   0.059  0.00  0.00    -0.272 OA
ATOM     24  N   UNL     1       3.763   7.227   0.061  0.00  0.00    -0.264 N 
ATOM     25  H   UNL     1       2.881   7.884   0.064  0.00  0.00    +0.157 HD
BRANCH  22  26
ATOM     26  C   UNL     1       2.222   5.292   0.067  0.00  0.00    +0.325 C 
BRANCH  26  27
ATOM     27  O   UNL     1       2.317   3.866   0.067  0.00  0.00    -0.482 OA
BRANCH  27  33
ATOM     28  C   UNL     1      -2.563   3.866   0.084  0.00  0.00    +0.044 C 
ATOM     29  C   UNL     1      -1.246   3.134   0.080  0.00  0.00    -0.047 A 
ATOM     30  C   UNL     1      -1.225   1.751   0.074  0.00  0.00    +0.004 A 
ATOM     31  C   UNL     1      -0.018   1.077   0.075  0.00  0.00    +0.007 A 
ATOM     32  C   UNL     1       1.170   1.783   0.071  0.00  0.00    -0.009 A 
ATOM     33  C   UNL     1       1.151   3.170   0.071  0.00  0.00    +0.124 A 
ATOM     34  C   UNL     1      -0.062   3.845   0.075  0.00  0.00    +0.049 A 
ATOM     35  C   UNL     1       2.485   1.046   0.065  0.00  0.00    +0.047 C 
ENDBRANCH  27  33
ENDBRANCH  26  27
ENDBRANCH  22  26
ENDBRANCH  20  24
ENDBRANCH   1  20
TORSDOF 10
