REMARK  Name = ZINC08295605
REMARK  7 active torsions:
REMARK  status: ('A' for Active; 'I' for Inactive)
REMARK    1  A    between atoms: C_3  and  C_6
REMARK    2  A    between atoms: C_6  and  N_7
REMARK    3  A    between atoms: N_9  and  C_27
REMARK    4  A    between atoms: C_12  and  O_26
REMARK    5  A    between atoms: C_14  and  O_25
REMARK    6  A    between atoms: C_17  and  C_22
REMARK    7  A    between atoms: C_27  and  C_28
REMARK                            x       y       z     vdW  Elec       q    Type
REMARK                         _______ _______ _______ _____ _____    ______ ____
ROOT
ATOM      1  N   UNL     1      -3.253   3.864   2.265  0.00  0.00    -0.256 NA
ATOM      2  C   UNL     1      -2.164   3.157   2.147  0.00  0.00    +0.153 C 
ATOM      3  N   UNL     1      -1.672   2.572   1.003  0.00  0.00    -0.299 N 
ATOM      4  C   UNL     1      -0.486   1.764   1.091  0.00  0.00    +0.121 C 
ATOM      5  C   UNL     1       0.374   1.746  -0.136  0.00  0.00    +0.164 C 
ATOM      6  C   UNL     1       1.609   2.631  -0.001  0.00  0.00    +0.146 C 
ATOM      7  C   UNL     1       2.384   2.188   1.246  0.00  0.00    +0.048 C 
ATOM      8  C   UNL     1       1.536   2.485   2.476  0.00  0.00    +0.092 C 
ATOM      9  C   UNL     1       0.201   1.766   2.442  0.00  0.00    +0.089 C 
ATOM     10  S   UNL     1      -1.000   2.746   3.432  0.00  0.00    -0.085 S 
ENDROOT
BRANCH   8  11
ATOM     11  C   UNL     1       2.292   2.053   3.706  0.00  0.00    +0.215 C 
ATOM     12  O   UNL     1       1.822   1.213   4.443  0.00  0.00    -0.276 OA
ATOM     13  N   UNL     1       3.492   2.600   3.987  0.00  0.00    -0.329 N 
ATOM     14  H   UNL     1       3.868   3.272   3.397  0.00  0.00    +0.145 HD
ATOM     15  H   UNL     1       3.978   2.322   4.778  0.00  0.00    +0.145 HD
ENDBRANCH   8  11
BRANCH   6  16
ATOM     16  O   UNL     1       2.435   2.484  -1.158  0.00  0.00    -0.389 OA
ATOM     17  H   UNL     1       3.240   3.021  -1.137  0.00  0.00    +0.210 HD
ENDBRANCH   6  16
BRANCH   5  18
ATOM     18  O   UNL     1      -0.401   2.202  -1.246  0.00  0.00    -0.387 OA
ATOM     19  H   UNL     1       0.096   2.265  -2.073  0.00  0.00    +0.210 HD
ENDBRANCH   5  18
BRANCH   1  20
ATOM     20  C   UNL     1      -3.630   4.416   3.568  0.00  0.00    +0.218 C 
BRANCH  20  23
ATOM     21  C   UNL     1      -4.122   8.054   3.244  0.00  0.00    +0.041 A 
ATOM     22  C   UNL     1      -4.602   6.727   3.162  0.00  0.00    +0.046 A 
ATOM     23  C   UNL     1      -3.583   5.921   3.509  0.00  0.00    +0.126 A 
ATOM     24  O   UNL     1      -2.514   6.685   3.788  0.00  0.00    -0.466 OA
ATOM     25  C   UNL     1      -2.835   7.980   3.629  0.00  0.00    +0.195 A 
ENDBRANCH  20  23
ENDBRANCH   1  20
BRANCH   3  26
ATOM     26  C   UNL     1      -2.346   2.768  -0.282  0.00  0.00    +0.142 C 
BRANCH  26  27
ATOM     27  C   UNL     1      -3.838   2.790  -0.070  0.00  0.00    -0.030 A 
ATOM     28  C   UNL     1      -4.543   1.604   0.003  0.00  0.00    +0.008 A 
ATOM     29  C   UNL     1      -5.910   1.623   0.203  0.00  0.00    +0.038 A 
ATOM     30  C   UNL     1      -6.575   2.832   0.320  0.00  0.00    +0.123 A 
ATOM     31  C   UNL     1      -5.869   4.020   0.242  0.00  0.00    +0.038 A 
ATOM     32  C   UNL     1      -4.500   3.998   0.047  0.00  0.00    +0.008 A 
ATOM     33  F   UNL     1      -7.913   2.852   0.511  0.00  0.00    -0.205 F 
ENDBRANCH  26  27
ENDBRANCH   3  26
TORSDOF 7
