REMARK  Name = ZINC47534331
REMARK  5 active torsions:
REMARK  status: ('A' for Active; 'I' for Inactive)
REMARK    1  A    between atoms: C_1  and  C_2
REMARK    2  A    between atoms: C_4  and  C_12
REMARK    3  A    between atoms: N_14  and  C_15
REMARK    4  A    between atoms: C_15  and  C_17
REMARK    5  A    between atoms: C_15  and  C_18
REMARK                            x       y       z     vdW  Elec       q    Type
REMARK                         _______ _______ _______ _____ _____    ______ ____
ROOT
ATOM      1  C   UNL     1       0.028  -2.808  -2.517  0.00  0.00    +0.245 C 
ATOM      2  O   UNL     1       0.137  -4.019  -2.514  0.00  0.00    -0.270 OA
ATOM      3  N   UNL     1      -0.089  -2.145  -3.685  0.00  0.00    -0.305 N 
ATOM      4  H   UNL     1      -0.176  -1.179  -3.687  0.00  0.00    +0.150 HD
ENDROOT
BRANCH   1   8
ATOM      5  C   UNL     1       0.018   1.503   0.010  0.00  0.00    +0.065 C 
ATOM      6  C   UNL     1       0.019  -0.004   0.002  0.00  0.00    +0.040 A 
ATOM      7  C   UNL     1       0.023  -0.674  -1.220  0.00  0.00    +0.036 A 
ATOM      8  C   UNL     1       0.025  -2.062  -1.240  0.00  0.00    +0.048 A 
ATOM      9  C   UNL     1       0.022  -2.741   0.005  0.00  0.00    +0.012 A 
ATOM     10  C   UNL     1       0.024  -4.141   0.073  0.00  0.00    +0.011 A 
ATOM     11  C   UNL     1       0.022  -4.757   1.288  0.00  0.00    +0.001 A 
ATOM     12  C   UNL     1       0.018  -4.013   2.466  0.00  0.00    +0.002 A 
ATOM     13  C   UNL     1       0.016  -2.652   2.437  0.00  0.00    +0.028 A 
ATOM     14  C   UNL     1       0.018  -1.981   1.200  0.00  0.00    +0.072 A 
ATOM     15  N   UNL     1       0.022  -0.646   1.143  0.00  0.00    -0.252 NA
ENDBRANCH   1   8
BRANCH   3  16
ATOM     16  C   UNL     1      -0.085  -2.884  -4.950  0.00  0.00    +0.100 C 
ATOM     17  C   UNL     1      -1.501  -3.377  -5.256  0.00  0.00    +0.033 C 
BRANCH  16  18
ATOM     18  C   UNL     1       0.382  -1.978  -6.059  0.00  0.00    -0.025 A 
ATOM     19  C   UNL     1      -0.030  -0.656  -6.090  0.00  0.00    +0.007 A 
ATOM     20  C   UNL     1       0.393   0.182  -7.103  0.00  0.00    +0.028 A 
ATOM     21  C   UNL     1       1.234  -0.302  -8.093  0.00  0.00    +0.067 A 
ATOM     22  C   UNL     1       1.650  -1.634  -8.062  0.00  0.00    +0.067 A 
ATOM     23  C   UNL     1       1.224  -2.467  -7.038  0.00  0.00    +0.033 A 
ATOM     24  N   UNL     1       2.475  -1.824  -9.168  0.00  0.00    -0.306 N 
ATOM     25  H   UNL     1       2.915  -2.653  -9.412  0.00  0.00    +0.170 HD
ATOM     26  C   UNL     1       2.558  -0.661  -9.841  0.00  0.00    +0.325 A 
ATOM     27  O   UNL     1       3.201  -0.483 -10.858  0.00  0.00    -0.247 OA
ATOM     28  N   UNL     1       1.820   0.277  -9.216  0.00  0.00    -0.306 N 
ATOM     29  H   UNL     1       1.714   1.198  -9.501  0.00  0.00    +0.170 HD
ENDBRANCH  16  18
ENDBRANCH   3  16
TORSDOF 3
