REMARK  Name = ZINC29855398
REMARK  3 active torsions:
REMARK  status: ('A' for Active; 'I' for Inactive)
REMARK    1  A    between atoms: C_6  and  N_7
REMARK    2  A    between atoms: N_7  and  S_8
REMARK    3  A    between atoms: S_8  and  C_11
REMARK                            x       y       z     vdW  Elec       q    Type
REMARK                         _______ _______ _______ _____ _____    ______ ____
ROOT
ATOM      1  N   UNL     1       3.631   2.162   0.016  0.00  0.00    -0.216 N 
ATOM      2  H   UNL     1       4.484   1.873   0.648  0.00  0.00    +0.174 HD
ENDROOT
BRANCH   1   8
ATOM      3  C   UNL     1       1.593   1.807   1.261  0.00  0.00    +0.028 A 
ATOM      4  C   UNL     1       0.375   1.175   1.414  0.00  0.00    +0.050 A 
ATOM      5  C   UNL     1      -0.048   0.247   0.475  0.00  0.00    +0.157 A 
ATOM      6  C   UNL     1       0.760  -0.045  -0.625  0.00  0.00    +0.089 A 
ATOM      7  C   UNL     1       1.981   0.590  -0.778  0.00  0.00    +0.054 A 
ATOM      8  C   UNL     1       2.399   1.518   0.166  0.00  0.00    +0.050 A 
ATOM      9  N   UNL     1       0.077  -0.999  -1.378  0.00  0.00    -0.288 N 
ATOM     10  H   UNL     1       0.522  -1.389  -2.305  0.00  0.00    +0.172 HD
ATOM     11  C   UNL     1      -1.086  -1.258  -0.747  0.00  0.00    +0.419 A 
ATOM     12  O   UNL     1      -1.931  -2.045  -1.128  0.00  0.00    -0.223 OA
ATOM     13  O   UNL     1      -1.166  -0.513   0.366  0.00  0.00    -0.408 OA
ENDBRANCH   1   8
BRANCH   1  14
ATOM     14  S   UNL     1       3.808   3.359  -1.115  0.00  0.00    +0.072 S 
ATOM     15  O   UNL     1       5.136   3.847  -0.986  0.00  0.00    -0.150 OA
ATOM     16  O   UNL     1       3.302   2.841  -2.337  0.00  0.00    -0.150 OA
BRANCH  14  17
ATOM     17  C   UNL     1       2.738   4.679  -0.647  0.00  0.00    +0.109 A 
ATOM     18  C   UNL     1       1.423   4.690  -1.072  0.00  0.00    +0.029 A 
ATOM     19  C   UNL     1       0.591   5.725  -0.698  0.00  0.00    +0.006 A 
ATOM     20  C   UNL     1       1.067   6.763   0.092  0.00  0.00    -0.044 A 
ATOM     21  C   UNL     1       2.377   6.754   0.513  0.00  0.00    -0.042 A 
ATOM     22  C   UNL     1       3.212   5.708   0.140  0.00  0.00    +0.032 A 
ATOM     23  C   UNL     1       2.959   7.841   1.378  0.00  0.00    +0.035 C 
ATOM     24  C   UNL     1       2.079   9.089   1.337  0.00  0.00    +0.005 C 
ATOM     25  C   UNL     1       0.635   8.672   1.637  0.00  0.00    +0.005 C 
ATOM     26  C   UNL     1       0.108   7.869   0.450  0.00  0.00    +0.035 C 
ENDBRANCH  14  17
ENDBRANCH   1  14
TORSDOF 3
