REMARK  Name = ZINC62243102
REMARK  5 active torsions:
REMARK  status: ('A' for Active; 'I' for Inactive)
REMARK    1  A    between atoms: C_1  and  C_2
REMARK    2  A    between atoms: C_5  and  C_8
REMARK    3  A    between atoms: C_5  and  N_12
REMARK    4  A    between atoms: N_9  and  O_10
REMARK    5  A    between atoms: C_13  and  C_15
REMARK                            x       y       z     vdW  Elec       q    Type
REMARK                         _______ _______ _______ _____ _____    ______ ____
ROOT
ATOM      1  C   UNL     1       0.208   1.405  -0.206  0.00  0.00    +0.007 C 
ATOM      2  C   UNL     1       0.129  -0.121  -0.136  0.00  0.00    -0.014 C 
ATOM      3  C   UNL     1      -1.337  -0.553  -0.067  0.00  0.00    +0.006 C 
ATOM      4  C   UNL     1      -1.417  -2.079   0.002  0.00  0.00    +0.034 C 
ATOM      5  C   UNL     1      -0.681  -2.572   1.250  0.00  0.00    +0.093 C 
ATOM      6  C   UNL     1       0.785  -2.140   1.181  0.00  0.00    +0.034 C 
ATOM      7  C   UNL     1       0.865  -0.614   1.112  0.00  0.00    +0.006 C 
ENDROOT
BRANCH   5   8
ATOM      8  C   UNL     1      -0.759  -4.075   1.319  0.00  0.00    +0.155 C 
ATOM      9  N   UNL     1      -1.361  -4.734   0.385  0.00  0.00    -0.075 NA
ATOM     10  N   UNL     1      -0.188  -4.747   2.377  0.00  0.00    -0.342 N 
ATOM     11  H   UNL     1       0.199  -4.250   3.115  0.00  0.00    +0.144 HD
ATOM     12  H   UNL     1      -0.173  -5.717   2.385  0.00  0.00    +0.144 HD
BRANCH   9  13
ATOM     13  O   UNL     1      -1.435  -6.146   0.449  0.00  0.00    -0.408 OA
ATOM     14  H   UNL     1      -1.905  -6.550  -0.293  0.00  0.00    +0.328 HD
ENDBRANCH   9  13
ENDBRANCH   5   8
BRANCH   5  15
ATOM     15  N   UNL     1      -1.304  -1.995   2.444  0.00  0.00    -0.303 N 
ATOM     16  C   UNL     1      -2.567  -2.331   2.774  0.00  0.00    +0.219 C 
ATOM     17  O   UNL     1      -3.218  -3.040   2.036  0.00  0.00    -0.275 OA
ATOM     18  H   UNL     1      -0.808  -1.372   2.998  0.00  0.00    +0.150 HD
BRANCH  16  19
ATOM     19  C   UNL     1      -3.170  -1.825   4.059  0.00  0.00    +0.101 C 
ATOM     20  C   UNL     1      -4.605  -2.346   4.191  0.00  0.00    +0.017 C 
ATOM     21  C   UNL     1      -5.233  -1.763   5.460  0.00  0.00    +0.029 C 
ATOM     22  C   UNL     1      -5.173  -0.234   5.394  0.00  0.00    +0.160 C 
ATOM     23  O   UNL     1      -3.815   0.182   5.241  0.00  0.00    -0.379 OA
ATOM     24  C   UNL     1      -3.189  -0.294   4.048  0.00  0.00    +0.172 C 
ENDBRANCH  16  19
ENDBRANCH   5  15
TORSDOF 4
