REMARK  Name = ZINC39152749
REMARK  7 active torsions:
REMARK  status: ('A' for Active; 'I' for Inactive)
REMARK    1  A    between atoms: C_3  and  C_9
REMARK    2  A    between atoms: C_9  and  S_10
REMARK    3  A    between atoms: S_10  and  C_11
REMARK    4  A    between atoms: C_15  and  N_18
REMARK    5  A    between atoms: C_19  and  C_21
REMARK    6  A    between atoms: C_21  and  S_22
REMARK    7  A    between atoms: S_22  and  C_23
REMARK                            x       y       z     vdW  Elec       q    Type
REMARK                         _______ _______ _______ _____ _____    ______ ____
ROOT
ATOM      1  C   UNL     1       5.757   3.413   1.500  0.00  0.00    +0.188 C 
ATOM      2  N   UNL     1       6.741   2.668   0.653  0.00  0.00    -0.232 NA
ATOM      3  N   UNL     1       7.726   3.593   0.104  0.00  0.00    -0.226 NA
ATOM      4  C   UNL     1       7.080   4.775  -0.533  0.00  0.00    +0.217 C 
ATOM      5  S   UNL     1       5.525   4.912   0.448  0.00  0.00    -0.091 S 
ATOM      6  H   UNL     1       7.190   1.934   1.180  0.00  0.00    +0.143 HD
ATOM      7  H   UNL     1       8.340   3.124  -0.545  0.00  0.00    +0.143 HD
ENDROOT
BRANCH   4   8
ATOM      8  N   UNL     1       6.792   4.519  -1.946  0.00  0.00    -0.290 N 
ATOM      9  C   UNL     1       6.493   5.544  -2.769  0.00  0.00    +0.225 C 
ATOM     10  O   UNL     1       6.462   6.678  -2.339  0.00  0.00    -0.275 OA
ATOM     11  H   UNL     1       6.816   3.613  -2.290  0.00  0.00    +0.151 HD
BRANCH   9  12
ATOM     12  C   UNL     1       6.196   5.281  -4.223  0.00  0.00    +0.173 C 
BRANCH  12  13
ATOM     13  S   UNL     1       5.833   6.850  -5.059  0.00  0.00    -0.077 S 
BRANCH  13  14
ATOM     14  C   UNL     1       5.512   6.379  -6.727  0.00  0.00    +0.184 A 
ATOM     15  H   UNL     1       5.085   8.175  -7.691  0.00  0.00    +0.191 HD
ATOM     16  N   UNL     1       5.541   5.154  -7.206  0.00  0.00    -0.209 NA
ATOM     17  C   UNL     1       5.248   5.172  -8.507  0.00  0.00    +0.245 A 
ATOM     18  N   UNL     1       5.027   6.405  -8.878  0.00  0.00    -0.160 NA
ATOM     19  N   UNL     1       5.186   7.212  -7.739  0.00  0.00    -0.254 N 
ENDBRANCH  13  14
ENDBRANCH  12  13
ENDBRANCH   9  12
ENDBRANCH   4   8
BRANCH   1  20
ATOM     20  S   UNL     1       4.208   2.486   1.684  0.00  0.00    -0.125 S 
BRANCH  20  21
ATOM     21  C   UNL     1       3.671   2.185  -0.023  0.00  0.00    +0.108 C 
BRANCH  21  24
ATOM     22  C   UNL     1      -0.017   1.379   0.010  0.00  0.00    +0.020 A 
ATOM     23  C   UNL     1       1.171   2.087   0.002  0.00  0.00    +0.007 A 
ATOM     24  C   UNL     1       2.377   1.413  -0.013  0.00  0.00    -0.019 A 
ATOM     25  C   UNL     1       2.397   0.029  -0.021  0.00  0.00    +0.046 A 
ATOM     26  C   UNL     1       1.210  -0.679  -0.013  0.00  0.00    +0.040 A 
ATOM     27  C   UNL     1       0.002  -0.004   0.002  0.00  0.00    +0.042 A 
ATOM     28 CL   UNL     1      -1.489  -0.893   0.012  0.00  0.00    -0.083 Cl
ATOM     29 CL   UNL     1       3.913  -0.817  -0.041  0.00  0.00    -0.083 Cl
ENDBRANCH  21  24
ENDBRANCH  20  21
ENDBRANCH   1  20
TORSDOF 7
