REMARK  Name = ZINC63526559
REMARK  8 active torsions:
REMARK  status: ('A' for Active; 'I' for Inactive)
REMARK    1  A    between atoms: C_1  and  C_2
REMARK    2  A    between atoms: C_4  and  C_12
REMARK    3  A    between atoms: C_12  and  C_13
REMARK    4  A    between atoms: C_13  and  N_14
REMARK    5  A    between atoms: C_15  and  C_17
REMARK    6  A    between atoms: C_24  and  C_28
REMARK    7  A    between atoms: C_24  and  C_29
REMARK    8  A    between atoms: N_30  and  C_33
REMARK                            x       y       z     vdW  Elec       q    Type
REMARK                         _______ _______ _______ _____ _____    ______ ____
ROOT
ATOM      1  C   UNL     1      -7.101  -1.197  -2.403  0.00  0.00    +0.096 C 
ATOM      2  C   UNL     1      -8.341  -1.698  -2.213  0.00  0.00    +0.004 C 
ATOM      3  C   UNL     1      -9.422  -1.385  -3.215  0.00  0.00    +0.100 C 
ATOM      4  C   UNL     1      -9.247   0.044  -3.731  0.00  0.00    +0.096 C 
ATOM      5  C   UNL     1      -9.518   1.039  -2.601  0.00  0.00    +0.030 C 
ATOM      6  C   UNL     1     -10.965   0.910  -2.125  0.00  0.00    -0.026 C 
ATOM      7  C   UNL     1     -11.177  -0.484  -1.524  0.00  0.00    +0.081 C 
ATOM      8  C   UNL     1     -10.774  -1.513  -2.556  0.00  0.00    +0.142 C 
ATOM      9  O   UNL     1     -11.519  -2.419  -2.847  0.00  0.00    -0.297 OA
ATOM     10  C   UNL     1     -11.250   1.972  -1.062  0.00  0.00    +0.011 C 
ATOM     11  C   UNL     1     -11.912   1.105  -3.310  0.00  0.00    +0.011 C 
ATOM     12  N   UNL     1      -7.879   0.234  -4.217  0.00  0.00    -0.263 N 
ATOM     13  C   UNL     1      -6.848  -0.368  -3.602  0.00  0.00    +0.256 C 
ATOM     14  O   UNL     1      -5.716  -0.231  -4.026  0.00  0.00    -0.269 OA
ENDROOT
BRANCH  12  15
ATOM     15  C   UNL     1      -7.643   1.042  -5.334  0.00  0.00    +0.038 A 
ATOM     16  C   UNL     1      -8.094   0.647  -6.587  0.00  0.00    +0.023 A 
ATOM     17  C   UNL     1      -7.860   1.448  -7.688  0.00  0.00    +0.003 A 
ATOM     18  C   UNL     1      -7.177   2.642  -7.544  0.00  0.00    +0.020 A 
ATOM     19  C   UNL     1      -6.725   3.038  -6.298  0.00  0.00    +0.043 A 
ATOM     20  C   UNL     1      -6.962   2.244  -5.191  0.00  0.00    +0.043 A 
ATOM     21 CL   UNL     1      -5.867   4.537  -6.122  0.00  0.00    -0.083 Cl
ENDBRANCH  12  15
BRANCH   1  23
ATOM     22  N   UNL     1      -4.792  -0.955  -1.631  0.00  0.00    -0.311 N 
ATOM     23  C   UNL     1      -6.022  -1.466  -1.431  0.00  0.00    +0.249 C 
ATOM     24  O   UNL     1      -6.245  -2.149  -0.450  0.00  0.00    -0.270 OA
ATOM     25  H   UNL     1      -4.614  -0.410  -2.414  0.00  0.00    +0.149 HD
BRANCH  22  26
ATOM     26  C   UNL     1      -3.721  -1.222  -0.667  0.00  0.00    +0.109 C 
BRANCH  26  27
ATOM     27  C   UNL     1      -2.436  -0.531  -1.127  0.00  0.00    +0.052 C 
BRANCH  27  30
ATOM     28  C   UNL     1       0.127   1.215  -0.184  0.00  0.00    +0.035 C 
ATOM     29  C   UNL     1       0.093  -0.315  -0.204  0.00  0.00    +0.103 C 
ATOM     30  C   UNL     1      -1.335  -0.806  -0.135  0.00  0.00    -0.037 C 
ATOM     31  C   UNL     1      -1.425  -1.541   0.996  0.00  0.00    -0.001 A 
ATOM     32  C   UNL     1      -2.533  -2.277   1.618  0.00  0.00    +0.010 A 
ATOM     33  C   UNL     1      -2.313  -2.934   2.780  0.00  0.00    +0.001 A 
ATOM     34  C   UNL     1      -1.057  -2.929   3.403  0.00  0.00    +0.002 A 
ATOM     35  C   UNL     1       0.008  -2.276   2.892  0.00  0.00    +0.026 A 
ATOM     36  C   UNL     1      -0.109  -1.552   1.674  0.00  0.00    +0.043 A 
ATOM     37  N   UNL     1       0.762  -0.851   0.987  0.00  0.00    -0.378 N 
ATOM     38  H   UNL     1       1.691  -0.710   1.227  0.00  0.00    +0.160 HD
ENDBRANCH  27  30
ENDBRANCH  26  27
ENDBRANCH  22  26
ENDBRANCH   1  23
TORSDOF 5
