REMARK  Name = ZINC24101444
REMARK  5 active torsions:
REMARK  status: ('A' for Active; 'I' for Inactive)
REMARK    1  A    between atoms: C_4  and  S_7
REMARK    2  A    between atoms: S_7  and  N_10
REMARK    3  A    between atoms: N_10  and  N_11
REMARK    4  A    between atoms: C_12  and  C_14
REMARK    5  A    between atoms: C_16  and  N_22
REMARK                            x       y       z     vdW  Elec       q    Type
REMARK                         _______ _______ _______ _____ _____    ______ ____
ROOT
ATOM      1  N   UNL     1      -1.191   1.869   0.018  0.00  0.00    -0.227 N 
ATOM      2  C   UNL     1      -0.014   1.211   0.009  0.00  0.00    +0.279 C 
ATOM      3  O   UNL     1       0.002  -0.004   0.002  0.00  0.00    -0.267 OA
ATOM      4  H   UNL     1      -1.206   2.969   0.024  0.00  0.00    +0.171 HD
ENDROOT
BRANCH   2   5
ATOM      5  C   UNL     1       1.257   1.969   0.001  0.00  0.00    +0.148 A 
ATOM      6  C   UNL     1       2.468   1.283  -0.009  0.00  0.00    +0.094 A 
ATOM      7  C   UNL     1       3.658   2.011  -0.022  0.00  0.00    +0.067 A 
ATOM      8  C   UNL     1       3.582   3.403  -0.014  0.00  0.00    +0.100 A 
ATOM      9  C   UNL     1       2.337   4.013   0.001  0.00  0.00    +0.150 A 
ATOM     10  N   UNL     1       1.232   3.298   0.008  0.00  0.00    -0.228 NA
ATOM     11 CL   UNL     1       2.235   5.746   0.012  0.00  0.00    -0.060 Cl
ATOM     12 CL   UNL     1       5.029   4.362  -0.023  0.00  0.00    -0.078 Cl
ATOM     13 CL   UNL     1       2.498  -0.453  -0.011  0.00  0.00    -0.079 Cl
BRANCH   7  14
ATOM     14  N   UNL     1       4.892   1.364  -0.038  0.00  0.00    -0.356 N 
ATOM     15  H   UNL     1       5.822   1.952  -0.048  0.00  0.00    +0.142 HD
ATOM     16  H   UNL     1       4.936   0.265  -0.039  0.00  0.00    +0.142 HD
ENDBRANCH   7  14
ENDBRANCH   2   5
BRANCH   1  17
ATOM     17  N   UNL     1      -2.394   1.152   0.020  0.00  0.00    -0.108 NA
ATOM     18  H   UNL     1      -2.568   0.494  -0.671  0.00  0.00    +0.172 HD
BRANCH  17  19
ATOM     19  S   UNL     1      -3.521   1.429   1.201  0.00  0.00    +0.074 S 
ATOM     20  O   UNL     1      -4.670   0.669   0.853  0.00  0.00    -0.152 OA
ATOM     21  O   UNL     1      -2.852   1.271   2.445  0.00  0.00    -0.152 OA
BRANCH  19  25
ATOM     22  C   UNL     1      -4.716   5.786   0.918  0.00  0.00    +0.000 A 
ATOM     23  C   UNL     1      -5.407   4.831   0.196  0.00  0.00    +0.002 A 
ATOM     24  C   UNL     1      -5.042   3.501   0.282  0.00  0.00    +0.028 A 
ATOM     25  C   UNL     1      -3.986   3.125   1.091  0.00  0.00    +0.107 A 
ATOM     26  C   UNL     1      -3.298   4.079   1.817  0.00  0.00    +0.028 A 
ATOM     27  C   UNL     1      -3.660   5.410   1.727  0.00  0.00    +0.002 A 
ENDBRANCH  19  25
ENDBRANCH  17  19
ENDBRANCH   1  17
TORSDOF 5
