REMARK  Name = ZINC60708355
REMARK  8 active torsions:
REMARK  status: ('A' for Active; 'I' for Inactive)
REMARK    1  A    between atoms: C_1  and  C_2
REMARK    2  A    between atoms: C_2  and  C_3
REMARK    3  A    between atoms: C_3  and  C_4
REMARK    4  A    between atoms: C_4  and  C_22
REMARK    5  A    between atoms: N_7  and  C_11
REMARK    6  A    between atoms: C_11  and  C_12
REMARK    7  A    between atoms: C_19  and  C_20
REMARK    8  A    between atoms: C_20  and  C_21
REMARK                            x       y       z     vdW  Elec       q    Type
REMARK                         _______ _______ _______ _____ _____    ______ ____
ROOT
ATOM      1  C   UNL     1       0.913  -1.970  -1.305  0.00  0.00    +0.110 C 
ATOM      2  C   UNL     1       1.505  -2.518  -2.588  0.00  0.00    +0.247 C 
ATOM      3  O   UNL     1       2.637  -2.369  -2.995  0.00  0.00    -0.273 OA
ATOM      4  N   UNL     1       0.511  -3.206  -3.183  0.00  0.00    -0.215 N 
ATOM      5  C   UNL     1      -0.615  -3.170  -2.461  0.00  0.00    +0.310 C 
ATOM      6  O   UNL     1      -1.648  -3.718  -2.792  0.00  0.00    -0.252 OA
ATOM      7  N   UNL     1      -0.476  -2.459  -1.328  0.00  0.00    -0.285 N 
ATOM      8  C   UNL     1       1.658  -2.520  -0.087  0.00  0.00    +0.041 C 
ATOM      9  H   UNL     1      -1.157  -2.299  -0.656  0.00  0.00    +0.151 HD
ENDROOT
BRANCH   1  10
ATOM     10  C   UNL     1       0.946  -0.440  -1.308  0.00  0.00    +0.035 C 
BRANCH  10  12
ATOM     11  C   UNL     1       0.278   1.617  -0.057  0.00  0.00    +0.004 C 
ATOM     12  C   UNL     1       0.246   0.087  -0.054  0.00  0.00    -0.001 C 
ENDBRANCH  10  12
ENDBRANCH   1  10
BRANCH   4  13
ATOM     13  C   UNL     1       0.646  -3.908  -4.462  0.00  0.00    +0.213 C 
BRANCH  13  14
ATOM     14  C   UNL     1       1.095  -5.324  -4.213  0.00  0.00    +0.234 C 
ATOM     15  O   UNL     1       1.284  -5.710  -3.079  0.00  0.00    -0.274 OA
ATOM     16  N   UNL     1       1.288  -6.162  -5.251  0.00  0.00    -0.297 N 
ATOM     17  C   UNL     1       0.954  -5.747  -6.620  0.00  0.00    +0.108 C 
ATOM     18  C   UNL     1       2.182  -5.956  -7.512  0.00  0.00    +0.019 C 
ATOM     19  C   UNL     1       2.653  -7.408  -7.393  0.00  0.00    +0.003 C 
ATOM     20  C   UNL     1       3.052  -7.699  -5.944  0.00  0.00    +0.022 C 
ATOM     21  C   UNL     1       1.840  -7.507  -5.035  0.00  0.00    +0.076 C 
BRANCH  21  22
ATOM     22  C   UNL     1       2.268  -7.657  -3.574  0.00  0.00    +0.019 C 
ATOM     23  C   UNL     1       2.880  -9.043  -3.362  0.00  0.00    +0.006 C 
ENDBRANCH  21  22
ENDBRANCH  13  14
ENDBRANCH   4  13
TORSDOF 5
