REMARK  Name = ZINC67129431
REMARK  8 active torsions:
REMARK  status: ('A' for Active; 'I' for Inactive)
REMARK    1  A    between atoms: C_1  and  C_2
REMARK    2  A    between atoms: C_2  and  C_3
REMARK    3  A    between atoms: C_2  and  N_4
REMARK    4  A    between atoms: N_4  and  C_5
REMARK    5  A    between atoms: C_11  and  C_13
REMARK    6  A    between atoms: C_13  and  N_14
REMARK    7  A    between atoms: C_16  and  O_24
REMARK    8  A    between atoms: C_19  and  C_21
REMARK                            x       y       z     vdW  Elec       q    Type
REMARK                         _______ _______ _______ _____ _____    ______ ____
ROOT
ATOM      1  C   UNL     1      -1.842   0.663   2.043  0.00  0.00    +0.020 C 
ENDROOT
BRANCH   1   2
ATOM      2  N   UNL     1      -2.957   0.817   2.988  0.00  0.00    +0.395 N 
ATOM      3  C   UNL     1      -3.245  -0.479   3.655  0.00  0.00    -0.045 C 
ATOM      4  C   UNL     1      -3.985  -0.056   4.949  0.00  0.00    +0.097 C 
ATOM      5  C   UNL     1      -3.245   1.238   5.362  0.00  0.00    +0.023 C 
ATOM      6  C   UNL     1      -2.583   1.753   4.070  0.00  0.00    +0.022 C 
ATOM      7  H   UNL     1      -3.778   1.151   2.507  0.00  0.00    -0.080 HD
BRANCH   6   8
ATOM      8  C   UNL     1      -3.089   3.136   3.750  0.00  0.00    +0.197 C 
ATOM      9  O   UNL     1      -3.702   3.334   2.723  0.00  0.00    -0.278 OA
ATOM     10  N   UNL     1      -2.859   4.152   4.605  0.00  0.00    -0.331 N 
ATOM     11  H   UNL     1      -2.368   3.993   5.427  0.00  0.00    +0.145 HD
ATOM     12  H   UNL     1      -3.184   5.042   4.399  0.00  0.00    +0.145 HD
ENDBRANCH   6   8
BRANCH   4  13
ATOM     13  O   UNL     1      -3.856  -1.060   5.957  0.00  0.00    -0.394 OA
ATOM     14  H   UNL     1      -4.302  -0.843   6.787  0.00  0.00    +0.210 HD
ENDBRANCH   4  13
ENDBRANCH   1   2
BRANCH   1  16
ATOM     15  N   UNL     1      -1.387  -0.570  -0.052  0.00  0.00    -0.297 N 
ATOM     16  C   UNL     1      -2.280  -0.194   0.884  0.00  0.00    +0.199 C 
ATOM     17  O   UNL     1      -3.437  -0.547   0.794  0.00  0.00    -0.278 OA
BRANCH  15  18
ATOM     18  C   UNL     1      -1.786  -1.493  -1.117  0.00  0.00    +0.076 C 
ATOM     19  C   UNL     1      -2.929  -0.876  -1.925  0.00  0.00    +0.022 C 
ATOM     20  C   UNL     1      -3.346  -1.840  -3.037  0.00  0.00    +0.002 C 
ATOM     21  C   UNL     1      -3.812  -3.160  -2.420  0.00  0.00    +0.000 C 
ATOM     22  C   UNL     1      -2.668  -3.777  -1.613  0.00  0.00    +0.002 C 
ATOM     23  C   UNL     1      -2.251  -2.813  -0.500  0.00  0.00    +0.022 C 
ENDBRANCH  15  18
BRANCH  15  25
ATOM     24  C   UNL     1       0.968  -1.226   0.025  0.00  0.00    +0.028 C 
ATOM     25  C   UNL     1      -0.016  -0.055  -0.004  0.00  0.00    +0.070 C 
ATOM     26  C   UNL     1       0.250   0.804  -1.242  0.00  0.00    +0.028 C 
ENDBRANCH  15  25
ENDBRANCH   1  16
TORSDOF 6
