REMARK  Name = ZINC22635385
REMARK  11 active torsions:
REMARK  status: ('A' for Active; 'I' for Inactive)
REMARK    1  A    between atoms: C_1  and  C_2
REMARK    2  A    between atoms: C_6  and  N_8
REMARK    3  A    between atoms: N_8  and  S_9
REMARK    4  A    between atoms: S_9  and  C_12
REMARK    5  A    between atoms: C_14  and  N_19
REMARK    6  A    between atoms: C_17  and  C_18
REMARK    7  A    between atoms: C_20  and  C_22
REMARK    8  A    between atoms: C_22  and  C_23
REMARK    9  A    between atoms: C_23  and  C_24
REMARK   10  A    between atoms: C_24  and  N_25
REMARK   11  A    between atoms: C_26  and  C_28
REMARK                            x       y       z     vdW  Elec       q    Type
REMARK                         _______ _______ _______ _____ _____    ______ ____
ROOT
ATOM      1  C   UNL     1      10.691   3.181  -0.403  0.00  0.00    +0.113 A 
ATOM      2  C   UNL     1       9.833   2.100  -0.467  0.00  0.00    +0.052 A 
ATOM      3  C   UNL     1       8.463   2.295  -0.354  0.00  0.00    +0.035 A 
ATOM      4  C   UNL     1       7.959   3.578  -0.182  0.00  0.00    +0.023 A 
ATOM      5  C   UNL     1       8.822   4.654  -0.113  0.00  0.00    +0.007 A 
ATOM      6  C   UNL     1      10.186   4.456  -0.226  0.00  0.00    -0.024 A 
ATOM      7  C   UNL     1      11.125   5.633  -0.156  0.00  0.00    +0.046 C 
ENDROOT
BRANCH   3   8
ATOM      8  N   UNL     1       7.591   1.202  -0.418  0.00  0.00    -0.285 N 
ATOM      9  C   UNL     1       6.450   1.208   0.298  0.00  0.00    +0.217 C 
ATOM     10  O   UNL     1       6.222   2.116   1.069  0.00  0.00    -0.275 OA
ATOM     11  H   UNL     1       7.838   0.339  -1.053  0.00  0.00    +0.155 HD
BRANCH   9  12
ATOM     12  C   UNL     1       5.456   0.086   0.141  0.00  0.00    +0.097 C 
BRANCH  12  13
ATOM     13  C   UNL     1       4.258   0.333   1.059  0.00  0.00    +0.028 C 
BRANCH  13  14
ATOM     14  C   UNL     1       3.249  -0.806   0.899  0.00  0.00    +0.105 C 
BRANCH  14  15
ATOM     15  N   UNL     1       2.102  -0.570   1.779  0.00  0.00    -0.311 N 
ATOM     16  C   UNL     1       1.081  -1.449   1.807  0.00  0.00    +0.245 C 
ATOM     17  O   UNL     1       1.112  -2.439   1.101  0.00  0.00    -0.270 OA
ATOM     18  H   UNL     1       2.073   0.326   2.417  0.00  0.00    +0.149 HD
BRANCH  16  19
ATOM     19  C   UNL     1      -0.075  -1.208   2.686  0.00  0.00    +0.044 A 
ATOM     20  C   UNL     1      -1.189  -2.122   2.732  0.00  0.00    +0.020 A 
ATOM     21  C   UNL     1      -2.197  -1.817   3.573  0.00  0.00    +0.046 A 
ATOM     22  S   UNL     1      -1.662  -0.284   4.305  0.00  0.00    -0.104 S 
ATOM     23  C   UNL     1      -0.142  -0.095   3.498  0.00  0.00    +0.058 A 
ENDBRANCH  16  19
ENDBRANCH  14  15
ENDBRANCH  13  14
ENDBRANCH  12  13
ENDBRANCH   9  12
ENDBRANCH   3   8
BRANCH   1  24
ATOM     24  S   UNL     1      12.430   2.934  -0.546  0.00  0.00    +0.073 S 
ATOM     25  O   UNL     1      12.629   1.538  -0.718  0.00  0.00    -0.150 OA
ATOM     26  O   UNL     1      12.899   3.891  -1.486  0.00  0.00    -0.150 OA
BRANCH  24  27
ATOM     27  N   UNL     1      13.103   3.333   0.913  0.00  0.00    -0.216 N 
ATOM     28  H   UNL     1      13.807   4.175   0.982  0.00  0.00    +0.174 HD
BRANCH  27  34
ATOM     29  C   UNL     1      11.763   3.245   5.641  0.00  0.00    +0.044 C 
ATOM     30  C   UNL     1      12.122   2.531   4.363  0.00  0.00    -0.049 A 
ATOM     31  C   UNL     1      12.130   1.149   4.322  0.00  0.00    +0.003 A 
ATOM     32  C   UNL     1      12.459   0.490   3.152  0.00  0.00    +0.002 A 
ATOM     33  C   UNL     1      12.782   1.212   2.019  0.00  0.00    +0.024 A 
ATOM     34  C   UNL     1      12.776   2.600   2.057  0.00  0.00    +0.048 A 
ATOM     35  C   UNL     1      12.449   3.259   3.236  0.00  0.00    +0.027 A 
ENDBRANCH  27  34
ENDBRANCH  24  27
ENDBRANCH   1  24
TORSDOF 9
