REMARK  Name = ZINC58247966
REMARK  8 active torsions:
REMARK  status: ('A' for Active; 'I' for Inactive)
REMARK    1  A    between atoms: C_1  and  C_2
REMARK    2  A    between atoms: C_2  and  C_3
REMARK    3  A    between atoms: C_3  and  C_4
REMARK    4  A    between atoms: C_3  and  C_5
REMARK    5  A    between atoms: C_3  and  O_22
REMARK    6  A    between atoms: C_5  and  N_6
REMARK    7  A    between atoms: N_9  and  C_10
REMARK    8  A    between atoms: C_14  and  C_21
REMARK                            x       y       z     vdW  Elec       q    Type
REMARK                         _______ _______ _______ _____ _____    ______ ____
ROOT
ATOM      1  N   UNL     1       1.166  -2.498  -2.615  0.00  0.00    -0.296 N 
ATOM      2  C   UNL     1       1.220  -3.814  -2.905  0.00  0.00    +0.304 C 
ATOM      3  O   UNL     1       0.568  -4.607  -2.254  0.00  0.00    -0.253 OA
ATOM      4  N   UNL     1       1.998  -4.249  -3.916  0.00  0.00    -0.269 N 
ATOM      5  H   UNL     1       1.686  -1.865  -3.135  0.00  0.00    +0.150 HD
ATOM      6  H   UNL     1       2.458  -3.611  -4.484  0.00  0.00    +0.156 HD
ENDROOT
BRANCH   4   7
ATOM      7  C   UNL     1       2.142  -5.618  -4.145  0.00  0.00    +0.038 A 
ATOM      8  C   UNL     1       2.301  -6.088  -5.449  0.00  0.00    +0.024 A 
ATOM      9  C   UNL     1       2.443  -7.423  -5.689  0.00  0.00    +0.013 A 
ATOM     10  C   UNL     1       2.429  -8.328  -4.621  0.00  0.00    +0.021 A 
ATOM     11  C   UNL     1       2.579  -9.767  -4.850  0.00  0.00    -0.033 A 
ATOM     12  C   UNL     1       2.557 -10.594  -3.772  0.00  0.00    +0.096 A 
ATOM     13  C   UNL     1       2.393 -10.056  -2.479  0.00  0.00    +0.337 A 
ATOM     14  O   UNL     1       2.376 -10.809  -1.521  0.00  0.00    -0.245 OA
ATOM     15  O   UNL     1       2.256  -8.736  -2.276  0.00  0.00    -0.422 OA
ATOM     16  C   UNL     1       2.269  -7.860  -3.303  0.00  0.00    +0.141 A 
ATOM     17  C   UNL     1       2.131  -6.500  -3.075  0.00  0.00    +0.070 A 
ATOM     18  C   UNL     1       2.752 -10.315  -6.242  0.00  0.00    +0.045 C 
ENDBRANCH   4   7
BRANCH   1  19
ATOM     19  C   UNL     1       0.320  -2.025  -1.516  0.00  0.00    +0.140 C 
BRANCH  19  20
ATOM     20  C   UNL     1       0.439  -0.504  -1.401  0.00  0.00    +0.078 C 
ATOM     21  C   UNL     1      -0.016   0.144  -2.710  0.00  0.00    +0.043 C 
BRANCH  20  23
ATOM     22  C   UNL     1      -0.423   1.520  -0.216  0.00  0.00    +0.007 C 
ATOM     23  C   UNL     1      -0.444  -0.009  -0.253  0.00  0.00    +0.032 C 
ENDBRANCH  20  23
BRANCH  20  24
ATOM     24  O   UNL     1       1.799  -0.150  -1.142  0.00  0.00    -0.387 OA
ATOM     25  H   UNL     1       2.155  -0.527  -0.325  0.00  0.00    +0.210 HD
ENDBRANCH  20  24
ENDBRANCH  19  20
ENDBRANCH   1  19
TORSDOF 5
