REMARK  Name = ZINC02493393
REMARK  11 active torsions:
REMARK  status: ('A' for Active; 'I' for Inactive)
REMARK    1  A    between atoms: C_1  and  C_2
REMARK    2  A    between atoms: C_2  and  C_3
REMARK    3  A    between atoms: C_3  and  O_4
REMARK    4  A    between atoms: O_4  and  C_5
REMARK    5  A    between atoms: C_8  and  C_13
REMARK    6  A    between atoms: C_10  and  O_11
REMARK    7  A    between atoms: O_11  and  C_12
REMARK    8  A    between atoms: C_20  and  C_22
REMARK    9  A    between atoms: C_22  and  O_23
REMARK   10  A    between atoms: C_25  and  N_29
REMARK   11  A    between atoms: C_26  and  C_27
REMARK                            x       y       z     vdW  Elec       q    Type
REMARK                         _______ _______ _______ _____ _____    ______ ____
ROOT
ATOM      1  C   UNL     1       3.243  -4.423  -5.653  0.00  0.00    +0.134 C 
ATOM      2  C   UNL     1       4.690  -4.006  -5.704  0.00  0.00    +0.164 A 
ATOM      3  C   UNL     1       5.109  -3.087  -6.598  0.00  0.00    +0.215 A 
ATOM      4  C   UNL     1       6.484  -2.716  -6.616  0.00  0.00    +0.228 A 
ATOM      5  O   UNL     1       6.899  -1.888  -7.413  0.00  0.00    -0.284 OA
ATOM      6  C   UNL     1       7.357  -3.331  -5.685  0.00  0.00    +0.098 A 
ATOM      7  C   UNL     1       6.856  -4.241  -4.826  0.00  0.00    +0.134 A 
ATOM      8  O   UNL     1       5.559  -4.564  -4.844  0.00  0.00    -0.457 OA
ATOM      9  O   UNL     1       4.255  -2.509  -7.477  0.00  0.00    -0.434 OA
ATOM     10  C   UNL     1       3.078  -3.097  -7.753  0.00  0.00    +0.199 C 
ATOM     11  C   UNL     1       2.543  -4.019  -6.920  0.00  0.00    +0.101 C 
ENDROOT
BRANCH   1  15
ATOM     12  C   UNL     1       1.342  -2.530  -2.323  0.00  0.00    +0.162 A 
ATOM     13  C   UNL     1       1.908  -1.763  -3.329  0.00  0.00    +0.050 A 
ATOM     14  C   UNL     1       2.522  -2.378  -4.404  0.00  0.00    +0.008 A 
ATOM     15  C   UNL     1       2.573  -3.758  -4.479  0.00  0.00    -0.028 A 
ATOM     16  C   UNL     1       2.009  -4.529  -3.479  0.00  0.00    +0.054 A 
ATOM     17  C   UNL     1       1.397  -3.918  -2.396  0.00  0.00    +0.162 A 
BRANCH  17  18
ATOM     18  O   UNL     1       0.847  -4.675  -1.408  0.00  0.00    -0.491 OA
ATOM     19  C   UNL     1       0.942  -6.094  -1.549  0.00  0.00    +0.277 C 
ENDBRANCH  17  18
BRANCH  12  20
ATOM     20  O   UNL     1       0.738  -1.926  -1.265  0.00  0.00    -0.488 OA
BRANCH  20  21
ATOM     21  C   UNL     1       0.718  -0.497  -1.257  0.00  0.00    +0.229 C 
BRANCH  21  23
ATOM     22  C   UNL     1      -0.019   1.526   0.010  0.00  0.00    +0.007 C 
ATOM     23  C   UNL     1       0.002  -0.004   0.002  0.00  0.00    +0.038 C 
ENDBRANCH  21  23
ENDBRANCH  20  21
ENDBRANCH  12  20
ENDBRANCH   1  15
BRANCH  10  24
ATOM     24  N   UNL     1       2.406  -2.754  -8.900  0.00  0.00    -0.328 N 
ATOM     25  H   UNL     1       2.782  -2.093  -9.502  0.00  0.00    +0.145 HD
ATOM     26  H   UNL     1       1.556  -3.172  -9.108  0.00  0.00    +0.145 HD
ENDBRANCH  10  24
BRANCH  11  27
ATOM     27  C   UNL     1       1.287  -4.620  -7.254  0.00  0.00    +0.101 C 
ATOM     28  N   UNL     1       0.290  -5.096  -7.520  0.00  0.00    -0.191 NA
ENDBRANCH  11  27
BRANCH   7  29
ATOM     29  C   UNL     1       7.772  -4.904  -3.830  0.00  0.00    +0.230 C 
BRANCH  29  30
ATOM     30  O   UNL     1       9.100  -4.405  -3.998  0.00  0.00    -0.387 OA
ATOM     31  H   UNL     1       9.745  -4.789  -3.389  0.00  0.00    +0.210 HD
ENDBRANCH  29  30
ENDBRANCH   7  29
TORSDOF 9
