REMARK  Name = ZINC00781158
REMARK  5 active torsions:
REMARK  status: ('A' for Active; 'I' for Inactive)
REMARK    1  A    between atoms: C_1  and  C_2
REMARK    2  A    between atoms: C_6  and  C_13
REMARK    3  A    between atoms: C_9  and  O_11
REMARK    4  A    between atoms: O_11  and  C_12
REMARK    5  A    between atoms: C_25  and  C_28
REMARK                            x       y       z     vdW  Elec       q    Type
REMARK                         _______ _______ _______ _____ _____    ______ ____
ROOT
ATOM      1  C   UNL     1       0.016   1.503   0.007  0.00  0.00    +0.066 C 
ATOM      2  C   UNL     1       0.018  -0.004   0.001  0.00  0.00    +0.049 C 
ATOM      3  N   UNL     1      -0.078  -0.634  -1.147  0.00  0.00    -0.256 NA
ATOM      4  C   UNL     1      -0.089  -1.952  -1.310  0.00  0.00    +0.050 C 
ATOM      5  C   UNL     1       0.007  -2.807  -0.233  0.00  0.00    +0.028 C 
ATOM      6  C   UNL     1       0.122  -2.201   1.153  0.00  0.00    +0.093 C 
ATOM      7  C   UNL     1       0.129  -0.684   1.212  0.00  0.00    +0.069 C 
ATOM      8  C   UNL     1       0.236  -0.010   2.411  0.00  0.00    +0.338 C 
ATOM      9  O   UNL     1       0.458  -0.693   3.551  0.00  0.00    -0.245 OA
ATOM     10  C   UNL     1       0.005  -4.188  -0.385  0.00  0.00    +0.162 C 
ATOM     11  O   UNL     1       0.087  -4.901   0.596  0.00  0.00    -0.292 OA
ATOM     12  C   UNL     1      -0.100  -4.812  -1.753  0.00  0.00    +0.088 C 
ATOM     13  C   UNL     1       0.513  -3.859  -2.783  0.00  0.00    +0.039 C 
ATOM     14  C   UNL     1      -0.212  -2.513  -2.707  0.00  0.00    +0.065 C 
ENDROOT
BRANCH   6  15
ATOM     15  C   UNL     1       1.401  -2.695   1.778  0.00  0.00    -0.031 A 
ATOM     16  C   UNL     1       2.615  -2.420   1.176  0.00  0.00    +0.008 A 
ATOM     17  C   UNL     1       3.791  -2.870   1.746  0.00  0.00    +0.050 A 
ATOM     18  C   UNL     1       3.756  -3.599   2.924  0.00  0.00    +0.166 A 
ATOM     19  C   UNL     1       2.533  -3.876   3.530  0.00  0.00    +0.167 A 
ATOM     20  C   UNL     1       1.359  -3.417   2.956  0.00  0.00    +0.054 A 
ATOM     21  O   UNL     1       2.763  -4.600   4.665  0.00  0.00    -0.453 OA
ATOM     22  C   UNL     1       4.102  -5.112   4.529  0.00  0.00    +0.466 C 
ATOM     23  O   UNL     1       4.752  -4.149   3.678  0.00  0.00    -0.453 OA
ENDBRANCH   6  15
BRANCH  13  24
ATOM     24  C   UNL     1       0.357  -4.441  -4.165  0.00  0.00    -0.006 A 
ATOM     25  C   UNL     1       1.316  -4.778  -5.062  0.00  0.00    +0.011 A 
ATOM     26  C   UNL     1       0.936  -5.303  -6.283  0.00  0.00    +0.008 A 
ATOM     27  C   UNL     1      -0.384  -5.465  -6.547  0.00  0.00    +0.045 A 
ATOM     28  S   UNL     1      -1.137  -4.873  -5.040  0.00  0.00    -0.101 S 
ENDBRANCH  13  24
BRANCH   8  29
ATOM     29  O   UNL     1       0.117   1.332   2.442  0.00  0.00    -0.465 OA
ATOM     30  C   UNL     1       0.239   1.965   3.717  0.00  0.00    +0.280 C 
ENDBRANCH   8  29
TORSDOF 3
