REMARK  Name = ZINC39969909
REMARK  2 active torsions:
REMARK  status: ('A' for Active; 'I' for Inactive)
REMARK    1  A    between atoms: C_1  and  C_2
REMARK    2  A    between atoms: C_7  and  C_8
REMARK                            x       y       z     vdW  Elec       q    Type
REMARK                         _______ _______ _______ _____ _____    ______ ____
ROOT
ATOM      1  C   UNL     1       0.243   0.050   2.491  0.00  0.00    +0.047 C 
ATOM      2  C   UNL     1       1.615  -0.214   3.119  0.00  0.00    +0.105 C 
ATOM      3  C   UNL     1       1.699  -1.613   3.654  0.00  0.00    +0.219 C 
ATOM      4  O   UNL     1       2.799  -2.088   3.844  0.00  0.00    -0.275 OA
ATOM      5  N   UNL     1       0.627  -2.366   3.935  0.00  0.00    -0.273 N 
ATOM      6  C   UNL     1      -0.635  -1.917   3.670  0.00  0.00    +0.117 C 
ATOM      7  N   UNL     1      -1.635  -2.748   3.590  0.00  0.00    -0.205 NA
ATOM      8  C   UNL     1      -2.860  -2.358   3.219  0.00  0.00    +0.206 C 
ATOM      9  N   UNL     1      -3.126  -1.109   2.869  0.00  0.00    -0.147 NA
ATOM     10  C   UNL     1      -2.207  -0.155   2.939  0.00  0.00    +0.250 C 
ATOM     11  O   UNL     1      -2.485   0.970   2.569  0.00  0.00    -0.273 OA
ATOM     12  C   UNL     1      -0.834  -0.436   3.464  0.00  0.00    +0.148 C 
ATOM     13  N   UNL     1      -3.870  -3.279   3.201  0.00  0.00    -0.329 N 
ATOM     14  H   UNL     1       0.749  -3.243   4.332  0.00  0.00    +0.156 HD
ATOM     15  H   UNL     1      -3.693  -4.199   3.454  0.00  0.00    +0.145 HD
ATOM     16  H   UNL     1      -4.764  -3.013   2.935  0.00  0.00    +0.145 HD
ENDROOT
BRANCH   1  23
ATOM     17  C   UNL     1      -0.546   1.445   0.087  0.00  0.00    +0.044 C 
ATOM     18  C   UNL     1      -0.251  -0.032   0.039  0.00  0.00    -0.047 A 
ATOM     19  C   UNL     1      -0.351  -0.718  -1.157  0.00  0.00    +0.003 A 
ATOM     20  C   UNL     1      -0.080  -2.072  -1.202  0.00  0.00    +0.000 A 
ATOM     21  C   UNL     1       0.293  -2.741  -0.050  0.00  0.00    +0.000 A 
ATOM     22  C   UNL     1       0.394  -2.055   1.145  0.00  0.00    +0.004 A 
ATOM     23  C   UNL     1       0.127  -0.699   1.189  0.00  0.00    -0.040 A 
ENDBRANCH   1  23
TORSDOF 1
