REMARK  Name = ZINC64391282
REMARK  3 active torsions:
REMARK  status: ('A' for Active; 'I' for Inactive)
REMARK    1  A    between atoms: C_4  and  C_7
REMARK    2  A    between atoms: C_11  and  C_13
REMARK    3  A    between atoms: C_16  and  C_19
REMARK                            x       y       z     vdW  Elec       q    Type
REMARK                         _______ _______ _______ _____ _____    ______ ____
ROOT
ATOM      1  C   UNL     1       3.374  -2.715   1.387  0.00  0.00    +0.306 C 
ATOM      2  N   UNL     1       3.760  -4.124   1.562  0.00  0.00    -0.289 N 
ATOM      3  C   UNL     1       2.587  -4.852   1.645  0.00  0.00    +0.168 C 
ATOM      4  N   UNL     1       1.552  -4.085   1.544  0.00  0.00    -0.067 NA
ATOM      5  O   UNL     1       1.938  -2.730   1.382  0.00  0.00    -0.368 OA
ATOM      6  H   UNL     1       4.663  -4.475   1.610  0.00  0.00    +0.151 HD
ENDROOT
BRANCH   3   7
ATOM      7  C   UNL     1       2.525  -6.321   1.825  0.00  0.00    +0.019 A 
ATOM      8  C   UNL     1       3.701  -7.064   1.928  0.00  0.00    +0.011 A 
ATOM      9  C   UNL     1       3.637  -8.432   2.096  0.00  0.00    +0.002 A 
ATOM     10  C   UNL     1       2.410  -9.068   2.161  0.00  0.00    +0.020 A 
ATOM     11  C   UNL     1       1.240  -8.336   2.058  0.00  0.00    +0.042 A 
ATOM     12  C   UNL     1       1.291  -6.965   1.897  0.00  0.00    +0.031 A 
ATOM     13 CL   UNL     1      -0.296  -9.143   2.139  0.00  0.00    -0.084 Cl
ENDBRANCH   3   7
BRANCH   1  18
ATOM     14  C   UNL     1       3.528  -0.720  -0.120  0.00  0.00    +0.084 C 
ATOM     15  N   UNL     1       4.655  -0.066  -0.188  0.00  0.00    -0.153 NA
ATOM     16  N   UNL     1       5.758  -0.907  -0.083  0.00  0.00    -0.161 NA
ATOM     17  C   UNL     1       5.422  -2.148   0.059  0.00  0.00    +0.123 C 
ATOM     18  C   UNL     1       3.907  -2.177   0.057  0.00  0.00    +0.145 C 
BRANCH  14  22
ATOM     19  C   UNL     1      -0.387   0.898  -0.331  0.00  0.00    +0.000 A 
ATOM     20  C   UNL     1      -0.177  -0.437  -0.628  0.00  0.00    +0.001 A 
ATOM     21  C   UNL     1       1.093  -0.970  -0.562  0.00  0.00    +0.010 A 
ATOM     22  C   UNL     1       2.170  -0.158  -0.193  0.00  0.00    -0.001 A 
ATOM     23  C   UNL     1       1.950   1.190   0.105  0.00  0.00    +0.010 A 
ATOM     24  C   UNL     1       0.674   1.708   0.035  0.00  0.00    +0.001 A 
ENDBRANCH  14  22
ENDBRANCH   1  18
TORSDOF 3
