REMARK  Name = ZINC02117354
REMARK  9 active torsions:
REMARK  status: ('A' for Active; 'I' for Inactive)
REMARK    1  A    between atoms: C_1  and  C_2
REMARK    2  A    between atoms: C_2  and  CA_3
REMARK    3  A    between atoms: CA_3  and  C_5
REMARK    4  A    between atoms: CA_3  and  N_7
REMARK    5  A    between atoms: C_8  and  C_10
REMARK    6  A    between atoms: C_10  and  C_11
REMARK    7  A    between atoms: C_12  and  C_33
REMARK    8  A    between atoms: C_16  and  C_26
REMARK    9  A    between atoms: C_20  and  C_25
REMARK                            x       y       z     vdW  Elec       q    Type
REMARK                         _______ _______ _______ _____ _____    ______ ____
ROOT
ATOM      1  C   UNL     1      -0.724   1.989   1.250  0.00  0.00    +0.049 A 
ATOM      2  C   UNL     1      -2.064   2.203   1.231  0.00  0.00    -0.029 A 
ATOM      3  C   UNL     1      -2.709   2.670   2.462  0.00  0.00    +0.022 A 
ATOM      4  C   UNL     1      -4.084   2.904   2.504  0.00  0.00    +0.024 A 
ATOM      5  C   UNL     1      -4.661   3.350   3.682  0.00  0.00    +0.029 A 
ATOM      6  C   UNL     1      -6.040   3.691   4.083  0.00  0.00    +0.028 A 
ATOM      7  C   UNL     1      -5.965   4.070   5.378  0.00  0.00    +0.204 A 
ATOM      8  O   UNL     1      -4.694   3.997   5.808  0.00  0.00    -0.462 OA
ATOM      9  C   UNL     1      -3.871   3.570   4.827  0.00  0.00    +0.142 A 
ATOM     10  C   UNL     1      -2.504   3.337   4.779  0.00  0.00    +0.035 A 
ATOM     11  C   UNL     1      -1.917   2.890   3.608  0.00  0.00    +0.146 A 
ATOM     12  O   UNL     1      -0.585   2.661   3.555  0.00  0.00    -0.422 OA
ATOM     13  C   UNL     1       0.008   2.228   2.433  0.00  0.00    +0.341 A 
ATOM     14  O   UNL     1       1.211   2.037   2.434  0.00  0.00    -0.245 OA
ATOM     15  C   UNL     1      -1.657   3.571   6.003  0.00  0.00    +0.051 C 
ATOM     16  C   UNL     1      -2.868   1.962  -0.020  0.00  0.00    +0.045 C 
ENDROOT
BRANCH   6  17
ATOM     17  C   UNL     1      -7.257   3.631   3.238  0.00  0.00    -0.014 A 
ATOM     18  C   UNL     1      -7.266   4.234   1.981  0.00  0.00    +0.010 A 
ATOM     19  C   UNL     1      -8.400   4.171   1.197  0.00  0.00    +0.020 A 
ATOM     20  C   UNL     1      -9.530   3.520   1.661  0.00  0.00    +0.041 A 
ATOM     21  C   UNL     1      -9.527   2.924   2.911  0.00  0.00    +0.020 A 
ATOM     22  C   UNL     1      -8.397   2.977   3.701  0.00  0.00    +0.010 A 
ATOM     23 CL   UNL     1     -10.955   3.450   0.672  0.00  0.00    -0.084 Cl
ENDBRANCH   6  17
BRANCH   1  24
ATOM     24  C   UNL     1      -0.018   1.503   0.010  0.00  0.00    +0.138 C 
BRANCH  24  26
ATOM     25  N   UNL     1       0.585  -0.664  -1.018  0.00  0.00    -0.302 N 
ATOM     26  C   UNL     1       0.002  -0.004   0.002  0.00  0.00    +0.218 C 
ATOM     27  O   UNL     1      -0.506  -0.622   0.913  0.00  0.00    -0.275 OA
ATOM     28  H   UNL     1       0.992  -0.170  -1.747  0.00  0.00    +0.150 HD
BRANCH  25  29
ATOM     29  CA  UNL     1       0.605  -2.129  -1.026  0.00  0.00    +0.186 C 
BRANCH  29  30
ATOM     30  C   UNL     1       1.783  -2.620  -0.225  0.00  0.00    +0.376 C 
ATOM     31  O   UNL     1       2.530  -1.828   0.299  0.00  0.00    -0.244 OA
ATOM     32  OXT UNL     1       2.003  -3.938  -0.093  0.00  0.00    -0.244 OA
ENDBRANCH  29  30
BRANCH  29  34
ATOM     33  C   UNL     1      -0.532  -2.238  -3.248  0.00  0.00    +0.006 C 
ATOM     34  C   UNL     1       0.724  -2.630  -2.467  0.00  0.00    +0.030 C 
ENDBRANCH  29  34
ENDBRANCH  25  29
ENDBRANCH  24  26
ENDBRANCH   1  24
TORSDOF 6
