REMARK  Name = ZINC27360077
REMARK  6 active torsions:
REMARK  status: ('A' for Active; 'I' for Inactive)
REMARK    1  A    between atoms: C_1  and  N_2
REMARK    2  A    between atoms: N_2  and  C_3
REMARK    3  A    between atoms: N_2  and  C_10
REMARK    4  A    between atoms: C_3  and  C_4
REMARK    5  A    between atoms: C_10  and  C_11
REMARK    6  A    between atoms: C_19  and  N_21
REMARK                            x       y       z     vdW  Elec       q    Type
REMARK                         _______ _______ _______ _____ _____    ______ ____
ROOT
ATOM      1  C   UNL     1      -1.073  -2.041   0.001  0.00  0.00    +0.115 A 
ATOM      2  N   UNL     1      -1.126  -0.730   0.008  0.00  0.00    -0.234 NA
ATOM      3  C   UNL     1       0.002  -0.004   0.002  0.00  0.00    +0.076 A 
ATOM      4  C   UNL     1      -0.017   1.397   0.010  0.00  0.00    +0.028 A 
ATOM      5  C   UNL     1       1.159   2.086   0.002  0.00  0.00    +0.002 A 
ATOM      6  C   UNL     1       2.381   1.420  -0.011  0.00  0.00    +0.001 A 
ATOM      7  C   UNL     1       2.436   0.057  -0.020  0.00  0.00    +0.013 A 
ATOM      8  C   UNL     1       1.246  -0.680  -0.013  0.00  0.00    +0.040 A 
ATOM      9  C   UNL     1       1.238  -2.096  -0.021  0.00  0.00    +0.127 A 
ATOM     10  N   UNL     1       0.065  -2.716  -0.013  0.00  0.00    -0.219 NA
ENDROOT
BRANCH   9  11
ATOM     11  N   UNL     1       2.417  -2.811  -0.035  0.00  0.00    -0.343 N 
ATOM     12  H   UNL     1       2.393  -3.911  -0.040  0.00  0.00    +0.144 HD
ATOM     13  H   UNL     1       3.381  -2.282  -0.040  0.00  0.00    +0.144 HD
ENDBRANCH   9  11
BRANCH   1  14
ATOM     14  C   UNL     1      -2.367  -2.813   0.008  0.00  0.00    -0.001 C 
BRANCH  14  16
ATOM     15  C   UNL     1      -1.865  -3.949  -2.070  0.00  0.00    -0.095 C 
ATOM     16  N   UNL     1      -2.800  -3.056  -1.374  0.00  0.00    +0.386 N 
ATOM     17  H   UNL     1      -2.802  -2.091  -1.903  0.00  0.00    -0.081 HD
BRANCH  16  18
ATOM     18  C   UNL     1      -4.167  -3.593  -1.411  0.00  0.00    -0.035 C 
BRANCH  18  19
ATOM     19  C   UNL     1      -4.667  -3.599  -2.833  0.00  0.00    -0.026 A 
ATOM     20  C   UNL     1      -4.564  -4.573  -3.769  0.00  0.00    +0.010 A 
ATOM     21  C   UNL     1      -5.104  -4.357  -5.024  0.00  0.00    +0.023 A 
ATOM     22  C   UNL     1      -5.719  -3.176  -5.279  0.00  0.00    +0.055 A 
ATOM     23  S   UNL     1      -5.554  -2.328  -3.717  0.00  0.00    -0.088 S 
ATOM     24 BR   UNL     1      -6.546  -2.585  -6.874  0.00  0.00    -0.043 Br
ENDBRANCH  18  19
ENDBRANCH  16  18
ENDBRANCH  14  16
ENDBRANCH   1  14
TORSDOF 5
