REMARK  Name = ZINC16957683
REMARK  11 active torsions:
REMARK  status: ('A' for Active; 'I' for Inactive)
REMARK    1  A    between atoms: C_7  and  C_28
REMARK    2  A    between atoms: N_9  and  C_10
REMARK    3  A    between atoms: C_10  and  C_11
REMARK    4  A    between atoms: C_11  and  C_13
REMARK    5  A    between atoms: C_11  and  O_27
REMARK    6  A    between atoms: C_13  and  N_60
REMARK    7  A    between atoms: C_14  and  C_15
REMARK    8  A    between atoms: C_14  and  N_60
REMARK    9  A    between atoms: C_15  and  C_16
REMARK   10  A    between atoms: C_29  and  C_30
REMARK   11  A    between atoms: C_30  and  C_32
REMARK                            x       y       z     vdW  Elec       q    Type
REMARK                         _______ _______ _______ _____ _____    ______ ____
ROOT
ATOM      1  C   UNL     1       4.056   3.606  -1.455  0.00  0.00    +0.117 C 
ENDROOT
BRANCH   1   2
ATOM      2  O   UNL     1       3.911   4.822  -2.191  0.00  0.00    -0.392 OA
ATOM      3  H   UNL     1       4.426   5.560  -1.836  0.00  0.00    +0.210 HD
ENDBRANCH   1   2
BRANCH   1   4
ATOM      4  C   UNL     1       3.596   3.824  -0.013  0.00  0.00    +0.151 C 
BRANCH   4  13
ATOM      5  C   UNL     1      -1.227   1.746   0.017  0.00  0.00    +0.001 A 
ATOM      6  C   UNL     1      -0.013   1.076   0.008  0.00  0.00    +0.002 A 
ATOM      7  C   UNL     1       1.175   1.774   0.000  0.00  0.00    +0.026 A 
ATOM      8  C   UNL     1       1.162   3.166   0.008  0.00  0.00    +0.050 A 
ATOM      9  C   UNL     1      -0.068   3.842   0.023  0.00  0.00    +0.007 A 
ATOM     10  C   UNL     1      -1.260   3.124   0.031  0.00  0.00    +0.010 A 
ATOM     11  C   UNL     1       0.262   5.280   0.027  0.00  0.00    +0.000 A 
ATOM     12  C   UNL     1       1.626   5.364   0.014  0.00  0.00    +0.094 A 
ATOM     13  N   UNL     1       2.161   4.118   0.003  0.00  0.00    -0.344 N 
BRANCH  11  14
ATOM     14  C   UNL     1      -0.685   6.396   0.041  0.00  0.00    +0.014 C 
ATOM     15  C   UNL     1      -0.229   7.672   0.043  0.00  0.00    +0.052 C 
BRANCH  15  16
ATOM     16  C   UNL     1      -1.145   8.752   0.057  0.00  0.00    +0.193 C 
ATOM     17  O   UNL     1      -2.345   8.534   0.067  0.00  0.00    -0.287 OA
BRANCH  16  18
ATOM     18  C   UNL     1      -0.650  10.134   0.059  0.00  0.00    +0.059 A 
ATOM     19  C   UNL     1      -1.369  11.319   0.071  0.00  0.00    +0.019 A 
ATOM     20  C   UNL     1      -0.648  12.488   0.070  0.00  0.00    +0.008 A 
ATOM     21  C   UNL     1       0.710  12.430   0.057  0.00  0.00    +0.046 A 
ATOM     22  S   UNL     1       1.033  10.726   0.054  0.00  0.00    -0.093 S 
ENDBRANCH  16  18
ENDBRANCH  15  16
ENDBRANCH  11  14
ENDBRANCH   4  13
ENDBRANCH   1   4
BRANCH   1  23
ATOM     23  C   UNL     1       5.525   3.177  -1.463  0.00  0.00    -0.049 C 
BRANCH  23  24
ATOM     24  N   UNL     1       5.960   2.969  -2.857  0.00  0.00    +0.381 N 
ATOM     25  H   UNL     1       5.850   3.845  -3.380  0.00  0.00    -0.086 HD
ATOM     26  H   UNL     1       5.382   2.238  -3.287  0.00  0.00    -0.086 HD
BRANCH  24  27
ATOM     27  C   UNL     1       7.376   2.554  -2.894  0.00  0.00    -0.078 C 
BRANCH  27  28
ATOM     28  C   UNL     1       7.798   2.346  -4.350  0.00  0.00    +0.018 C 
BRANCH  28  29
ATOM     29  C   UNL     1       9.244   1.922  -4.397  0.00  0.00    -0.024 A 
ATOM     30  C   UNL     1      10.306   2.723  -4.576  0.00  0.00    +0.087 A 
ATOM     31  N   UNL     1      11.457   1.984  -4.561  0.00  0.00    -0.360 N 
ATOM     32  H   UNL     1      12.351   2.342  -4.670  0.00  0.00    +0.165 HD
ATOM     33  C   UNL     1      11.155   0.653  -4.367  0.00  0.00    +0.047 A 
ATOM     34  C   UNL     1       9.757   0.557  -4.251  0.00  0.00    +0.005 A 
ATOM     35  C   UNL     1       9.157  -0.688  -4.051  0.00  0.00    +0.048 A 
ATOM     36  C   UNL     1       9.943  -1.816  -3.961  0.00  0.00    +0.124 A 
ATOM     37  C   UNL     1      11.325  -1.719  -4.071  0.00  0.00    +0.040 A 
ATOM     38  C   UNL     1      11.930  -0.498  -4.272  0.00  0.00    +0.029 A 
ATOM     39  F   UNL     1       9.367  -3.022  -3.764  0.00  0.00    -0.205 F 
ENDBRANCH  28  29
ENDBRANCH  27  28
ENDBRANCH  24  27
ENDBRANCH  23  24
ENDBRANCH   1  23
TORSDOF 11
