REMARK  Name = ZINC36991672
REMARK  9 active torsions:
REMARK  status: ('A' for Active; 'I' for Inactive)
REMARK    1  A    between atoms: C_1  and  C_2
REMARK    2  A    between atoms: C_2  and  C_3
REMARK    3  A    between atoms: C_3  and  C_5
REMARK    4  A    between atoms: C_3  and  N_12
REMARK    5  A    between atoms: N_12  and  C_13
REMARK    6  A    between atoms: C_13  and  C_15
REMARK    7  A    between atoms: C_13  and  C_16
REMARK    8  A    between atoms: C_18  and  O_23
REMARK    9  A    between atoms: C_21  and  O_22
REMARK                            x       y       z     vdW  Elec       q    Type
REMARK                         _______ _______ _______ _____ _____    ______ ____
ROOT
ATOM      1  N   UNL     1       2.171  -0.304  -1.095  0.00  0.00    +0.388 N 
ATOM      2  H   UNL     1       2.469  -0.691  -0.212  0.00  0.00    -0.084 HD
ATOM      3  H   UNL     1       2.716  -0.710  -1.840  0.00  0.00    -0.084 HD
ENDROOT
BRANCH   1   4
ATOM      4  C   UNL     1       2.365   1.152  -1.083  0.00  0.00    -0.040 C 
ATOM      5  C   UNL     1       2.041   1.721  -2.466  0.00  0.00    -0.009 C 
BRANCH   4   6
ATOM      6  C   UNL     1       3.797   1.465  -0.734  0.00  0.00    -0.017 A 
ATOM      7  C   UNL     1       4.789   0.538  -0.990  0.00  0.00    +0.051 A 
ATOM      8  C   UNL     1       6.107   0.827  -0.669  0.00  0.00    +0.117 A 
ATOM      9  C   UNL     1       6.429   2.046  -0.091  0.00  0.00    +0.049 A 
ATOM     10  C   UNL     1       5.437   2.972   0.165  0.00  0.00    +0.049 A 
ATOM     11  C   UNL     1       4.120   2.686  -0.161  0.00  0.00    +0.119 A 
BRANCH  11  12
ATOM     12  O   UNL     1       3.144   3.600   0.086  0.00  0.00    -0.507 OA
ATOM     13  H   UNL     1       2.741   3.519   0.962  0.00  0.00    +0.292 HD
ENDBRANCH  11  12
BRANCH   8  14
ATOM     14  O   UNL     1       7.083  -0.086  -0.920  0.00  0.00    -0.507 OA
ATOM     15  H   UNL     1       7.485  -0.001  -1.796  0.00  0.00    +0.292 HD
ENDBRANCH   8  14
ENDBRANCH   4   6
ENDBRANCH   1   4
BRANCH   1  16
ATOM     16  C   UNL     1       0.749  -0.607  -1.308  0.00  0.00    -0.040 C 
BRANCH  16  17
ATOM     17  C   UNL     1       0.571  -2.095  -1.467  0.00  0.00    -0.061 A 
ATOM     18  C   UNL     1       1.290  -2.967  -0.670  0.00  0.00    +0.003 A 
ATOM     19  C   UNL     1       1.126  -4.331  -0.815  0.00  0.00    +0.015 A 
ATOM     20  C   UNL     1       0.244  -4.825  -1.759  0.00  0.00    +0.018 A 
ATOM     21  C   UNL     1      -0.475  -3.953  -2.557  0.00  0.00    +0.015 A 
ATOM     22  C   UNL     1      -0.315  -2.588  -2.407  0.00  0.00    +0.003 A 
ATOM     23 BR   UNL     1       0.020  -6.692  -1.959  0.00  0.00    -0.050 Br
ENDBRANCH  16  17
BRANCH  16  25
ATOM     24  C   UNL     1      -1.552  -0.337  -0.373  0.00  0.00    +0.002 C 
ATOM     25  C   UNL     1      -0.061  -0.123  -0.103  0.00  0.00    -0.015 C 
ENDBRANCH  16  25
ENDBRANCH   1  16
TORSDOF 7
