REMARK  Name = ZINC39558959
REMARK  9 active torsions:
REMARK  status: ('A' for Active; 'I' for Inactive)
REMARK    1  A    between atoms: C_1  and  C_2
REMARK    2  A    between atoms: C_2  and  C_3
REMARK    3  A    between atoms: C_3  and  N_4
REMARK    4  A    between atoms: N_11  and  C_14
REMARK    5  A    between atoms: C_14  and  C_15
REMARK    6  A    between atoms: C_15  and  C_16
REMARK    7  A    between atoms: N_18  and  C_19
REMARK    8  A    between atoms: C_19  and  C_20
REMARK    9  A    between atoms: N_22  and  C_23
REMARK                            x       y       z     vdW  Elec       q    Type
REMARK                         _______ _______ _______ _____ _____    ______ ____
ROOT
ATOM      1  C   UNL     1       0.107  -6.812   2.842  0.00  0.00    +0.215 C 
ATOM      2  O   UNL     1      -0.935  -7.301   3.225  0.00  0.00    -0.276 OA
ATOM      3  N   UNL     1       1.283  -7.333   3.244  0.00  0.00    -0.307 N 
ATOM      4  H   UNL     1       2.117  -6.943   2.937  0.00  0.00    +0.149 HD
ENDROOT
BRANCH   1   5
ATOM      5  C   UNL     1       0.086  -5.623   1.916  0.00  0.00    +0.117 C 
BRANCH   5   6
ATOM      6  C   UNL     1      -1.363  -5.234   1.618  0.00  0.00    +0.136 C 
BRANCH   6  14
ATOM      7  N   UNL     1      -1.409  -1.995   0.006  0.00  0.00    -0.292 N 
ATOM      8  C   UNL     1      -1.414  -2.808  -1.125  0.00  0.00    +0.070 A 
ATOM      9  C   UNL     1      -1.430  -2.543  -2.486  0.00  0.00    +0.028 A 
ATOM     10  C   UNL     1      -1.430  -3.588  -3.389  0.00  0.00    +0.002 A 
ATOM     11  C   UNL     1      -1.414  -4.898  -2.942  0.00  0.00    +0.002 A 
ATOM     12  C   UNL     1      -1.398  -5.171  -1.588  0.00  0.00    +0.028 A 
ATOM     13  C   UNL     1      -1.397  -4.129  -0.674  0.00  0.00    +0.070 A 
ATOM     14  N   UNL     1      -1.383  -4.078   0.718  0.00  0.00    -0.292 N 
ATOM     15  C   UNL     1      -1.385  -2.786   1.096  0.00  0.00    +0.330 A 
ATOM     16  O   UNL     1      -1.371  -2.392   2.247  0.00  0.00    -0.246 OA
BRANCH   7  17
ATOM     17  C   UNL     1      -1.423  -0.530   0.010  0.00  0.00    +0.127 C 
BRANCH  17  19
ATOM     18  C   UNL     1       0.001   1.523  -0.007  0.00  0.00    +0.005 C 
ATOM     19  C   UNL     1       0.015  -0.007  -0.011  0.00  0.00    +0.018 C 
ENDBRANCH  17  19
ENDBRANCH   7  17
ENDBRANCH   6  14
ENDBRANCH   5   6
ENDBRANCH   1   5
BRANCH   3  20
ATOM     20  C   UNL     1       1.303  -8.489   4.143  0.00  0.00    +0.200 C 
BRANCH  20  21
ATOM     21  C   UNL     1       2.731  -8.873   4.437  0.00  0.00    +0.234 C 
ATOM     22  O   UNL     1       3.642  -8.242   3.944  0.00  0.00    -0.274 OA
ATOM     23  N   UNL     1       2.995  -9.916   5.248  0.00  0.00    -0.284 N 
ATOM     24  H   UNL     1       2.269 -10.378   5.696  0.00  0.00    +0.155 HD
BRANCH  23  25
ATOM     25  C   UNL     1       4.318 -10.333   5.445  0.00  0.00    +0.036 A 
ATOM     26  C   UNL     1       4.603 -11.684   5.604  0.00  0.00    +0.025 A 
ATOM     27  C   UNL     1       5.905 -12.101   5.798  0.00  0.00    +0.029 A 
ATOM     28  C   UNL     1       6.932 -11.170   5.835  0.00  0.00    +0.067 A 
ATOM     29  C   UNL     1       6.649  -9.812   5.676  0.00  0.00    +0.069 A 
ATOM     30  C   UNL     1       5.341  -9.397   5.475  0.00  0.00    +0.051 A 
ATOM     31  N   UNL     1       7.863  -9.135   5.758  0.00  0.00    -0.306 N 
ATOM     32  H   UNL     1       7.984  -8.175   5.684  0.00  0.00    +0.170 HD
ATOM     33  C   UNL     1       8.841 -10.038   5.958  0.00  0.00    +0.325 A 
ATOM     34  O   UNL     1      10.023  -9.777   6.075  0.00  0.00    -0.247 OA
ATOM     35  N   UNL     1       8.311 -11.275   6.009  0.00  0.00    -0.306 N 
ATOM     36  H   UNL     1       8.805 -12.099   6.144  0.00  0.00    +0.170 HD
ENDBRANCH  23  25
ENDBRANCH  20  21
ENDBRANCH   3  20
TORSDOF 8
