REMARK  Name = ZINC42918609
REMARK  5 active torsions:
REMARK  status: ('A' for Active; 'I' for Inactive)
REMARK    1  A    between atoms: C_9  and  C_12
REMARK    2  A    between atoms: N_14  and  C_15
REMARK    3  A    between atoms: C_17  and  N_25
REMARK    4  A    between atoms: C_20  and  O_21
REMARK    5  A    between atoms: O_21  and  C_22
REMARK                            x       y       z     vdW  Elec       q    Type
REMARK                         _______ _______ _______ _____ _____    ______ ____
ROOT
ATOM      1  C   UNL     1       4.902  -2.637  -0.065  0.00  0.00    +0.261 C 
ATOM      2  O   UNL     1       5.730  -1.998  -0.679  0.00  0.00    -0.271 OA
ATOM      3  N   UNL     1       5.143  -3.925   0.251  0.00  0.00    -0.279 N 
ATOM      4  H   UNL     1       4.510  -4.417   0.797  0.00  0.00    +0.155 HD
ENDROOT
BRANCH   1  13
ATOM      5  C   UNL     1       0.005   1.401   0.061  0.00  0.00    +0.004 A 
ATOM      6  C   UNL     1       1.194   2.106   0.048  0.00  0.00    +0.004 A 
ATOM      7  C   UNL     1       2.400   1.431   0.022  0.00  0.00    +0.049 A 
ATOM      8  C   UNL     1       2.420   0.044   0.008  0.00  0.00    +0.163 A 
ATOM      9  C   UNL     1       1.224  -0.665   0.023  0.00  0.00    +0.162 A 
ATOM     10  C   UNL     1       0.018   0.019   0.048  0.00  0.00    +0.049 A 
ATOM     11  O   UNL     1       1.221  -2.026   0.018  0.00  0.00    -0.484 OA
ATOM     12  C   UNL     1       2.435  -2.671  -0.383  0.00  0.00    +0.283 C 
ATOM     13  C   UNL     1       3.603  -1.991   0.344  0.00  0.00    +0.296 C 
ATOM     14  O   UNL     1       3.615  -0.607  -0.022  0.00  0.00    -0.473 OA
ENDBRANCH   1  13
BRANCH   3  15
ATOM     15  C   UNL     1       6.307  -4.553  -0.209  0.00  0.00    +0.078 A 
ATOM     16  C   UNL     1       7.486  -3.831  -0.330  0.00  0.00    +0.059 A 
ATOM     17  C   UNL     1       8.633  -4.453  -0.784  0.00  0.00    +0.128 A 
ATOM     18  C   UNL     1       8.611  -5.794  -1.119  0.00  0.00    +0.036 A 
ATOM     19  C   UNL     1       7.440  -6.520  -1.002  0.00  0.00    +0.050 A 
ATOM     20  C   UNL     1       6.287  -5.906  -0.541  0.00  0.00    +0.148 A 
BRANCH  17  21
ATOM     21  N   UNL     1       9.890  -3.681  -0.912  0.00  0.00    +0.056 N 
ATOM     22  O   UNL     1       9.911  -2.508  -0.620  0.00  0.00    -0.126 OA
ATOM     23  O   UNL     1      10.895  -4.223  -1.309  0.00  0.00    -0.126 OA
ENDBRANCH  17  21
BRANCH  20  24
ATOM     24  O   UNL     1       5.136  -6.620  -0.420  0.00  0.00    -0.432 OA
BRANCH  24  25
ATOM     25  C   UNL     1       5.189  -8.002  -0.779  0.00  0.00    +0.541 C 
ATOM     26  F   UNL     1       5.566  -8.121  -2.121  0.00  0.00    -0.166 F 
ATOM     27  F   UNL     1       6.125  -8.658   0.028  0.00  0.00    -0.166 F 
ENDBRANCH  24  25
ENDBRANCH  20  24
ENDBRANCH   3  15
TORSDOF 5
