REMARK  Name = ZINC35266406
REMARK  11 active torsions:
REMARK  status: ('A' for Active; 'I' for Inactive)
REMARK    1  A    between atoms: C_1  and  C_2
REMARK    2  A    between atoms: C_5  and  N_9
REMARK    3  A    between atoms: C_6  and  C_8
REMARK    4  A    between atoms: N_12  and  C_13
REMARK    5  A    between atoms: C_16  and  N_27
REMARK    6  A    between atoms: C_17  and  C_19
REMARK    7  A    between atoms: N_21  and  C_22
REMARK    8  A    between atoms: C_22  and  C_23
REMARK    9  A    between atoms: C_23  and  C_24
REMARK   10  A    between atoms: C_24  and  O_25
REMARK   11  A    between atoms: O_25  and  C_26
REMARK                            x       y       z     vdW  Elec       q    Type
REMARK                         _______ _______ _______ _____ _____    ______ ____
ROOT
ATOM      1  C   UNL     1      -0.085  -6.973  -2.351  0.00  0.00    +0.036 A 
ATOM      2  C   UNL     1      -0.092  -6.275  -3.555  0.00  0.00    +0.025 A 
ATOM      3  C   UNL     1      -0.084  -6.955  -4.755  0.00  0.00    +0.026 A 
ATOM      4  C   UNL     1      -0.068  -8.345  -4.769  0.00  0.00    +0.042 A 
ATOM      5  C   UNL     1      -0.060  -9.054  -3.559  0.00  0.00    +0.059 A 
ATOM      6  C   UNL     1      -0.063  -8.356  -2.348  0.00  0.00    +0.038 A 
ENDROOT
BRANCH   1  10
ATOM      7  N   UNL     1      -0.681  -4.379   0.096  0.00  0.00    -0.269 N 
ATOM      8  C   UNL     1      -0.758  -5.104  -1.038  0.00  0.00    +0.308 C 
ATOM      9  O   UNL     1      -1.428  -4.705  -1.970  0.00  0.00    -0.252 OA
ATOM     10  N   UNL     1      -0.092  -6.271  -1.137  0.00  0.00    -0.269 N 
ATOM     11  H   UNL     1      -0.095  -4.663   0.814  0.00  0.00    +0.156 HD
ATOM     12  H   UNL     1       0.381  -6.627  -0.369  0.00  0.00    +0.156 HD
BRANCH   7  17
ATOM     13  C   UNL     1      -3.787   0.335   0.663  0.00  0.00    +0.044 C 
ATOM     14  C   UNL     1      -2.962  -0.917   0.512  0.00  0.00    -0.050 A 
ATOM     15  C   UNL     1      -2.486  -1.284  -0.733  0.00  0.00    +0.005 A 
ATOM     16  C   UNL     1      -1.729  -2.430  -0.875  0.00  0.00    +0.024 A 
ATOM     17  C   UNL     1      -1.447  -3.216   0.236  0.00  0.00    +0.038 A 
ATOM     18  C   UNL     1      -1.926  -2.845   1.485  0.00  0.00    -0.029 A 
ATOM     19  C   UNL     1      -2.678  -1.694   1.621  0.00  0.00    +0.008 A 
ATOM     20  C   UNL     1      -1.623  -3.694   2.692  0.00  0.00    +0.045 C 
ENDBRANCH   7  17
ENDBRANCH   1  10
BRANCH   4  21
ATOM     21  N   UNL     1      -0.061  -9.030  -5.979  0.00  0.00    -0.329 N 
ATOM     22  C   UNL     1      -1.321  -9.408  -6.633  0.00  0.00    +0.105 C 
ATOM     23  C   UNL     1      -1.307  -8.880  -8.072  0.00  0.00    +0.019 C 
ATOM     24  C   UNL     1      -0.052  -9.387  -8.785  0.00  0.00    +0.003 C 
ATOM     25  C   UNL     1       1.193  -8.862  -8.066  0.00  0.00    +0.019 C 
ATOM     26  C   UNL     1       1.208  -9.384  -6.631  0.00  0.00    +0.105 C 
ENDBRANCH   4  21
BRANCH   5  27
ATOM     27  C   UNL     1      -0.043 -10.528  -3.564  0.00  0.00    +0.246 C 
ATOM     28  O   UNL     1      -0.036 -11.133  -4.619  0.00  0.00    -0.270 OA
ATOM     29  N   UNL     1      -0.036 -11.206  -2.399  0.00  0.00    -0.311 N 
ATOM     30  H   UNL     1      -0.042 -10.724  -1.557  0.00  0.00    +0.149 HD
BRANCH  29  31
ATOM     31  C   UNL     1      -0.019 -12.671  -2.404  0.00  0.00    +0.107 C 
BRANCH  31  32
ATOM     32  C   UNL     1      -0.013 -13.186  -0.964  0.00  0.00    +0.047 C 
BRANCH  32  33
ATOM     33  C   UNL     1       0.004 -14.716  -0.969  0.00  0.00    +0.161 C 
BRANCH  33  34
ATOM     34  O   UNL     1       0.010 -15.197   0.377  0.00  0.00    -0.383 OA
ATOM     35  C   UNL     1       0.026 -16.622   0.484  0.00  0.00    +0.193 C 
ENDBRANCH  33  34
ENDBRANCH  32  33
ENDBRANCH  31  32
ENDBRANCH  29  31
ENDBRANCH   5  27
TORSDOF 8
