REMARK  Name = ZINC65978770
REMARK  8 active torsions:
REMARK  status: ('A' for Active; 'I' for Inactive)
REMARK    1  A    between atoms: C_4  and  N_21
REMARK    2  A    between atoms: C_5  and  C_7
REMARK    3  A    between atoms: C_7  and  N_8
REMARK    4  A    between atoms: N_8  and  C_9
REMARK    5  A    between atoms: C_9  and  C_10
REMARK    6  A    between atoms: C_13  and  O_16
REMARK    7  A    between atoms: O_16  and  C_17
REMARK    8  A    between atoms: C_17  and  C_18
REMARK                            x       y       z     vdW  Elec       q    Type
REMARK                         _______ _______ _______ _____ _____    ______ ____
ROOT
ATOM      1  N   UNL     1       1.216  -2.716   1.278  0.00  0.00    +0.384 N 
ATOM      2  H   UNL     1       2.030  -2.334   1.736  0.00  0.00    -0.085 HD
ATOM      3  H   UNL     1       0.387  -2.446   1.786  0.00  0.00    -0.085 HD
ENDROOT
BRANCH   1   4
ATOM      4  C   UNL     1       1.139  -2.199  -0.095  0.00  0.00    -0.044 C 
BRANCH   4   9
ATOM      5  C   UNL     1      -0.563   1.169  -0.211  0.00  0.00    +0.000 A 
ATOM      6  C   UNL     1       0.499   2.028   0.006  0.00  0.00    +0.002 A 
ATOM      7  C   UNL     1       1.771   1.523   0.192  0.00  0.00    +0.023 A 
ATOM      8  C   UNL     1       1.983   0.151   0.160  0.00  0.00    +0.031 A 
ATOM      9  C   UNL     1       0.914  -0.709  -0.059  0.00  0.00    -0.043 A 
ATOM     10  C   UNL     1      -0.355  -0.197  -0.244  0.00  0.00    +0.003 A 
BRANCH   8  11
ATOM     11  N   UNL     1       3.268  -0.363   0.347  0.00  0.00    -0.330 N 
ATOM     12  C   UNL     1       4.203  -0.742  -0.723  0.00  0.00    +0.105 C 
ATOM     13  C   UNL     1       5.481  -1.280  -0.044  0.00  0.00    +0.020 C 
ATOM     14  C   UNL     1       4.977  -1.703   1.361  0.00  0.00    +0.020 C 
ATOM     15  C   UNL     1       3.913  -0.611   1.649  0.00  0.00    +0.105 C 
ENDBRANCH   8  11
ENDBRANCH   4   9
ENDBRANCH   1   4
BRANCH   1  16
ATOM     16  C   UNL     1       1.314  -4.181   1.245  0.00  0.00    -0.046 C 
BRANCH  16  17
ATOM     17  C   UNL     1       1.392  -4.712   2.653  0.00  0.00    -0.064 A 
ATOM     18  C   UNL     1       2.622  -4.868   3.264  0.00  0.00    +0.005 A 
ATOM     19  C   UNL     1       2.697  -5.355   4.555  0.00  0.00    +0.046 A 
ATOM     20  C   UNL     1       1.536  -5.686   5.238  0.00  0.00    +0.121 A 
ATOM     21  C   UNL     1       0.302  -5.527   4.623  0.00  0.00    +0.046 A 
ATOM     22  C   UNL     1       0.233  -5.035   3.334  0.00  0.00    +0.005 A 
BRANCH  20  23
ATOM     23  O   UNL     1       1.607  -6.165   6.508  0.00  0.00    -0.483 OA
BRANCH  23  24
ATOM     24  C   UNL     1       0.371  -6.484   7.151  0.00  0.00    +0.324 C 
BRANCH  24  25
ATOM     25  C   UNL     1       0.645  -6.997   8.541  0.00  0.00    +0.248 C 
ATOM     26  O   UNL     1       1.787  -7.081   8.942  0.00  0.00    -0.272 OA
ATOM     27  N   UNL     1      -0.378  -7.363   9.338  0.00  0.00    -0.327 N 
ATOM     28  H   UNL     1      -1.291  -7.296   9.018  0.00  0.00    +0.145 HD
ATOM     29  H   UNL     1      -0.201  -7.693  10.233  0.00  0.00    +0.145 HD
ENDBRANCH  24  25
ENDBRANCH  23  24
ENDBRANCH  20  23
ENDBRANCH  16  17
ENDBRANCH   1  16
TORSDOF 8
