REMARK  Name = ZINC31819944
REMARK  2 active torsions:
REMARK  status: ('A' for Active; 'I' for Inactive)
REMARK    1  A    between atoms: C_1  and  C_2
REMARK    2  A    between atoms: C_4  and  C_25
REMARK                            x       y       z     vdW  Elec       q    Type
REMARK                         _______ _______ _______ _____ _____    ______ ____
ROOT
ATOM      1  C   UNL     1      10.495  -1.653  -1.133  0.00  0.00    +0.066 C 
ATOM      2  C   UNL     1       9.530  -1.999  -0.029  0.00  0.00    +0.044 A 
ATOM      3  C   UNL     1       9.885  -2.910   0.953  0.00  0.00    +0.046 A 
ATOM      4  C   UNL     1       8.968  -3.200   1.951  0.00  0.00    +0.044 A 
ATOM      5  N   UNL     1       7.788  -2.603   1.936  0.00  0.00    -0.220 NA
ATOM      6  C   UNL     1       7.479  -1.738   0.982  0.00  0.00    +0.218 A 
ATOM      7  N   UNL     1       8.331  -1.442   0.011  0.00  0.00    -0.220 NA
ATOM      8  N   UNL     1       6.234  -1.131   0.996  0.00  0.00    -0.297 N 
ATOM      9  C   UNL     1       6.084  -0.209  -0.138  0.00  0.00    +0.127 C 
ATOM     10  C   UNL     1       4.730   0.498  -0.042  0.00  0.00    +0.125 C 
ATOM     11  N   UNL     1       3.656  -0.505  -0.036  0.00  0.00    -0.310 N 
ATOM     12  C   UNL     1       3.806  -1.427   1.099  0.00  0.00    +0.125 C 
ATOM     13  C   UNL     1       5.160  -2.134   1.002  0.00  0.00    +0.127 C 
ATOM     14  C   UNL     1       2.412   0.101  -0.021  0.00  0.00    +0.154 A 
ATOM     15  C   UNL     1       1.238  -0.672  -0.013  0.00  0.00    +0.148 A 
ATOM     16  C   UNL     1       0.002  -0.004   0.002  0.00  0.00    +0.165 A 
ATOM     17  N   UNL     1      -0.958  -0.984   0.007  0.00  0.00    -0.329 N 
ATOM     18  H   UNL     1      -2.023  -0.710   0.018  0.00  0.00    +0.168 HD
ATOM     19  C   UNL     1      -0.314  -2.187  -0.005  0.00  0.00    +0.198 A 
ATOM     20  N   UNL     1       0.973  -2.001  -0.017  0.00  0.00    -0.231 NA
ATOM     21  N   UNL     1      -0.016   1.325   0.009  0.00  0.00    -0.195 NA
ATOM     22  C   UNL     1       1.114   2.014   0.002  0.00  0.00    +0.216 A 
ATOM     23  N   UNL     1       2.303   1.424  -0.014  0.00  0.00    -0.197 NA
ATOM     24  N   UNL     1       1.054   3.398   0.010  0.00  0.00    -0.327 N 
ATOM     25  C   UNL     1       9.312  -4.183   3.040  0.00  0.00    +0.066 C 
ATOM     26  H   UNL     1       1.981   3.989   0.004  0.00  0.00    +0.145 HD
ATOM     27  H   UNL     1       0.078   3.906   0.022  0.00  0.00    +0.145 HD
ENDROOT
TORSDOF 0
