REMARK  Name = ZINC27059907
REMARK  10 active torsions:
REMARK  status: ('A' for Active; 'I' for Inactive)
REMARK    1  A    between atoms: C_1  and  C_2
REMARK    2  A    between atoms: C_2  and  C_3
REMARK    3  A    between atoms: C_2  and  C_4
REMARK    4  A    between atoms: C_2  and  C_5
REMARK    5  A    between atoms: N_13  and  C_17
REMARK    6  A    between atoms: C_17  and  C_18
REMARK    7  A    between atoms: C_23  and  C_26
REMARK    8  A    between atoms: C_23  and  C_32
REMARK    9  A    between atoms: C_32  and  O_34
REMARK   10  A    between atoms: O_34  and  C_35
REMARK                            x       y       z     vdW  Elec       q    Type
REMARK                         _______ _______ _______ _____ _____    ______ ____
ROOT
ATOM      1  C   UNL     1      -3.069   1.533   4.702  0.00  0.00    +0.213 C 
ENDROOT
BRANCH   1  10
ATOM      2  C   UNL     1      -4.697  -1.936   9.393  0.00  0.00    -0.005 C 
ATOM      3  C   UNL     1      -4.855  -2.315   7.920  0.00  0.00    +0.006 C 
ATOM      4  C   UNL     1      -5.793  -1.317   7.236  0.00  0.00    +0.035 C 
ATOM      5  C   UNL     1      -5.218   0.090   7.358  0.00  0.00    +0.113 C 
ATOM      6  C   UNL     1      -5.035   0.473   8.822  0.00  0.00    +0.035 C 
ATOM      7  C   UNL     1      -4.100  -0.532   9.501  0.00  0.00    +0.006 C 
ATOM      8  C   UNL     1      -3.902   0.186   6.620  0.00  0.00    +0.247 C 
ATOM      9  O   UNL     1      -2.888  -0.440   6.843  0.00  0.00    -0.273 OA
ATOM     10  N   UNL     1      -4.094   1.117   5.662  0.00  0.00    -0.215 N 
ATOM     11  C   UNL     1      -5.335   1.616   5.701  0.00  0.00    +0.310 C 
ATOM     12  O   UNL     1      -5.744   2.472   4.941  0.00  0.00    -0.252 OA
ATOM     13  N   UNL     1      -6.082   1.061   6.675  0.00  0.00    -0.285 N 
ATOM     14  H   UNL     1      -7.121   1.201   7.007  0.00  0.00    +0.151 HD
BRANCH   2  16
ATOM     15  C   UNL     1      -2.399  -2.916   9.398  0.00  0.00    +0.011 C 
ATOM     16  C   UNL     1      -3.768  -2.939  10.081  0.00  0.00    -0.035 C 
ATOM     17  C   UNL     1      -3.610  -2.560  11.555  0.00  0.00    +0.011 C 
ATOM     18  C   UNL     1      -4.366  -4.343   9.976  0.00  0.00    +0.011 C 
ENDBRANCH   2  16
ENDBRANCH   1  10
BRANCH   1  19
ATOM     19  C   UNL     1      -3.147   0.662   3.474  0.00  0.00    +0.234 C 
ATOM     20  O   UNL     1      -3.977  -0.219   3.408  0.00  0.00    -0.274 OA
ATOM     21  N   UNL     1      -2.294   0.863   2.450  0.00  0.00    -0.300 N 
ATOM     22  C   UNL     1      -2.357   0.023   1.247  0.00  0.00    +0.109 C 
ATOM     23  C   UNL     1      -2.479   0.929   0.018  0.00  0.00    +0.042 C 
ATOM     24  C   UNL     1      -1.329   1.940   0.019  0.00  0.00    +0.095 C 
ATOM     25  C   UNL     1      -1.416   2.812   1.273  0.00  0.00    +0.042 C 
ATOM     26  C   UNL     1      -1.282   1.927   2.516  0.00  0.00    +0.109 C 
BRANCH  24  27
ATOM     27  C   UNL     1      -1.427   2.812  -1.206  0.00  0.00    -0.031 A 
ATOM     28  C   UNL     1      -2.449   2.615  -2.116  0.00  0.00    +0.005 A 
ATOM     29  C   UNL     1      -2.541   3.417  -3.237  0.00  0.00    +0.000 A 
ATOM     30  C   UNL     1      -1.604   4.410  -3.455  0.00  0.00    +0.000 A 
ATOM     31  C   UNL     1      -0.579   4.604  -2.549  0.00  0.00    +0.000 A 
ATOM     32  C   UNL     1      -0.490   3.805  -1.424  0.00  0.00    +0.005 A 
ENDBRANCH  24  27
BRANCH  24  33
ATOM     33  C   UNL     1      -0.014   1.204   0.009  0.00  0.00    +0.318 C 
ATOM     34  O   UNL     1       0.002  -0.004   0.002  0.00  0.00    -0.250 OA
BRANCH  33  35
ATOM     35  O   UNL     1       1.139   1.891   0.001  0.00  0.00    -0.467 OA
ATOM     36  C   UNL     1       2.367   1.117  -0.015  0.00  0.00    +0.280 C 
ENDBRANCH  33  35
ENDBRANCH  24  33
ENDBRANCH   1  19
TORSDOF 6
