REMARK  Name = ZINC12028918
REMARK  9 active torsions:
REMARK  status: ('A' for Active; 'I' for Inactive)
REMARK    1  A    between atoms: C_1  and  C_2
REMARK    2  A    between atoms: C_2  and  C_3
REMARK    3  A    between atoms: C_2  and  C_6
REMARK    4  A    between atoms: C_2  and  O_28
REMARK    5  A    between atoms: C_3  and  N_58
REMARK    6  A    between atoms: C_4  and  N_58
REMARK    7  A    between atoms: C_5  and  N_58
REMARK    8  A    between atoms: C_16  and  C_17
REMARK    9  A    between atoms: C_16  and  N_60
REMARK                            x       y       z     vdW  Elec       q    Type
REMARK                         _______ _______ _______ _____ _____    ______ ____
ROOT
ATOM      1  C   UNL     1      -2.399   0.091   0.160  0.00  0.00    -0.018 A 
ATOM      2  C   UNL     1      -2.468   1.471   0.207  0.00  0.00    +0.010 A 
ATOM      3  C   UNL     1      -1.310   2.226   0.215  0.00  0.00    +0.046 A 
ATOM      4  C   UNL     1      -0.075   1.593   0.175  0.00  0.00    +0.122 A 
ATOM      5  C   UNL     1      -0.014   0.214   0.111  0.00  0.00    -0.022 A 
ATOM      6  C   UNL     1      -1.168  -0.541   0.111  0.00  0.00    +0.011 A 
ATOM      7  C   UNL     1       1.341  -0.464   0.027  0.00  0.00    -0.039 C 
ATOM      8  C   UNL     1       2.753   1.010   1.356  0.00  0.00    -0.036 C 
ATOM      9  C   UNL     1       1.833   2.210   1.419  0.00  0.00    +0.210 C 
ATOM     10  O   UNL     1       1.069   2.327   0.211  0.00  0.00    -0.494 OA
ATOM     11  N   UNL     1       2.024  -0.275   1.330  0.00  0.00    +0.388 N 
ATOM     12  H   UNL     1       1.316  -0.268   2.074  0.00  0.00    -0.081 HD
ENDROOT
BRANCH   1  14
ATOM     13  C   UNL     1      -4.126  -0.955  -1.280  0.00  0.00    +0.044 C 
ATOM     14  C   UNL     1      -3.665  -0.726   0.161  0.00  0.00    +0.074 C 
BRANCH  14  15
ATOM     15  O   UNL     1      -3.418  -1.987   0.788  0.00  0.00    -0.386 OA
ATOM     16  H   UNL     1      -3.121  -1.918   1.706  0.00  0.00    +0.211 HD
ENDBRANCH  14  15
BRANCH  14  17
ATOM     17  C   UNL     1      -4.754   0.022   0.932  0.00  0.00    -0.040 C 
BRANCH  17  20
ATOM     18  C   UNL     1      -6.030  -1.870   1.742  0.00  0.00    -0.096 C 
ATOM     19  C   UNL     1      -7.166   0.166   1.089  0.00  0.00    -0.096 C 
ATOM     20  N   UNL     1      -6.022  -0.727   0.805  0.00  0.00    +0.378 N 
ATOM     21  H   UNL     1      -6.106  -1.081  -0.155  0.00  0.00    -0.083 HD
ENDBRANCH  17  20
ENDBRANCH  14  17
ENDBRANCH   1  14
BRANCH  11  22
ATOM     22  C   UNL     1       2.958  -1.386   1.573  0.00  0.00    -0.023 C 
BRANCH  22  23
ATOM     23  C   UNL     1       3.839  -1.040   2.746  0.00  0.00    +0.010 A 
ATOM     24  C   UNL     1       3.610  -1.374   4.031  0.00  0.00    +0.021 A 
ATOM     25  C   UNL     1       4.674  -0.857   4.800  0.00  0.00    +0.020 A 
ATOM     26  C   UNL     1       5.514  -0.226   3.956  0.00  0.00    +0.094 A 
ATOM     27  N   UNL     1       5.011  -0.338   2.689  0.00  0.00    -0.291 N 
ATOM     28  C   UNL     1       5.593   0.180   1.534  0.00  0.00    +0.235 A 
ATOM     29  N   UNL     1       4.994  -0.007   0.369  0.00  0.00    -0.220 NA
ATOM     30  C   UNL     1       5.517   0.476  -0.746  0.00  0.00    +0.116 A 
ATOM     31  C   UNL     1       6.713   1.175  -0.684  0.00  0.00    +0.039 A 
ATOM     32  C   UNL     1       7.316   1.347   0.552  0.00  0.00    +0.116 A 
ATOM     33  N   UNL     1       6.735   0.842   1.628  0.00  0.00    -0.220 NA
ENDBRANCH  22  23
ENDBRANCH  11  22
TORSDOF 6
