REMARK  Name = ZINC13456508
REMARK  13 active torsions:
REMARK  status: ('A' for Active; 'I' for Inactive)
REMARK    1  A    between atoms: C_4  and  N_33
REMARK    2  A    between atoms: C_5  and  N_7
REMARK    3  A    between atoms: N_7  and  C_8
REMARK    4  A    between atoms: C_8  and  C_9
REMARK    5  A    between atoms: C_9  and  N_10
REMARK    6  A    between atoms: N_12  and  C_13
REMARK    7  A    between atoms: C_13  and  C_14
REMARK    8  A    between atoms: C_14  and  C_15
REMARK    9  A    between atoms: C_15  and  O_16
REMARK   10  A    between atoms: O_16  and  C_17
REMARK   11  A    between atoms: C_21  and  C_23
REMARK   12  A    between atoms: C_23  and  N_24
REMARK   13  A    between atoms: N_30  and  C_31
REMARK                            x       y       z     vdW  Elec       q    Type
REMARK                         _______ _______ _______ _____ _____    ______ ____
ROOT
ATOM      1  N   UNL     1      -0.255  -6.221   0.972  0.00  0.00    -0.250 NA
ATOM      2  C   UNL     1      -0.235  -7.279   0.213  0.00  0.00    +0.206 C 
ATOM      3  N   UNL     1      -1.175  -8.267   0.386  0.00  0.00    -0.355 N 
ATOM      4  N   UNL     1       0.729  -7.408  -0.765  0.00  0.00    -0.263 N 
ATOM      5  H   UNL     1      -1.853  -8.176   1.073  0.00  0.00    +0.162 HD
ATOM      6  H   UNL     1       1.441  -6.753  -0.834  0.00  0.00    +0.181 HD
ENDROOT
BRANCH   4   7
ATOM      7  C   UNL     1       0.682  -8.450  -1.630  0.00  0.00    +0.184 C 
ATOM      8  N   UNL     1       0.642  -9.324  -2.355  0.00  0.00    -0.171 NA
ENDBRANCH   4   7
BRANCH   1   9
ATOM      9  C   UNL     1       0.825  -5.235   0.884  0.00  0.00    +0.164 C 
BRANCH   9  10
ATOM     10  C   UNL     1       0.272  -3.919   0.334  0.00  0.00    +0.125 C 
BRANCH  10  11
ATOM     11  N   UNL     1       1.353  -2.934   0.245  0.00  0.00    -0.340 N 
ATOM     12  H   UNL     1       2.252  -3.175   0.519  0.00  0.00    +0.146 HD
BRANCH  11  17
ATOM     13  C   UNL     1      -0.475   0.008  -0.982  0.00  0.00    +0.002 A 
ATOM     14  C   UNL     1       0.564   0.898  -1.179  0.00  0.00    +0.002 A 
ATOM     15  C   UNL     1       1.865   0.519  -0.903  0.00  0.00    +0.034 A 
ATOM     16  C   UNL     1       2.130  -0.752  -0.430  0.00  0.00    +0.147 A 
ATOM     17  C   UNL     1       1.088  -1.648  -0.232  0.00  0.00    +0.058 A 
ATOM     18  C   UNL     1      -0.218  -1.264  -0.510  0.00  0.00    +0.025 A 
BRANCH  16  19
ATOM     19  N   UNL     1       3.523  -1.157  -0.136  0.00  0.00    +0.058 N 
ATOM     20  O   UNL     1       4.290  -0.366   0.360  0.00  0.00    -0.126 OA
ATOM     21  O   UNL     1       3.893  -2.279  -0.393  0.00  0.00    -0.126 OA
ENDBRANCH  16  19
ENDBRANCH  11  17
ENDBRANCH  10  11
ENDBRANCH   9  10
ENDBRANCH   1   9
BRANCH   3  22
ATOM     22  C   UNL     1      -1.153  -9.457  -0.468  0.00  0.00    +0.119 C 
BRANCH  22  23
ATOM     23  C   UNL     1      -2.296 -10.392  -0.070  0.00  0.00    +0.062 C 
BRANCH  23  24
ATOM     24  C   UNL     1      -2.273 -11.635  -0.962  0.00  0.00    +0.231 C 
BRANCH  24  25
ATOM     25  O   UNL     1      -3.341 -12.508  -0.590  0.00  0.00    -0.492 OA
BRANCH  25  26
ATOM     26  C   UNL     1      -3.463 -13.667  -1.289  0.00  0.00    +0.121 A 
ATOM     27  C   UNL     1      -2.568 -13.961  -2.309  0.00  0.00    +0.045 A 
ATOM     28  C   UNL     1      -2.693 -15.139  -3.018  0.00  0.00    +0.004 A 
ATOM     29  C   UNL     1      -3.709 -16.027  -2.712  0.00  0.00    +0.002 A 
ATOM     30  C   UNL     1      -4.602 -15.736  -1.698  0.00  0.00    -0.060 A 
ATOM     31  C   UNL     1      -4.477 -14.561  -0.982  0.00  0.00    +0.047 A 
BRANCH  30  32
ATOM     32  C   UNL     1      -5.708 -16.706  -1.368  0.00  0.00    -0.043 C 
BRANCH  32  33
ATOM     33  N   UNL     1      -5.239 -17.656  -0.350  0.00  0.00    +0.382 N 
ATOM     34  C   UNL     1      -4.152 -18.470  -0.907  0.00  0.00    -0.078 C 
ATOM     35  C   UNL     1      -3.605 -19.405   0.173  0.00  0.00    -0.019 C 
ATOM     36  C   UNL     1      -4.730 -20.321   0.664  0.00  0.00    -0.004 C 
ATOM     37  C   UNL     1      -5.890 -19.460   1.174  0.00  0.00    -0.019 C 
ATOM     38  C   UNL     1      -6.351 -18.523   0.057  0.00  0.00    -0.078 C 
ATOM     39  H   UNL     1      -4.899 -17.148   0.452  0.00  0.00    -0.081 HD
ENDBRANCH  32  33
ENDBRANCH  30  32
ENDBRANCH  25  26
ENDBRANCH  24  25
ENDBRANCH  23  24
ENDBRANCH  22  23
ENDBRANCH   3  22
TORSDOF 13
