REMARK  Name = ZINC21984078
REMARK  6 active torsions:
REMARK  status: ('A' for Active; 'I' for Inactive)
REMARK    1  A    between atoms: C_1  and  O_2
REMARK    2  A    between atoms: O_2  and  C_3
REMARK    3  A    between atoms: C_8  and  O_9
REMARK    4  A    between atoms: O_9  and  C_10
REMARK    5  A    between atoms: C_14  and  N_16
REMARK    6  A    between atoms: C_23  and  C_25
REMARK                            x       y       z     vdW  Elec       q    Type
REMARK                         _______ _______ _______ _____ _____    ______ ____
ROOT
ATOM      1  C   UNL     1       3.700   1.440   0.644  0.00  0.00    +0.162 A 
ATOM      2  C   UNL     1       2.407   0.938   0.651  0.00  0.00    +0.055 A 
ATOM      3  C   UNL     1       1.401   1.616  -0.003  0.00  0.00    -0.016 A 
ATOM      4  C   UNL     1       1.677   2.804  -0.682  0.00  0.00    +0.074 A 
ATOM      5  C   UNL     1       2.977   3.312  -0.682  0.00  0.00    +0.077 A 
ATOM      6  C   UNL     1       3.983   2.629  -0.021  0.00  0.00    +0.164 A 
ATOM      7  N   UNL     1       0.683   3.456  -1.360  0.00  0.00    -0.218 NA
ATOM      8  C   UNL     1      -0.470   2.880  -1.595  0.00  0.00    +0.182 C 
ATOM      9  N   UNL     1      -0.691   1.581  -1.199  0.00  0.00    -0.327 N 
ATOM     10  C   UNL     1      -0.013   1.086   0.008  0.00  0.00    +0.045 C 
ATOM     11  N   UNL     1      -1.462   3.576  -2.241  0.00  0.00    -0.300 N 
ATOM     12  C   UNL     1      -2.759   2.944  -2.519  0.00  0.00    +0.126 C 
ATOM     13  C   UNL     1      -3.867   3.824  -1.915  0.00  0.00    +0.127 C 
ATOM     14  N   UNL     1      -3.649   5.212  -2.346  0.00  0.00    -0.295 N 
ATOM     15  C   UNL     1      -2.349   5.842  -2.073  0.00  0.00    +0.127 C 
ATOM     16  C   UNL     1      -1.244   4.964  -2.671  0.00  0.00    +0.126 C 
ATOM     17  C   UNL     1      -4.623   5.895  -2.980  0.00  0.00    +0.260 C 
ATOM     18  O   UNL     1      -4.431   7.040  -3.331  0.00  0.00    -0.271 OA
ATOM     19  H   UNL     1      -1.360   0.916  -1.766  0.00  0.00    +0.147 HD
ENDROOT
BRANCH  17  20
ATOM     20  C   UNL     1      -5.950   5.236  -3.253  0.00  0.00    +0.296 C 
ATOM     21  C   UNL     1      -6.663   4.940  -1.927  0.00  0.00    +0.283 C 
ATOM     22  O   UNL     1      -7.923   4.328  -2.223  0.00  0.00    -0.484 OA
ATOM     23  C   UNL     1      -8.672   4.911  -3.199  0.00  0.00    +0.162 A 
ATOM     24  C   UNL     1     -10.023   4.609  -3.292  0.00  0.00    +0.049 A 
ATOM     25  C   UNL     1     -10.796   5.190  -4.279  0.00  0.00    +0.004 A 
ATOM     26  C   UNL     1     -10.225   6.074  -5.177  0.00  0.00    +0.004 A 
ATOM     27  C   UNL     1      -8.880   6.380  -5.088  0.00  0.00    +0.049 A 
ATOM     28  C   UNL     1      -8.099   5.801  -4.099  0.00  0.00    +0.163 A 
ATOM     29  O   UNL     1      -6.777   6.116  -4.021  0.00  0.00    -0.473 OA
ENDBRANCH  17  20
BRANCH  10  30
ATOM     30  N   UNL     1      -0.714   1.566   1.206  0.00  0.00    +0.393 N 
ATOM     31  H   UNL     1      -1.743   1.178   1.209  0.00  0.00    -0.087 HD
ATOM     32  H   UNL     1      -0.738   2.666   1.200  0.00  0.00    -0.087 HD
ATOM     33  H   UNL     1      -0.187   1.215   2.105  0.00  0.00    -0.087 HD
ENDBRANCH  10  30
BRANCH   1  35
ATOM     34  C   UNL     1       4.333  -0.446   1.949  0.00  0.00    +0.277 C 
ATOM     35  O   UNL     1       4.693   0.768   1.288  0.00  0.00    -0.491 OA
ENDBRANCH   1  35
BRANCH   6  36
ATOM     36  O   UNL     1       5.251   3.122  -0.021  0.00  0.00    -0.491 OA
ATOM     37  C   UNL     1       5.471   4.347  -0.723  0.00  0.00    +0.277 C 
ENDBRANCH   6  36
TORSDOF 4
