REMARK  Name = ZINC04312117
REMARK  7 active torsions:
REMARK  status: ('A' for Active; 'I' for Inactive)
REMARK    1  A    between atoms: C_1  and  C_2
REMARK    2  A    between atoms: C_2  and  C_3
REMARK    3  A    between atoms: C_2  and  C_4
REMARK    4  A    between atoms: C_2  and  C_5
REMARK    5  A    between atoms: C_12  and  N_26
REMARK    6  A    between atoms: C_13  and  C_24
REMARK    7  A    between atoms: C_14  and  C_16
REMARK                            x       y       z     vdW  Elec       q    Type
REMARK                         _______ _______ _______ _____ _____    ______ ____
ROOT
ATOM      1  C   UNL     1       0.784  -0.714  -1.685  0.00  0.00    +0.076 A 
ATOM      2  C   UNL     1       0.991  -2.086  -1.651  0.00  0.00    +0.050 A 
ATOM      3  C   UNL     1       1.758  -2.426  -2.730  0.00  0.00    +0.222 A 
ATOM      4  N   UNL     1       2.019  -1.300  -3.413  0.00  0.00    -0.246 N 
ATOM      5  H   UNL     1       2.542  -1.234  -4.227  0.00  0.00    +0.192 HD
ATOM      6  N   UNL     1       1.394  -0.236  -2.744  0.00  0.00    -0.175 NA
ATOM      7  O   UNL     1       2.142  -3.702  -2.984  0.00  0.00    -0.423 OA
ATOM      8  C   UNL     1       1.983  -4.609  -1.999  0.00  0.00    +0.200 C 
ATOM      9  C   UNL     1       1.239  -4.394  -0.891  0.00  0.00    +0.098 C 
ATOM     10  C   UNL     1       0.500  -3.101  -0.651  0.00  0.00    +0.104 C 
ENDROOT
BRANCH  10  11
ATOM     11  C   UNL     1      -0.980  -3.318  -0.831  0.00  0.00    +0.001 A 
ATOM     12  C   UNL     1      -1.484  -3.639  -2.077  0.00  0.00    +0.010 A 
ATOM     13  C   UNL     1      -2.841  -3.839  -2.244  0.00  0.00    +0.039 A 
ATOM     14  C   UNL     1      -3.698  -3.718  -1.163  0.00  0.00    +0.126 A 
ATOM     15  C   UNL     1      -3.194  -3.397   0.086  0.00  0.00    +0.077 A 
ATOM     16  C   UNL     1      -1.833  -3.202   0.253  0.00  0.00    +0.130 A 
ATOM     17  F   UNL     1      -1.340  -2.894   1.472  0.00  0.00    -0.205 F 
ATOM     18  F   UNL     1      -5.025  -3.913  -1.326  0.00  0.00    -0.205 F 
ENDBRANCH  10  11
BRANCH   1  20
ATOM     19  C   UNL     1      -1.496  -0.236  -0.836  0.00  0.00    +0.017 C 
ATOM     20  C   UNL     1      -0.008   0.086  -0.684  0.00  0.00    +0.007 C 
ATOM     21  C   UNL     1       0.218   1.579  -0.930  0.00  0.00    +0.017 C 
ATOM     22  C   UNL     1       0.449  -0.271   0.732  0.00  0.00    +0.017 C 
ENDBRANCH   1  20
BRANCH   8  23
ATOM     23  N   UNL     1       2.613  -5.822  -2.129  0.00  0.00    -0.328 N 
ATOM     24  H   UNL     1       3.154  -6.005  -2.913  0.00  0.00    +0.145 HD
ATOM     25  H   UNL     1       2.518  -6.495  -1.437  0.00  0.00    +0.145 HD
ENDBRANCH   8  23
BRANCH   9  26
ATOM     26  C   UNL     1       1.148  -5.433   0.091  0.00  0.00    +0.101 C 
ATOM     27  N   UNL     1       1.076  -6.257   0.869  0.00  0.00    -0.191 NA
ENDBRANCH   9  26
TORSDOF 4
