REMARK  Name = ZINC52015706
REMARK  6 active torsions:
REMARK  status: ('A' for Active; 'I' for Inactive)
REMARK    1  A    between atoms: C_3  and  S_11
REMARK    2  A    between atoms: C_4  and  N_8
REMARK    3  A    between atoms: C_6  and  N_7
REMARK    4  A    between atoms: S_11  and  N_14
REMARK    5  A    between atoms: N_14  and  C_15
REMARK    6  A    between atoms: C_21  and  O_23
REMARK                            x       y       z     vdW  Elec       q    Type
REMARK                         _______ _______ _______ _____ _____    ______ ____
ROOT
ATOM      1  S   UNL     1       3.716   2.780  -0.097  0.00  0.00    +0.061 S 
ATOM      2  O   UNL     1       4.477   2.454  -1.252  0.00  0.00    -0.153 OA
ATOM      3  O   UNL     1       3.034   4.019   0.040  0.00  0.00    -0.153 OA
ENDROOT
BRANCH   1   6
ATOM      4  C   UNL     1       1.442  -0.468  -0.743  0.00  0.00    +0.025 A 
ATOM      5  C   UNL     1       2.392   0.526  -0.879  0.00  0.00    +0.032 A 
ATOM      6  C   UNL     1       2.502   1.515   0.080  0.00  0.00    +0.135 A 
ATOM      7  C   UNL     1       1.663   1.514   1.179  0.00  0.00    +0.154 A 
ATOM      8  C   UNL     1       0.711   0.523   1.322  0.00  0.00    +0.057 A 
ATOM      9  C   UNL     1       0.597  -0.472   0.359  0.00  0.00    +0.027 A 
BRANCH   9  10
ATOM     10  N   UNL     1      -0.365  -1.475   0.500  0.00  0.00    -0.358 N 
ATOM     11  H   UNL     1      -0.443  -2.170  -0.172  0.00  0.00    +0.142 HD
ATOM     12  H   UNL     1      -0.954  -1.477   1.270  0.00  0.00    +0.142 HD
ENDBRANCH   9  10
BRANCH   7  13
ATOM     13  N   UNL     1       1.785   2.574   2.204  0.00  0.00    +0.058 N 
ATOM     14  O   UNL     1       0.974   2.648   3.098  0.00  0.00    -0.126 OA
ATOM     15  O   UNL     1       2.696   3.367   2.148  0.00  0.00    -0.126 OA
ENDBRANCH   7  13
ENDBRANCH   1   6
BRANCH   1  16
ATOM     16  N   UNL     1       4.743   2.659   1.196  0.00  0.00    -0.184 NA
ATOM     17  H   UNL     1       4.800   3.383   1.840  0.00  0.00    +0.148 HD
BRANCH  16  18
ATOM     18  C   UNL     1       5.565   1.459   1.369  0.00  0.00    +0.105 C 
ATOM     19  C   UNL     1       4.837   0.469   2.280  0.00  0.00    +0.023 C 
ATOM     20  C   UNL     1       5.696  -0.785   2.460  0.00  0.00    +0.002 C 
ATOM     21  C   UNL     1       7.035  -0.399   3.092  0.00  0.00    +0.003 C 
ATOM     22  C   UNL     1       7.763   0.592   2.181  0.00  0.00    +0.033 C 
ATOM     23  C   UNL     1       6.904   1.845   2.001  0.00  0.00    +0.133 C 
BRANCH  23  24
ATOM     24  O   UNL     1       7.583   2.770   1.150  0.00  0.00    -0.390 OA
ATOM     25  H   UNL     1       8.442   3.059   1.488  0.00  0.00    +0.210 HD
ENDBRANCH  23  24
ENDBRANCH  16  18
ENDBRANCH   1  16
TORSDOF 6
