REMARK  Name = ZINC15378421
REMARK  10 active torsions:
REMARK  status: ('A' for Active; 'I' for Inactive)
REMARK    1  A    between atoms: C_1  and  C_2
REMARK    2  A    between atoms: C_2  and  C_3
REMARK    3  A    between atoms: C_2  and  C_4
REMARK    4  A    between atoms: C_4  and  N_5
REMARK    5  A    between atoms: C_9  and  C_12
REMARK    6  A    between atoms: C_12  and  N_13
REMARK    7  A    between atoms: C_14  and  C_16
REMARK    8  A    between atoms: C_16  and  N_17
REMARK    9  A    between atoms: N_20  and  C_23
REMARK   10  A    between atoms: C_28  and  O_29
REMARK                            x       y       z     vdW  Elec       q    Type
REMARK                         _______ _______ _______ _____ _____    ______ ____
ROOT
ATOM      1  N   UNL     1      -3.987  -6.143   0.249  0.00  0.00    -0.312 N 
ATOM      2  C   UNL     1      -5.104  -6.883   0.395  0.00  0.00    +0.227 C 
ATOM      3  O   UNL     1      -6.183  -6.339   0.498  0.00  0.00    -0.274 OA
ATOM      4  H   UNL     1      -3.125  -6.579   0.166  0.00  0.00    +0.149 HD
ENDROOT
BRANCH   1   5
ATOM      5  C   UNL     1      -4.076  -4.681   0.215  0.00  0.00    +0.137 C 
BRANCH   5  10
ATOM      6  N   UNL     1      -1.416  -1.997  -0.116  0.00  0.00    -0.297 NA
ATOM      7  C   UNL     1      -0.910  -2.404  -1.435  0.00  0.00    +0.112 C 
ATOM      8  C   UNL     1      -0.853  -3.932  -1.504  0.00  0.00    +0.175 C 
ATOM      9  O   UNL     1      -2.153  -4.465  -1.234  0.00  0.00    -0.372 OA
ATOM     10  C   UNL     1      -2.676  -4.089   0.042  0.00  0.00    +0.149 C 
ATOM     11  C   UNL     1      -2.751  -2.563   0.127  0.00  0.00    +0.117 C 
BRANCH   6  12
ATOM     12  C   UNL     1      -1.433  -0.534   0.013  0.00  0.00    +0.087 C 
BRANCH  12  14
ATOM     13  C   UNL     1      -0.019   1.526   0.010  0.00  0.00    +0.008 C 
ATOM     14  C   UNL     1       0.002  -0.004   0.002  0.00  0.00    -0.003 C 
ATOM     15  C   UNL     1       0.742  -0.511   1.242  0.00  0.00    +0.008 C 
ENDBRANCH  12  14
ENDBRANCH   6  12
ENDBRANCH   5  10
ENDBRANCH   1   5
BRANCH   2  16
ATOM     16  C   UNL     1      -5.013  -8.387   0.429  0.00  0.00    +0.180 C 
BRANCH  16  17
ATOM     17  N   UNL     1      -6.357  -8.956   0.595  0.00  0.00    -0.291 NA
ATOM     18  C   UNL     1      -6.920  -8.602   1.905  0.00  0.00    +0.104 C 
ATOM     19  C   UNL     1      -8.383  -9.056   1.968  0.00  0.00    +0.120 C 
ATOM     20  N   UNL     1      -8.443 -10.486   1.631  0.00  0.00    -0.325 N 
ATOM     21  C   UNL     1      -7.780 -10.939   0.398  0.00  0.00    +0.120 C 
ATOM     22  C   UNL     1      -6.342 -10.411   0.396  0.00  0.00    +0.104 C 
BRANCH  20  23
ATOM     23  C   UNL     1      -9.113 -11.393   2.460  0.00  0.00    +0.072 A 
ATOM     24  C   UNL     1     -10.459 -11.659   2.254  0.00  0.00    +0.027 A 
ATOM     25  C   UNL     1     -11.119 -12.555   3.074  0.00  0.00    +0.002 A 
ATOM     26  C   UNL     1     -10.441 -13.187   4.100  0.00  0.00    +0.004 A 
ATOM     27  C   UNL     1      -9.100 -12.926   4.311  0.00  0.00    +0.047 A 
ATOM     28  C   UNL     1      -8.430 -12.034   3.491  0.00  0.00    +0.138 A 
BRANCH  28  29
ATOM     29  O   UNL     1      -7.109 -11.780   3.694  0.00  0.00    -0.505 OA
ATOM     30  H   UNL     1      -6.938 -11.048   4.302  0.00  0.00    +0.292 HD
ENDBRANCH  28  29
ENDBRANCH  20  23
ENDBRANCH  16  17
ENDBRANCH   2  16
TORSDOF 8
