REMARK  Name = ZINC00424257
REMARK  5 active torsions:
REMARK  status: ('A' for Active; 'I' for Inactive)
REMARK    1  A    between atoms: C_1  and  C_2
REMARK    2  A    between atoms: C_6  and  C_17
REMARK    3  A    between atoms: N_8  and  C_9
REMARK    4  A    between atoms: C_20  and  C_23
REMARK    5  A    between atoms: C_23  and  O_24
REMARK                            x       y       z     vdW  Elec       q    Type
REMARK                         _______ _______ _______ _____ _____    ______ ____
ROOT
ATOM      1  C   UNL     1       0.565   7.263   0.077  0.00  0.00    +0.069 C 
ATOM      2  C   UNL     1       0.794   5.773   0.062  0.00  0.00    +0.081 A 
ATOM      3  C   UNL     1       2.088   5.274   0.034  0.00  0.00    +0.159 A 
ATOM      4  C   UNL     1       2.276   3.879   0.028  0.00  0.00    +0.027 A 
ATOM      5  C   UNL     1       3.634   3.331   0.011  0.00  0.00    +0.030 A 
ATOM      6  C   UNL     1       4.669   4.201   0.273  0.00  0.00    +0.099 A 
ATOM      7  C   UNL     1       4.316   5.609   0.550  0.00  0.00    +0.233 A 
ATOM      8  N   UNL     1       5.098   6.368   1.285  0.00  0.00    -0.213 NA
ATOM      9  O   UNL     1       3.163   6.096   0.014  0.00  0.00    -0.435 OA
ATOM     10  C   UNL     1       1.148   3.050   0.038  0.00  0.00    +0.007 A 
ATOM     11  C   UNL     1      -0.100   3.639   0.065  0.00  0.00    +0.117 A 
ATOM     12  N   UNL     1      -0.237   4.952   0.077  0.00  0.00    -0.256 NA
ENDROOT
BRANCH   8  13
ATOM     13  C   UNL     1       4.810   7.697   1.440  0.00  0.00    +0.068 A 
ATOM     14  C   UNL     1       5.253   8.625   0.495  0.00  0.00    +0.029 A 
ATOM     15  C   UNL     1       4.954   9.962   0.655  0.00  0.00    +0.022 A 
ATOM     16  C   UNL     1       4.228  10.386   1.755  0.00  0.00    +0.041 A 
ATOM     17  C   UNL     1       3.791   9.472   2.698  0.00  0.00    +0.022 A 
ATOM     18  C   UNL     1       4.077   8.131   2.548  0.00  0.00    +0.029 A 
ATOM     19 CL   UNL     1       3.863  12.072   1.952  0.00  0.00    -0.084 Cl
ENDBRANCH   8  13
BRANCH   6  20
ATOM     20  C   UNL     1       6.072   3.747   0.278  0.00  0.00    +0.247 C 
ATOM     21  O   UNL     1       6.334   2.582   0.047  0.00  0.00    -0.270 OA
ATOM     22  N   UNL     1       7.063   4.622   0.537  0.00  0.00    -0.325 N 
ATOM     23  H   UNL     1       6.854   5.551   0.721  0.00  0.00    +0.145 HD
ATOM     24  H   UNL     1       7.986   4.323   0.540  0.00  0.00    +0.145 HD
ENDBRANCH   6  20
BRANCH  10  25
ATOM     25  C   UNL     1       1.292   1.550   0.024  0.00  0.00    +0.193 C 
BRANCH  25  26
ATOM     26  O   UNL     1      -0.003   0.947   0.044  0.00  0.00    -0.390 OA
ATOM     27  H   UNL     1       0.014  -0.020   0.037  0.00  0.00    +0.210 HD
ENDBRANCH  25  26
ENDBRANCH  10  25
TORSDOF 4
