REMARK  Name = ZINC37486863
REMARK  7 active torsions:
REMARK  status: ('A' for Active; 'I' for Inactive)
REMARK    1  A    between atoms: C_1  and  C_2
REMARK    2  A    between atoms: C_2  and  N_3
REMARK    3  A    between atoms: C_4  and  N_21
REMARK    4  A    between atoms: C_5  and  N_12
REMARK    5  A    between atoms: N_12  and  C_13
REMARK    6  A    between atoms: C_13  and  C_15
REMARK    7  A    between atoms: C_13  and  C_16
REMARK                            x       y       z     vdW  Elec       q    Type
REMARK                         _______ _______ _______ _____ _____    ______ ____
ROOT
ATOM      1  N   UNL     1      -1.288  -0.811   0.003  0.00  0.00    -0.281 N 
ATOM      2  C   UNL     1      -1.932  -1.008   1.204  0.00  0.00    +0.127 A 
ATOM      3  C   UNL     1      -3.276  -1.269   1.209  0.00  0.00    +0.131 A 
ATOM      4  C   UNL     1      -3.964  -1.329  -0.016  0.00  0.00    +0.277 A 
ATOM      5  O   UNL     1      -5.161  -1.560  -0.036  0.00  0.00    -0.266 OA
ATOM      6  N   UNL     1      -3.292  -1.130  -1.167  0.00  0.00    -0.273 N 
ATOM      7  H   UNL     1      -3.765  -1.171  -2.013  0.00  0.00    +0.173 HD
ATOM      8  C   UNL     1      -1.972  -0.870  -1.154  0.00  0.00    +0.331 A 
ATOM      9  O   UNL     1      -1.388  -0.689  -2.205  0.00  0.00    -0.246 OA
ENDROOT
BRANCH   2  10
ATOM     10  N   UNL     1      -1.232  -0.943   2.386  0.00  0.00    -0.343 N 
ATOM     11  H   UNL     1      -0.280  -0.758   2.377  0.00  0.00    +0.144 HD
ATOM     12  H   UNL     1      -1.691  -1.082   3.230  0.00  0.00    +0.144 HD
ENDBRANCH   2  10
BRANCH   1  14
ATOM     13  C   UNL     1       0.375   0.981   0.070  0.00  0.00    +0.027 C 
ATOM     14  C   UNL     1       0.150  -0.530  -0.014  0.00  0.00    +0.125 C 
ENDBRANCH   1  14
BRANCH   3  15
ATOM     15  N   UNL     1      -3.962  -1.475   2.428  0.00  0.00    -0.330 N 
ATOM     16  H   UNL     1      -3.499  -1.351   3.272  0.00  0.00    +0.147 HD
BRANCH  15  17
ATOM     17  C   UNL     1      -5.370  -1.877   2.417  0.00  0.00    +0.104 C 
ATOM     18  C   UNL     1      -6.252  -0.640   2.232  0.00  0.00    +0.033 C 
BRANCH  17  19
ATOM     19  C   UNL     1      -5.712  -2.546   3.724  0.00  0.00    +0.010 A 
ATOM     20  C   UNL     1      -6.487  -3.636   3.948  0.00  0.00    +0.013 A 
ATOM     21  C   UNL     1      -6.662  -4.078   5.245  0.00  0.00    +0.008 A 
ATOM     22  C   UNL     1      -6.054  -3.409   6.256  0.00  0.00    +0.045 A 
ATOM     23  S   UNL     1      -5.196  -2.114   5.377  0.00  0.00    -0.100 S 
ENDBRANCH  17  19
ENDBRANCH  15  17
ENDBRANCH   3  15
TORSDOF 5
