REMARK  Name = ZINC04898591
REMARK  6 active torsions:
REMARK  status: ('A' for Active; 'I' for Inactive)
REMARK    1  A    between atoms: C_3  and  O_30
REMARK    2  A    between atoms: C_6  and  C_7
REMARK    3  A    between atoms: C_9  and  C_21
REMARK    4  A    between atoms: C_11  and  C_16
REMARK    5  A    between atoms: C_13  and  O_15
REMARK    6  A    between atoms: C_21  and  C_23
REMARK                            x       y       z     vdW  Elec       q    Type
REMARK                         _______ _______ _______ _____ _____    ______ ____
ROOT
ATOM      1  C   UNL     1      -1.293  -0.774   0.011  0.00  0.00    +0.120 C 
ATOM      2  C   UNL     1      -1.616  -1.270  -1.407  0.00  0.00    +0.149 C 
ATOM      3  C   UNL     1      -0.477  -2.181  -1.871  0.00  0.00    +0.284 C 
ATOM      4  N   UNL     1      -0.170  -3.178  -0.852  0.00  0.00    -0.306 N 
ATOM      5  C   UNL     1      -0.488  -3.054   0.392  0.00  0.00    +0.256 C 
ATOM      6  N   UNL     1      -1.165  -1.958   0.874  0.00  0.00    -0.293 N 
ATOM      7  O   UNL     1       0.687  -1.390  -2.122  0.00  0.00    -0.194 OA
ATOM      8  H   UNL     1      -1.552  -1.966   1.763  0.00  0.00    +0.151 HD
ATOM      9  H   UNL     1       0.301  -3.981  -1.125  0.00  0.00    +0.167 HD
ENDROOT
BRANCH   1  15
ATOM     10  C   UNL     1      -0.017   1.378   0.010  0.00  0.00    +0.009 A 
ATOM     11  C   UNL     1       1.169   2.087   0.002  0.00  0.00    +0.046 A 
ATOM     12  C   UNL     1       2.380   1.409  -0.013  0.00  0.00    +0.117 A 
ATOM     13  C   UNL     1       2.396   0.022  -0.021  0.00  0.00    +0.046 A 
ATOM     14  C   UNL     1       1.207  -0.681  -0.013  0.00  0.00    +0.009 A 
ATOM     15  C   UNL     1       0.002  -0.004   0.002  0.00  0.00    -0.026 A 
BRANCH  12  16
ATOM     16  O   UNL     1       3.548   2.104  -0.021  0.00  0.00    -0.507 OA
ATOM     17  H   UNL     1       3.895   2.300   0.860  0.00  0.00    +0.292 HD
ENDBRANCH  12  16
ENDBRANCH   1  15
BRANCH   3  18
ATOM     18  C   UNL     1      -0.891  -2.890  -3.161  0.00  0.00    +0.441 C 
ATOM     19  F   UNL     1      -1.163  -1.938  -4.150  0.00  0.00    -0.166 F 
ATOM     20  F   UNL     1       0.147  -3.724  -3.590  0.00  0.00    -0.166 F 
ATOM     21  F   UNL     1      -2.038  -3.657  -2.925  0.00  0.00    -0.166 F 
ENDBRANCH   3  18
BRANCH   5  22
ATOM     22  O   UNL     1      -0.144  -4.036   1.254  0.00  0.00    -0.483 OA
ATOM     23  H   UNL     1       0.329  -4.772   0.843  0.00  0.00    +0.295 HD
ENDBRANCH   5  22
BRANCH   2  24
ATOM     24  C   UNL     1      -1.738  -0.094  -2.341  0.00  0.00    +0.173 C 
ATOM     25  O   UNL     1      -1.097   0.915  -2.133  0.00  0.00    -0.292 OA
BRANCH  24  26
ATOM     26  C   UNL     1      -2.634  -0.169  -3.504  0.00  0.00    +0.018 A 
ATOM     27  C   UNL     1      -3.378  -1.329  -3.744  0.00  0.00    +0.014 A 
ATOM     28  C   UNL     1      -4.215  -1.393  -4.836  0.00  0.00    +0.039 A 
ATOM     29  C   UNL     1      -4.321  -0.311  -5.697  0.00  0.00    +0.123 A 
ATOM     30  C   UNL     1      -3.586   0.842  -5.465  0.00  0.00    +0.039 A 
ATOM     31  C   UNL     1      -2.749   0.922  -4.373  0.00  0.00    +0.014 A 
ATOM     32  F   UNL     1      -5.143  -0.380  -6.767  0.00  0.00    -0.205 F 
ENDBRANCH  24  26
ENDBRANCH   2  24
TORSDOF 6
