REMARK  Name = ZINC42610681
REMARK  4 active torsions:
REMARK  status: ('A' for Active; 'I' for Inactive)
REMARK    1  A    between atoms: C_1  and  C_2
REMARK    2  A    between atoms: C_8  and  N_10
REMARK    3  A    between atoms: N_10  and  C_11
REMARK    4  A    between atoms: C_15  and  C_18
REMARK                            x       y       z     vdW  Elec       q    Type
REMARK                         _______ _______ _______ _____ _____    ______ ____
ROOT
ATOM      1  N   UNL     1       2.216  -0.001   1.042  0.00  0.00    -0.314 N 
ATOM      2  C   UNL     1       3.310  -0.974   1.099  0.00  0.00    +0.131 C 
ATOM      3  C   UNL     1       2.450   1.324   1.362  0.00  0.00    +0.142 A 
ATOM      4  C   UNL     1       1.383   2.167   1.677  0.00  0.00    +0.048 A 
ATOM      5  C   UNL     1       1.665   3.484   1.990  0.00  0.00    +0.038 A 
ATOM      6  C   UNL     1       3.006   3.892   1.972  0.00  0.00    +0.145 A 
ATOM      7  N   UNL     1       3.958   3.019   1.659  0.00  0.00    -0.269 N 
ATOM      8  N   UNL     1       3.694   1.796   1.374  0.00  0.00    -0.158 NA
ATOM      9  H   UNL     1       4.881   3.314   1.650  0.00  0.00    +0.189 HD
ENDROOT
BRANCH   1  16
ATOM     10  C   UNL     1       0.537   1.726  -0.566  0.00  0.00    +0.009 C 
ATOM     11  C   UNL     1       0.508   0.202  -0.697  0.00  0.00    +0.006 C 
ATOM     12  C   UNL     1       1.519  -0.238  -1.759  0.00  0.00    +0.005 C 
ATOM     13  C   UNL     1       1.490  -1.762  -1.890  0.00  0.00    +0.000 C 
ATOM     14  C   UNL     1       1.854  -2.396  -0.546  0.00  0.00    +0.002 C 
ATOM     15  C   UNL     1       0.844  -1.957   0.515  0.00  0.00    +0.023 C 
ATOM     16  C   UNL     1       0.873  -0.432   0.646  0.00  0.00    +0.077 C 
ENDBRANCH   1  16
BRANCH   6  17
ATOM     17  C   UNL     1       3.359   5.287   2.298  0.00  0.00    +0.404 C 
ATOM     18  O   UNL     1       4.530   5.641   2.281  0.00  0.00    -0.239 OA
ATOM     19  O   UNL     1       2.482   6.089   2.585  0.00  0.00    -0.239 OA
ENDBRANCH   6  17
TORSDOF 2
