REMARK  Name = ZINC02508690
REMARK  8 active torsions:
REMARK  status: ('A' for Active; 'I' for Inactive)
REMARK    1  A    between atoms: C_1  and  C_2
REMARK    2  A    between atoms: C_2  and  C_3
REMARK    3  A    between atoms: C_3  and  O_4
REMARK    4  A    between atoms: O_4  and  C_5
REMARK    5  A    between atoms: C_8  and  C_11
REMARK    6  A    between atoms: C_12  and  C_22
REMARK    7  A    between atoms: N_14  and  C_16
REMARK    8  A    between atoms: N_23  and  N_24
REMARK                            x       y       z     vdW  Elec       q    Type
REMARK                         _______ _______ _______ _____ _____    ______ ____
ROOT
ATOM      1  C   UNL     1       2.486   1.078  -0.003  0.00  0.00    +0.102 A 
ATOM      2  C   UNL     1       3.675   1.441  -0.779  0.00  0.00    +0.040 A 
ATOM      3  C   UNL     1       4.631   0.506  -0.491  0.00  0.00    +0.124 A 
ATOM      4  N   UNL     1       4.101  -0.379   0.379  0.00  0.00    -0.239 N 
ATOM      5  N   UNL     1       2.783  -0.014   0.669  0.00  0.00    -0.166 NA
ENDROOT
BRANCH   1   9
ATOM      6  C   UNL     1      -1.227   3.150   0.051  0.00  0.00    +0.121 A 
ATOM      7  C   UNL     1      -1.209   1.762   0.017  0.00  0.00    +0.046 A 
ATOM      8  C   UNL     1      -0.006   1.087   0.006  0.00  0.00    +0.013 A 
ATOM      9  C   UNL     1       1.192   1.800   0.016  0.00  0.00    +0.003 A 
ATOM     10  C   UNL     1       1.170   3.194   0.043  0.00  0.00    +0.013 A 
ATOM     11  C   UNL     1      -0.035   3.863   0.060  0.00  0.00    +0.046 A 
BRANCH   6  12
ATOM     12  O   UNL     1      -2.413   3.812   0.067  0.00  0.00    -0.492 OA
BRANCH  12  13
ATOM     13  C   UNL     1      -3.600   3.017   0.057  0.00  0.00    +0.229 C 
BRANCH  13  15
ATOM     14  C   UNL     1      -6.098   3.080   0.067  0.00  0.00    +0.007 C 
ATOM     15  C   UNL     1      -4.827   3.931   0.079  0.00  0.00    +0.038 C 
ENDBRANCH  13  15
ENDBRANCH  12  13
ENDBRANCH   6  12
ENDBRANCH   1   9
BRANCH   4  16
ATOM     16  C   UNL     1       4.768  -1.490   0.909  0.00  0.00    +0.065 A 
ATOM     17  C   UNL     1       6.080  -1.756   0.540  0.00  0.00    +0.028 A 
ATOM     18  C   UNL     1       6.737  -2.850   1.069  0.00  0.00    +0.002 A 
ATOM     19  C   UNL     1       6.085  -3.687   1.955  0.00  0.00    +0.000 A 
ATOM     20  C   UNL     1       4.776  -3.429   2.321  0.00  0.00    +0.002 A 
ATOM     21  C   UNL     1       4.116  -2.333   1.800  0.00  0.00    +0.028 A 
ENDBRANCH   4  16
BRANCH   2  22
ATOM     22  C   UNL     1       3.815   2.592  -1.690  0.00  0.00    +0.142 C 
ATOM     23  N   UNL     1       4.901   2.742  -2.384  0.00  0.00    -0.186 NA
BRANCH  23  24
ATOM     24  N   UNL     1       5.078   3.889  -3.168  0.00  0.00    -0.191 N 
ATOM     25  C   UNL     1       6.246   4.093  -3.809  0.00  0.00    +0.317 C 
ATOM     26  O   UNL     1       6.434   5.131  -4.414  0.00  0.00    -0.251 OA
ATOM     27  N   UNL     1       7.205   3.147  -3.779  0.00  0.00    -0.312 N 
ATOM     28  H   UNL     1       4.360   4.536  -3.251  0.00  0.00    +0.179 HD
ATOM     29  H   UNL     1       7.029   2.291  -3.360  0.00  0.00    +0.147 HD
ATOM     30  H   UNL     1       8.072   3.323  -4.177  0.00  0.00    +0.147 HD
ENDBRANCH  23  24
ENDBRANCH   2  22
TORSDOF 7
