REMARK  Name = ZINC05636405
REMARK  7 active torsions:
REMARK  status: ('A' for Active; 'I' for Inactive)
REMARK    1  A    between atoms: C_1  and  C_2
REMARK    2  A    between atoms: C_5  and  N_11
REMARK    3  A    between atoms: C_6  and  N_8
REMARK    4  A    between atoms: C_12  and  C_14
REMARK    5  A    between atoms: C_14  and  C_16
REMARK    6  A    between atoms: C_14  and  S_22
REMARK    7  A    between atoms: S_22  and  C_23
REMARK                            x       y       z     vdW  Elec       q    Type
REMARK                         _______ _______ _______ _____ _____    ______ ____
ROOT
ATOM      1  C   UNL     1      -0.549  -2.765   0.004  0.00  0.00    +0.169 C 
ENDROOT
BRANCH   1   2
ATOM      2  C   UNL     1       0.215  -2.942  -1.283  0.00  0.00    -0.025 A 
ATOM      3  C   UNL     1      -0.451  -2.898  -2.493  0.00  0.00    +0.005 A 
ATOM      4  C   UNL     1       0.251  -3.056  -3.674  0.00  0.00    +0.000 A 
ATOM      5  C   UNL     1       1.617  -3.266  -3.643  0.00  0.00    +0.000 A 
ATOM      6  C   UNL     1       2.282  -3.314  -2.433  0.00  0.00    +0.000 A 
ATOM      7  C   UNL     1       1.581  -3.152  -1.252  0.00  0.00    +0.005 A 
ENDBRANCH   1   2
BRANCH   1   9
ATOM      8  N   UNL     1      -1.268  -5.048   0.630  0.00  0.00    -0.282 N 
ATOM      9  C   UNL     1      -1.595  -3.844   0.120  0.00  0.00    +0.235 C 
ATOM     10  O   UNL     1      -2.731  -3.629  -0.247  0.00  0.00    -0.274 OA
ATOM     11  H   UNL     1      -0.344  -5.247   0.848  0.00  0.00    +0.155 HD
BRANCH   8  16
ATOM     12  C   UNL     1      -5.294  -8.948   1.502  0.00  0.00    +0.044 C 
ATOM     13  C   UNL     1      -4.224  -7.912   1.270  0.00  0.00    -0.048 A 
ATOM     14  C   UNL     1      -4.555  -6.569   1.260  0.00  0.00    +0.005 A 
ATOM     15  C   UNL     1      -3.578  -5.617   1.048  0.00  0.00    +0.026 A 
ATOM     16  C   UNL     1      -2.261  -6.010   0.845  0.00  0.00    +0.064 A 
ATOM     17  C   UNL     1      -1.933  -7.359   0.851  0.00  0.00    +0.148 A 
ATOM     18  C   UNL     1      -2.915  -8.306   1.069  0.00  0.00    +0.038 A 
BRANCH  17  19
ATOM     19  N   UNL     1      -0.532  -7.782   0.629  0.00  0.00    +0.058 N 
ATOM     20  O   UNL     1      -0.259  -8.966   0.544  0.00  0.00    -0.126 OA
ATOM     21  O   UNL     1       0.348  -6.946   0.531  0.00  0.00    -0.126 OA
ENDBRANCH  17  19
ENDBRANCH   8  16
ENDBRANCH   1   9
BRANCH   1  22
ATOM     22  S   UNL     1      -1.354  -1.139   0.011  0.00  0.00    -0.079 S 
BRANCH  22  23
ATOM     23  C   UNL     1      -0.011   0.001   0.021  0.00  0.00    +0.161 A 
ATOM     24  N   UNL     1       1.287  -0.235   0.022  0.00  0.00    -0.133 NA
ATOM     25  N   UNL     1       2.174   0.816   0.030  0.00  0.00    -0.125 NA
ATOM     26  C   UNL     1       1.724   2.055   0.036  0.00  0.00    +0.180 A 
ATOM     27  S   UNL     1      -0.043   1.787   0.030  0.00  0.00    -0.025 S 
ATOM     28  N   UNL     1       2.433   3.250   0.044  0.00  0.00    -0.336 N 
ATOM     29  H   UNL     1       1.958   4.096   0.048  0.00  0.00    +0.144 HD
ATOM     30  H   UNL     1       3.403   3.239   0.047  0.00  0.00    +0.144 HD
ENDBRANCH  22  23
ENDBRANCH   1  22
TORSDOF 6
