REMARK  Name = ZINC67306325
REMARK  5 active torsions:
REMARK  status: ('A' for Active; 'I' for Inactive)
REMARK    1  A    between atoms: C_5  and  C_7
REMARK    2  A    between atoms: C_7  and  C_8
REMARK    3  A    between atoms: C_8  and  C_9
REMARK    4  A    between atoms: C_9  and  N_10
REMARK    5  A    between atoms: C_11  and  C_13
REMARK                            x       y       z     vdW  Elec       q    Type
REMARK                         _______ _______ _______ _____ _____    ______ ____
ROOT
ATOM      1  N   UNL     1       1.537  -4.727   2.774  0.00  0.00    -0.315 N 
ATOM      2  C   UNL     1       1.579  -6.053   3.011  0.00  0.00    +0.216 C 
ATOM      3  O   UNL     1       1.500  -6.837   2.089  0.00  0.00    -0.276 OA
ATOM      4  H   UNL     1       1.600  -4.100   3.511  0.00  0.00    +0.149 HD
ENDROOT
BRANCH   2   5
ATOM      5  C   UNL     1       1.724  -6.561   4.423  0.00  0.00    +0.075 C 
ATOM      6  C   UNL     1       3.030  -6.037   5.022  0.00  0.00    +0.015 C 
ATOM      7  C   UNL     1       3.170  -6.544   6.460  0.00  0.00    +0.036 C 
ATOM      8  C   UNL     1       3.164  -8.068   6.467  0.00  0.00    +0.112 C 
ATOM      9  C   UNL     1       1.879  -8.607   5.848  0.00  0.00    +0.036 C 
ATOM     10  C   UNL     1       1.744  -8.091   4.413  0.00  0.00    +0.015 C 
ATOM     11  C   UNL     1       4.370  -8.604   5.729  0.00  0.00    +0.244 C 
ATOM     12  O   UNL     1       4.651  -8.434   4.562  0.00  0.00    -0.273 OA
ATOM     13  N   UNL     1       5.067  -9.311   6.643  0.00  0.00    -0.238 N 
ATOM     14  C   UNL     1       4.470  -9.292   7.840  0.00  0.00    +0.307 C 
ATOM     15  O   UNL     1       4.908  -9.857   8.823  0.00  0.00    -0.252 OA
ATOM     16  N   UNL     1       3.329  -8.576   7.835  0.00  0.00    -0.285 N 
ATOM     17  H   UNL     1       5.897  -9.775   6.455  0.00  0.00    +0.159 HD
ATOM     18  H   UNL     1       2.734  -8.426   8.586  0.00  0.00    +0.151 HD
ENDBRANCH   2   5
BRANCH   1  19
ATOM     19  C   UNL     1       1.396  -4.232   1.402  0.00  0.00    +0.104 C 
BRANCH  19  20
ATOM     20  C   UNL     1       1.376  -2.702   1.411  0.00  0.00    +0.023 C 
BRANCH  20  21
ATOM     21  C   UNL     1       1.229  -2.186  -0.022  0.00  0.00    +0.038 C 
BRANCH  21  26
ATOM     22  C   UNL     1      -0.017   1.378   0.010  0.00  0.00    +0.000 A 
ATOM     23  C   UNL     1       1.171   2.086   0.002  0.00  0.00    +0.001 A 
ATOM     24  C   UNL     1       2.377   1.412  -0.013  0.00  0.00    +0.020 A 
ATOM     25  C   UNL     1       2.397   0.029  -0.021  0.00  0.00    +0.044 A 
ATOM     26  C   UNL     1       1.208  -0.679  -0.013  0.00  0.00    -0.029 A 
ATOM     27  C   UNL     1       0.002  -0.004   0.002  0.00  0.00    +0.005 A 
ATOM     28 CL   UNL     1       3.912  -0.818  -0.041  0.00  0.00    -0.083 Cl
ENDBRANCH  21  26
ENDBRANCH  20  21
ENDBRANCH  19  20
ENDBRANCH   1  19
TORSDOF 5
