REMARK  Name = ZINC05734550
REMARK  4 active torsions:
REMARK  status: ('A' for Active; 'I' for Inactive)
REMARK    1  A    between atoms: C_4  and  C_7
REMARK    2  A    between atoms: C_9  and  N_15
REMARK    3  A    between atoms: N_15  and  N_16
REMARK    4  A    between atoms: C_17  and  C_18
REMARK                            x       y       z     vdW  Elec       q    Type
REMARK                         _______ _______ _______ _____ _____    ______ ____
ROOT
ATOM      1  C   UNL     1      -1.096   2.302   0.020  0.00  0.00    +0.030 C 
ATOM      2  C   UNL     1      -0.018   1.512  -0.003  0.00  0.00    +0.053 C 
ATOM      3  C   UNL     1       0.006  -0.002   0.048  0.00  0.00    +0.221 C 
ATOM      4  C   UNL     1       1.477  -0.353  -0.015  0.00  0.00    +0.257 C 
ATOM      5  O   UNL     1       1.954  -1.468  -0.001  0.00  0.00    -0.272 OA
ATOM      6  N   UNL     1       2.155   0.806  -0.089  0.00  0.00    -0.235 N 
ATOM      7  N   UNL     1       1.305   1.908  -0.084  0.00  0.00    -0.266 N 
ATOM      8  H   UNL     1       3.122   0.866  -0.141  0.00  0.00    +0.173 HD
ATOM      9  H   UNL     1       1.600   2.831  -0.131  0.00  0.00    +0.170 HD
ENDROOT
BRANCH   1  13
ATOM     10  C   UNL     1      -0.638   6.508   0.360  0.00  0.00    +0.000 A 
ATOM     11  C   UNL     1       0.344   5.666   0.852  0.00  0.00    +0.001 A 
ATOM     12  C   UNL     1       0.202   4.299   0.745  0.00  0.00    +0.008 A 
ATOM     13  C   UNL     1      -0.937   3.764   0.139  0.00  0.00    -0.023 A 
ATOM     14  C   UNL     1      -1.922   4.619  -0.360  0.00  0.00    +0.008 A 
ATOM     15  C   UNL     1      -1.768   5.985  -0.242  0.00  0.00    +0.001 A 
ENDBRANCH   1  13
BRANCH   3  16
ATOM     16  N   UNL     1      -0.583  -0.483   1.300  0.00  0.00    -0.251 N 
ATOM     17  H   UNL     1      -0.521   0.057   2.104  0.00  0.00    +0.169 HD
BRANCH  16  18
ATOM     18  N   UNL     1      -1.235  -1.722   1.338  0.00  0.00    -0.194 NA
ATOM     19  C   UNL     1      -1.756  -2.147   2.447  0.00  0.00    +0.137 C 
BRANCH  19  20
ATOM     20  C   UNL     1      -2.443  -3.452   2.486  0.00  0.00    -0.005 A 
ATOM     21  C   UNL     1      -2.539  -4.229   1.330  0.00  0.00    +0.009 A 
ATOM     22  C   UNL     1      -3.179  -5.451   1.375  0.00  0.00    +0.001 A 
ATOM     23  C   UNL     1      -3.734  -5.901   2.560  0.00  0.00    +0.000 A 
ATOM     24  C   UNL     1      -3.647  -5.134   3.708  0.00  0.00    +0.001 A 
ATOM     25  C   UNL     1      -3.006  -3.913   3.679  0.00  0.00    +0.009 A 
ENDBRANCH  19  20
ENDBRANCH  16  18
ENDBRANCH   3  16
TORSDOF 4
