REMARK  Name = ZINC40633412
REMARK  4 active torsions:
REMARK  status: ('A' for Active; 'I' for Inactive)
REMARK    1  A    between atoms: C_1  and  O_2
REMARK    2  A    between atoms: O_2  and  C_3
REMARK    3  A    between atoms: C_6  and  C_10
REMARK    4  A    between atoms: N_12  and  C_13
REMARK                            x       y       z     vdW  Elec       q    Type
REMARK                         _______ _______ _______ _____ _____    ______ ____
ROOT
ATOM      1  C   UNL     1      -0.097  -3.792  -2.387  0.00  0.00    +0.203 C 
ATOM      2  O   UNL     1      -0.517  -3.444  -3.471  0.00  0.00    -0.277 OA
ATOM      3  N   UNL     1       0.308  -5.063  -2.198  0.00  0.00    -0.284 N 
ATOM      4  H   UNL     1       0.711  -5.323  -1.355  0.00  0.00    +0.155 HD
ENDROOT
BRANCH   3   5
ATOM      5  C   UNL     1       0.147  -6.007  -3.216  0.00  0.00    +0.080 A 
ATOM      6  C   UNL     1      -0.957  -6.803  -3.238  0.00  0.00    +0.066 A 
ATOM      7  C   UNL     1      -1.147  -7.754  -4.240  0.00  0.00    +0.044 A 
ATOM      8  C   UNL     1      -0.243  -7.927  -5.234  0.00  0.00    +0.071 A 
ATOM      9  C   UNL     1       0.936  -7.131  -5.278  0.00  0.00    +0.120 A 
ATOM     10  C   UNL     1       1.137  -6.132  -4.236  0.00  0.00    +0.124 A 
ATOM     11  N   UNL     1       2.269  -5.443  -4.381  0.00  0.00    -0.189 NA
ATOM     12  S   UNL     1       2.966  -6.027  -5.708  0.00  0.00    +0.117 S 
ATOM     13  N   UNL     1       1.924  -7.162  -6.173  0.00  0.00    -0.189 NA
ATOM     14 CL   UNL     1      -0.524  -9.124  -6.460  0.00  0.00    -0.081 Cl
ATOM     15 CL   UNL     1      -2.153  -6.631  -1.992  0.00  0.00    -0.082 Cl
ENDBRANCH   3   5
BRANCH   1  18
ATOM     16  C   UNL     1      -1.617  -1.562   0.139  0.00  0.00    +0.100 C 
ATOM     17  C   UNL     1      -1.230  -2.988  -0.302  0.00  0.00    +0.023 C 
ATOM     18  C   UNL     1      -0.028  -2.802  -1.253  0.00  0.00    +0.019 C 
ATOM     19  N   UNL     1      -0.167  -1.414  -1.764  0.00  0.00    +0.388 N 
ATOM     20  C   UNL     1      -0.619  -0.631  -0.583  0.00  0.00    -0.050 C 
ATOM     21  H   UNL     1       0.721  -1.070  -2.097  0.00  0.00    -0.085 HD
ATOM     22  H   UNL     1      -0.860  -1.375  -2.497  0.00  0.00    -0.085 HD
BRANCH  16  24
ATOM     23  C   UNL     1      -2.372  -0.465   2.132  0.00  0.00    +0.194 C 
ATOM     24  O   UNL     1      -1.486  -1.427   1.556  0.00  0.00    -0.382 OA
ENDBRANCH  16  24
ENDBRANCH   1  18
TORSDOF 3
