REMARK  Name = ZINC48803832
REMARK  8 active torsions:
REMARK  status: ('A' for Active; 'I' for Inactive)
REMARK    1  A    between atoms: C_1  and  C_2
REMARK    2  A    between atoms: C_7  and  C_8
REMARK    3  A    between atoms: C_8  and  C_10
REMARK    4  A    between atoms: C_8  and  N_11
REMARK    5  A    between atoms: C_12  and  C_14
REMARK    6  A    between atoms: N_16  and  C_17
REMARK    7  A    between atoms: C_20  and  N_23
REMARK    8  A    between atoms: C_24  and  C_26
REMARK                            x       y       z     vdW  Elec       q    Type
REMARK                         _______ _______ _______ _____ _____    ______ ____
ROOT
ATOM      1  C   UNL     1       1.828  -1.043   5.692  0.00  0.00    +0.303 C 
ATOM      2  O   UNL     1       1.799  -2.252   5.581  0.00  0.00    -0.265 OA
ATOM      3  N   UNL     1       2.404  -0.479   6.771  0.00  0.00    -0.278 N 
ATOM      4  H   UNL     1       2.487   0.486   6.829  0.00  0.00    +0.155 HD
ENDROOT
BRANCH   3   5
ATOM      5  C   UNL     1       2.883  -1.284   7.809  0.00  0.00    +0.034 A 
ATOM      6  C   UNL     1       2.791  -0.849   9.126  0.00  0.00    +0.025 A 
ATOM      7  C   UNL     1       3.264  -1.644  10.150  0.00  0.00    +0.025 A 
ATOM      8  C   UNL     1       3.833  -2.879   9.865  0.00  0.00    +0.034 A 
ATOM      9  C   UNL     1       3.926  -3.314   8.549  0.00  0.00    +0.025 A 
ATOM     10  C   UNL     1       3.447  -2.522   7.525  0.00  0.00    +0.025 A 
BRANCH   8  11
ATOM     11  N   UNL     1       4.312  -3.685  10.903  0.00  0.00    -0.279 N 
ATOM     12  C   UNL     1       3.678  -3.700  12.092  0.00  0.00    +0.284 C 
ATOM     13  O   UNL     1       2.739  -2.952  12.291  0.00  0.00    -0.266 OA
ATOM     14  H   UNL     1       5.101  -4.232  10.768  0.00  0.00    +0.155 HD
BRANCH  12  15
ATOM     15  C   UNL     1       4.119  -4.619  13.147  0.00  0.00    +0.189 A 
ATOM     16  C   UNL     1       3.564  -4.740  14.389  0.00  0.00    +0.054 A 
ATOM     17  C   UNL     1       4.296  -5.731  15.062  0.00  0.00    +0.042 A 
ATOM     18  C   UNL     1       5.253  -6.165  14.213  0.00  0.00    +0.196 A 
ATOM     19  O   UNL     1       5.140  -5.496  13.058  0.00  0.00    -0.458 OA
ENDBRANCH  12  15
ENDBRANCH   8  11
ENDBRANCH   3   5
BRANCH   1  21
ATOM     20  N   UNL     1       0.647  -0.746   3.552  0.00  0.00    -0.301 N 
ATOM     21  C   UNL     1       1.224  -0.182   4.632  0.00  0.00    +0.300 C 
ATOM     22  O   UNL     1       1.252   1.026   4.743  0.00  0.00    -0.265 OA
ATOM     23  H   UNL     1       0.625  -1.712   3.464  0.00  0.00    +0.150 HD
BRANCH  20  24
ATOM     24  C   UNL     1       0.055   0.099   2.513  0.00  0.00    +0.101 C 
ATOM     25  C   UNL     1      -1.379   0.462   2.906  0.00  0.00    +0.033 C 
BRANCH  24  32
ATOM     26  C   UNL     1       0.033   1.555   0.017  0.00  0.00    +0.044 C 
ATOM     27  C   UNL     1       0.032   0.048   0.010  0.00  0.00    -0.046 A 
ATOM     28  C   UNL     1       0.027  -0.638  -1.190  0.00  0.00    +0.004 A 
ATOM     29  C   UNL     1       0.026  -2.020  -1.196  0.00  0.00    +0.000 A 
ATOM     30  C   UNL     1       0.031  -2.717  -0.002  0.00  0.00    +0.000 A 
ATOM     31  C   UNL     1       0.037  -2.031   1.198  0.00  0.00    +0.006 A 
ATOM     32  C   UNL     1       0.043  -0.649   1.204  0.00  0.00    -0.025 A 
ENDBRANCH  24  32
ENDBRANCH  20  24
ENDBRANCH   1  21
TORSDOF 6
