REMARK  Name = ZINC23549959
REMARK  7 active torsions:
REMARK  status: ('A' for Active; 'I' for Inactive)
REMARK    1  A    between atoms: C_3  and  C_24
REMARK    2  A    between atoms: C_4  and  N_21
REMARK    3  A    between atoms: C_6  and  N_7
REMARK    4  A    between atoms: N_7  and  C_8
REMARK    5  A    between atoms: C_10  and  O_20
REMARK    6  A    between atoms: C_12  and  O_19
REMARK    7  A    between atoms: C_14  and  O_18
REMARK                            x       y       z     vdW  Elec       q    Type
REMARK                         _______ _______ _______ _____ _____    ______ ____
ROOT
ATOM      1  N   UNL     1       2.054  -0.133  -1.298  0.00  0.00    -0.317 N 
ATOM      2  H   UNL     1       2.584  -0.128  -0.334  0.00  0.00    +0.149 HD
ENDROOT
BRANCH   1   8
ATOM      3  C   UNL     1       2.024   0.329  -3.662  0.00  0.00    +0.024 A 
ATOM      4  C   UNL     1       2.678   0.717  -4.809  0.00  0.00    +0.019 A 
ATOM      5  C   UNL     1       4.038   1.040  -4.758  0.00  0.00    +0.093 A 
ATOM      6  C   UNL     1       4.725   0.967  -3.542  0.00  0.00    +0.142 A 
ATOM      7  C   UNL     1       4.068   0.587  -2.406  0.00  0.00    +0.056 A 
ATOM      8  C   UNL     1       2.716   0.259  -2.456  0.00  0.00    +0.031 A 
BRANCH   6   9
ATOM      9  N   UNL     1       6.164   1.309  -3.484  0.00  0.00    +0.057 N 
ATOM     10  O   UNL     1       6.734   1.369  -2.409  0.00  0.00    -0.126 OA
ATOM     11  O   UNL     1       6.779   1.531  -4.512  0.00  0.00    -0.126 OA
ENDBRANCH   6   9
BRANCH   5  12
ATOM     12  C   UNL     1       4.745   1.456  -5.982  0.00  0.00    +0.389 C 
ATOM     13  O   UNL     1       5.341   2.515  -6.009  0.00  0.00    -0.241 OA
ATOM     14  O   UNL     1       4.731   0.663  -7.071  0.00  0.00    -0.241 OA
ENDBRANCH   5  12
ENDBRANCH   1   8
BRANCH   1  15
ATOM     15  C   UNL     1       0.652  -0.552  -1.362  0.00  0.00    +0.235 C 
ATOM     16  C   UNL     1      -0.059  -0.153  -0.066  0.00  0.00    +0.192 C 
ATOM     17  C   UNL     1      -1.508  -0.647  -0.116  0.00  0.00    +0.178 C 
ATOM     18  C   UNL     1      -1.512  -2.163  -0.339  0.00  0.00    +0.171 C 
ATOM     19  C   UNL     1      -0.745  -2.483  -1.624  0.00  0.00    +0.196 C 
ATOM     20  O   UNL     1       0.585  -1.970  -1.524  0.00  0.00    -0.354 OA
BRANCH  18  21
ATOM     21  O   UNL     1      -2.859  -2.624  -0.459  0.00  0.00    -0.387 OA
ATOM     22  H   UNL     1      -3.062  -3.693  -0.624  0.00  0.00    +0.210 HD
ENDBRANCH  18  21
BRANCH  17  23
ATOM     23  O   UNL     1      -2.159  -0.344   1.120  0.00  0.00    -0.386 OA
ATOM     24  H   UNL     1      -3.212  -0.625   1.270  0.00  0.00    +0.210 HD
ENDBRANCH  17  23
BRANCH  16  25
ATOM     25  O   UNL     1      -0.044   1.269   0.069  0.00  0.00    -0.385 OA
ATOM     26  H   UNL     1      -0.511   1.744   0.945  0.00  0.00    +0.210 HD
ENDBRANCH  16  25
ENDBRANCH   1  15
TORSDOF 7
