REMARK  Name = ZINC40038433
REMARK  10 active torsions:
REMARK  status: ('A' for Active; 'I' for Inactive)
REMARK    1  A    between atoms: C_1  and  C_2
REMARK    2  A    between atoms: C_2  and  O_3
REMARK    3  A    between atoms: O_3  and  C_4
REMARK    4  A    between atoms: C_4  and  C_6
REMARK    5  A    between atoms: C_10  and  N_11
REMARK    6  A    between atoms: C_12  and  C_14
REMARK    7  A    between atoms: C_15  and  C_25
REMARK    8  A    between atoms: C_17  and  C_24
REMARK    9  A    between atoms: C_19  and  C_23
REMARK   10  A    between atoms: N_27  and  C_30
REMARK                            x       y       z     vdW  Elec       q    Type
REMARK                         _______ _______ _______ _____ _____    ______ ____
ROOT
ATOM      1  C   UNL     1      -2.729  -2.731   0.046  0.00  0.00    +0.091 A 
ATOM      2  C   UNL     1      -3.423  -3.068  -1.182  0.00  0.00    -0.025 A 
ATOM      3  C   UNL     1      -4.618  -3.673  -0.997  0.00  0.00    -0.021 A 
ATOM      4  S   UNL     1      -4.795  -3.787   0.757  0.00  0.00    -0.079 S 
ATOM      5  C   UNL     1      -3.355  -3.070   1.238  0.00  0.00    +0.087 A 
ATOM      6  C   UNL     1      -5.553  -4.128  -2.074  0.00  0.00    -0.036 C 
ATOM      7  N   UNL     1      -5.156  -3.479  -3.337  0.00  0.00    +0.381 N 
ATOM      8  C   UNL     1      -3.716  -3.670  -3.559  0.00  0.00    -0.074 C 
ATOM      9  C   UNL     1      -2.912  -2.797  -2.590  0.00  0.00    +0.018 C 
ATOM     10  C   UNL     1      -5.906  -4.075  -4.450  0.00  0.00    -0.096 C 
ATOM     11  H   UNL     1      -5.359  -2.492  -3.286  0.00  0.00    -0.082 HD
ENDROOT
BRANCH   5  12
ATOM     12  N   UNL     1      -2.897  -2.862   2.529  0.00  0.00    -0.273 N 
ATOM     13  C   UNL     1      -3.642  -3.257   3.580  0.00  0.00    +0.284 C 
ATOM     14  O   UNL     1      -4.717  -3.797   3.395  0.00  0.00    -0.266 OA
ATOM     15  H   UNL     1      -2.041  -2.431   2.676  0.00  0.00    +0.156 HD
BRANCH  13  16
ATOM     16  C   UNL     1      -3.157  -3.037   4.949  0.00  0.00    +0.194 A 
ATOM     17  C   UNL     1      -3.817  -3.397   6.080  0.00  0.00    +0.008 A 
ATOM     18  C   UNL     1      -2.965  -2.984   7.195  0.00  0.00    +0.027 A 
ATOM     19  C   UNL     1      -3.073  -3.067   8.585  0.00  0.00    -0.039 A 
ATOM     20  C   UNL     1      -2.073  -2.570   9.373  0.00  0.00    +0.007 A 
ATOM     21  C   UNL     1      -0.952  -1.985   8.800  0.00  0.00    -0.047 A 
ATOM     22  C   UNL     1      -0.827  -1.893   7.431  0.00  0.00    +0.050 A 
ATOM     23  C   UNL     1      -1.831  -2.392   6.609  0.00  0.00    +0.137 A 
ATOM     24  O   UNL     1      -1.985  -2.450   5.272  0.00  0.00    -0.450 OA
ATOM     25  C   UNL     1       0.140  -1.443   9.686  0.00  0.00    +0.044 C 
ATOM     26  C   UNL     1      -4.288  -3.700   9.214  0.00  0.00    +0.044 C 
ATOM     27  C   UNL     1      -5.156  -4.083   6.168  0.00  0.00    +0.048 C 
ENDBRANCH  13  16
ENDBRANCH   5  12
BRANCH   1  28
ATOM     28  C   UNL     1      -1.423  -2.070   0.029  0.00  0.00    +0.342 C 
ATOM     29  O   UNL     1      -0.404  -2.735   0.006  0.00  0.00    -0.245 OA
BRANCH  28  30
ATOM     30  O   UNL     1      -1.349  -0.723   0.039  0.00  0.00    -0.461 OA
BRANCH  30  32
ATOM     31  C   UNL     1      -0.159   1.380   0.037  0.00  0.00    +0.048 C 
ATOM     32  C   UNL     1      -0.042  -0.145   0.022  0.00  0.00    +0.229 C 
ENDBRANCH  30  32
ENDBRANCH  28  30
ENDBRANCH   1  28
TORSDOF 5
