REMARK  Name = ZINC51987193
REMARK  6 active torsions:
REMARK  status: ('A' for Active; 'I' for Inactive)
REMARK    1  A    between atoms: C_1  and  C_2
REMARK    2  A    between atoms: C_2  and  O_3
REMARK    3  A    between atoms: O_3  and  C_4
REMARK    4  A    between atoms: C_5  and  N_22
REMARK    5  A    between atoms: C_8  and  N_10
REMARK    6  A    between atoms: N_10  and  C_11
REMARK                            x       y       z     vdW  Elec       q    Type
REMARK                         _______ _______ _______ _____ _____    ______ ____
ROOT
ATOM      1  C   UNL     1      -1.498  -1.847   0.006  0.00  0.00    +0.238 A 
ATOM      2  C   UNL     1      -2.781  -2.390   0.010  0.00  0.00    +0.087 A 
ATOM      3  C   UNL     1      -2.932  -3.772   0.004  0.00  0.00    +0.031 A 
ATOM      4  C   UNL     1      -1.793  -4.561  -0.006  0.00  0.00    +0.045 A 
ATOM      5  C   UNL     1      -0.545  -3.953  -0.009  0.00  0.00    +0.123 A 
ATOM      6  N   UNL     1      -0.434  -2.632  -0.008  0.00  0.00    -0.197 NA
ENDROOT
BRANCH   2   7
ATOM      7  N   UNL     1      -3.907  -1.552   0.020  0.00  0.00    -0.354 N 
ATOM      8  H   UNL     1      -3.795  -0.589   0.025  0.00  0.00    +0.142 HD
ATOM      9  H   UNL     1      -4.798  -1.937   0.023  0.00  0.00    +0.142 HD
ENDBRANCH   2   7
BRANCH   5  10
ATOM     10  N   UNL     1       0.605  -4.740  -0.018  0.00  0.00    -0.322 N 
ATOM     11  H   UNL     1       1.479  -4.321  -0.021  0.00  0.00    +0.148 HD
BRANCH  10  12
ATOM     12  C   UNL     1       0.492  -6.200  -0.025  0.00  0.00    +0.109 C 
ATOM     13  C   UNL     1       1.759  -6.811   0.578  0.00  0.00    +0.068 C 
ATOM     14  C   UNL     1       1.750  -8.319   0.293  0.00  0.00    +0.231 C 
ATOM     15  O   UNL     1       1.838  -8.510  -1.120  0.00  0.00    -0.492 OA
ATOM     16  C   UNL     1       0.991  -7.801  -1.910  0.00  0.00    +0.125 A 
ATOM     17  C   UNL     1       0.321  -6.684  -1.443  0.00  0.00    +0.014 A 
ATOM     18  C   UNL     1      -0.529  -5.989  -2.286  0.00  0.00    +0.009 A 
ATOM     19  C   UNL     1      -0.712  -6.406  -3.590  0.00  0.00    +0.001 A 
ATOM     20  C   UNL     1      -0.045  -7.523  -4.059  0.00  0.00    +0.004 A 
ATOM     21  C   UNL     1       0.801  -8.219  -3.223  0.00  0.00    +0.046 A 
ENDBRANCH  10  12
ENDBRANCH   5  10
BRANCH   1  22
ATOM     22  O   UNL     1      -1.339  -0.499   0.012  0.00  0.00    -0.475 OA
BRANCH  22  24
ATOM     23  C   UNL     1      -0.019   1.526   0.010  0.00  0.00    +0.048 C 
ATOM     24  C   UNL     1       0.002  -0.004   0.002  0.00  0.00    +0.227 C 
ENDBRANCH  22  24
ENDBRANCH   1  22
TORSDOF 5
