REMARK  Name = ZINC67042040
REMARK  7 active torsions:
REMARK  status: ('A' for Active; 'I' for Inactive)
REMARK    1  A    between atoms: C_1  and  C_2
REMARK    2  A    between atoms: C_2  and  C_26
REMARK    3  A    between atoms: C_4  and  N_10
REMARK    4  A    between atoms: C_6  and  C_8
REMARK    5  A    between atoms: C_6  and  C_9
REMARK    6  A    between atoms: N_13  and  C_14
REMARK    7  A    between atoms: C_14  and  C_15
REMARK                            x       y       z     vdW  Elec       q    Type
REMARK                         _______ _______ _______ _____ _____    ______ ____
ROOT
ATOM      1  N   UNL     1      -3.540  -0.922   1.007  0.00  0.00    -0.297 N 
ATOM      2  C   UNL     1      -4.546  -0.473   1.784  0.00  0.00    +0.300 C 
ATOM      3  O   UNL     1      -4.333   0.386   2.617  0.00  0.00    -0.253 OA
ATOM      4  N   UNL     1      -5.787  -0.978   1.638  0.00  0.00    -0.295 N 
ATOM      5  H   UNL     1      -3.710  -1.608   0.342  0.00  0.00    +0.151 HD
ATOM      6  H   UNL     1      -5.957  -1.663   0.973  0.00  0.00    +0.151 HD
ENDROOT
BRANCH   1  10
ATOM      7  C   UNL     1      -0.019   1.528   0.010  0.00  0.00    -0.010 C 
ATOM      8  C   UNL     1       0.002  -0.004   0.002  0.00  0.00    -0.072 C 
ATOM      9  C   UNL     1      -1.419  -0.538  -0.145  0.00  0.00    +0.009 C 
ATOM     10  C   UNL     1      -2.188  -0.373   1.166  0.00  0.00    +0.072 C 
ATOM     11  C   UNL     1      -1.451  -1.155   2.253  0.00  0.00    +0.009 C 
ATOM     12  C   UNL     1      -0.030  -0.627   2.418  0.00  0.00    -0.072 C 
ATOM     13  N   UNL     1       0.697  -0.529   1.164  0.00  0.00    +0.386 N 
ATOM     14  C   UNL     1       0.730  -1.621   3.326  0.00  0.00    -0.010 C 
ATOM     15  C   UNL     1      -0.059   0.719   3.151  0.00  0.00    -0.010 C 
ATOM     16  C   UNL     1       0.791  -0.440  -1.254  0.00  0.00    -0.010 C 
ATOM     17  H   UNL     1       1.056  -1.460   0.929  0.00  0.00    -0.084 HD
ATOM     18  H   UNL     1       1.534   0.040   1.322  0.00  0.00    -0.084 HD
ENDBRANCH   1  10
BRANCH   4  19
ATOM     19  C   UNL     1      -6.880  -0.490   2.483  0.00  0.00    +0.141 C 
BRANCH  19  20
ATOM     20  C   UNL     1      -8.154  -1.209   2.121  0.00  0.00    -0.027 A 
ATOM     21  C   UNL     1      -8.982  -0.694   1.141  0.00  0.00    +0.009 A 
ATOM     22  C   UNL     1     -10.153  -1.349   0.804  0.00  0.00    +0.050 A 
ATOM     23  C   UNL     1     -10.492  -2.525   1.452  0.00  0.00    +0.162 A 
ATOM     24  C   UNL     1      -9.661  -3.042   2.435  0.00  0.00    +0.162 A 
ATOM     25  C   UNL     1      -8.488  -2.386   2.767  0.00  0.00    +0.054 A 
ATOM     26  O   UNL     1     -10.005  -4.202   3.066  0.00  0.00    -0.488 OA
ATOM     27  C   UNL     1     -11.148  -4.133   3.921  0.00  0.00    +0.232 C 
ATOM     28  C   UNL     1     -12.429  -4.319   3.124  0.00  0.00    +0.082 C 
ATOM     29  C   UNL     1     -12.661  -3.191   2.131  0.00  0.00    +0.232 C 
ATOM     30  O   UNL     1     -11.644  -3.182   1.127  0.00  0.00    -0.488 OA
ENDBRANCH  19  20
ENDBRANCH   4  19
TORSDOF 3
