REMARK  Name = ZINC02470410
REMARK  10 active torsions:
REMARK  status: ('A' for Active; 'I' for Inactive)
REMARK    1  A    between atoms: C_1  and  C_2
REMARK    2  A    between atoms: C_2  and  O_3
REMARK    3  A    between atoms: O_3  and  C_4
REMARK    4  A    between atoms: C_7  and  C_11
REMARK    5  A    between atoms: C_9  and  C_10
REMARK    6  A    between atoms: C_11  and  C_13
REMARK    7  A    between atoms: C_11  and  N_25
REMARK    8  A    between atoms: C_19  and  C_24
REMARK    9  A    between atoms: C_22  and  O_23
REMARK   10  A    between atoms: N_25  and  C_26
REMARK                            x       y       z     vdW  Elec       q    Type
REMARK                         _______ _______ _______ _____ _____    ______ ____
ROOT
ATOM      1  C   UNL     1       4.911   4.009  -0.032  0.00  0.00    +0.136 C 
ENDROOT
BRANCH   1   2
ATOM      2  C   UNL     1       3.731   3.076  -0.118  0.00  0.00    +0.021 A 
ATOM      3  C   UNL     1       3.947   1.702  -0.192  0.00  0.00    +0.010 A 
ATOM      4  C   UNL     1       2.902   0.833  -0.270  0.00  0.00    +0.010 A 
ATOM      5  C   UNL     1       1.586   1.324  -0.276  0.00  0.00    +0.004 A 
ATOM      6  C   UNL     1       0.480   0.456  -0.356  0.00  0.00    +0.012 A 
ATOM      7  C   UNL     1      -0.770   1.005  -0.363  0.00  0.00    +0.023 A 
ATOM      8  C   UNL     1      -0.923   2.387  -0.282  0.00  0.00    +0.039 A 
ATOM      9  N   UNL     1       0.109   3.192  -0.208  0.00  0.00    -0.248 NA
ATOM     10  C   UNL     1       1.359   2.720  -0.202  0.00  0.00    +0.113 A 
ATOM     11  C   UNL     1       2.466   3.591  -0.122  0.00  0.00    +0.148 A 
ATOM     12  C   UNL     1      -2.311   2.974  -0.286  0.00  0.00    +0.065 C 
BRANCH  11  13
ATOM     13  O   UNL     1       2.275   4.934  -0.050  0.00  0.00    -0.504 OA
ATOM     14  H   UNL     1       2.196   5.272   0.853  0.00  0.00    +0.292 HD
ENDBRANCH  11  13
ENDBRANCH   1   2
BRANCH   1  18
ATOM     15  C   UNL     1       5.789   4.823   4.070  0.00  0.00    +0.123 A 
ATOM     16  C   UNL     1       6.136   3.600   3.515  0.00  0.00    +0.046 A 
ATOM     17  C   UNL     1       5.851   3.339   2.189  0.00  0.00    +0.009 A 
ATOM     18  C   UNL     1       5.221   4.296   1.415  0.00  0.00    -0.022 A 
ATOM     19  C   UNL     1       4.879   5.518   1.964  0.00  0.00    +0.012 A 
ATOM     20  C   UNL     1       5.156   5.781   3.292  0.00  0.00    -0.008 A 
ATOM     21  C   UNL     1       4.779   7.111   3.891  0.00  0.00    +0.047 C 
BRANCH  15  22
ATOM     22  O   UNL     1       6.068   5.082   5.375  0.00  0.00    -0.492 OA
BRANCH  22  24
ATOM     23  C   UNL     1       6.952   4.521   7.553  0.00  0.00    +0.048 C 
ATOM     24  C   UNL     1       6.721   4.050   6.116  0.00  0.00    +0.225 C 
ENDBRANCH  22  24
ENDBRANCH  15  22
ENDBRANCH   1  18
BRANCH   1  25
ATOM     25  N   UNL     1       6.075   3.384  -0.665  0.00  0.00    -0.320 N 
ATOM     26  H   UNL     1       6.707   2.880  -0.129  0.00  0.00    +0.148 HD
BRANCH  25  27
ATOM     27  C   UNL     1       6.274   3.513  -2.035  0.00  0.00    +0.097 A 
ATOM     28  C   UNL     1       5.309   4.143  -2.816  0.00  0.00    +0.041 A 
ATOM     29  C   UNL     1       5.523   4.269  -4.176  0.00  0.00    +0.005 A 
ATOM     30  C   UNL     1       6.693   3.749  -4.715  0.00  0.00    +0.018 A 
ATOM     31  C   UNL     1       7.604   3.131  -3.882  0.00  0.00    +0.084 A 
ATOM     32  N   UNL     1       7.430   2.994  -2.541  0.00  0.00    -0.350 N 
ATOM     33  H   UNL     1       8.126   2.529  -1.945  0.00  0.00    +0.166 HD
ENDBRANCH  25  27
ENDBRANCH   1  25
TORSDOF 7
