REMARK  Name = ZINC15959703
REMARK  7 active torsions:
REMARK  status: ('A' for Active; 'I' for Inactive)
REMARK    1  A    between atoms: C_1  and  C_2
REMARK    2  A    between atoms: C_17  and  C_20
REMARK    3  A    between atoms: C_20  and  C_21
REMARK    4  A    between atoms: C_21  and  C_22
REMARK    5  A    between atoms: N_27  and  C_30
REMARK    6  A    between atoms: C_30  and  C_31
REMARK    7  A    between atoms: C_31  and  C_32
REMARK                            x       y       z     vdW  Elec       q    Type
REMARK                         _______ _______ _______ _____ _____    ______ ____
ROOT
ATOM      1  C   UNL     1      -0.018   1.503   0.010  0.00  0.00    +0.044 C 
ATOM      2  C   UNL     1       0.002  -0.004   0.002  0.00  0.00    -0.049 A 
ATOM      3  C   UNL     1       0.006  -0.691  -1.199  0.00  0.00    +0.011 A 
ATOM      4  C   UNL     1       0.024  -2.068  -1.207  0.00  0.00    +0.005 A 
ATOM      5  C   UNL     1       0.038  -2.783  -0.013  0.00  0.00    +0.057 A 
ATOM      6  C   UNL     1       0.035  -2.084   1.193  0.00  0.00    +0.063 A 
ATOM      7  C   UNL     1       0.023  -0.703   1.194  0.00  0.00    +0.025 A 
ATOM      8 CL   UNL     1       0.054  -2.951   2.696  0.00  0.00    -0.082 Cl
ATOM      9  N   UNL     1       0.052  -4.156  -0.272  0.00  0.00    -0.282 N 
ATOM     10  C   UNL     1       0.047  -4.423  -1.592  0.00  0.00    +0.243 C 
ATOM     11  O   UNL     1       0.052  -5.521  -2.109  0.00  0.00    -0.273 OA
ATOM     12  C   UNL     1       0.033  -3.096  -2.301  0.00  0.00    +0.136 C 
ATOM     13  C   UNL     1      -1.192  -2.960  -3.213  0.00  0.00    +0.122 C 
ATOM     14  C   UNL     1      -0.666  -3.318  -4.632  0.00  0.00    +0.107 C 
ATOM     15  C   UNL     1       0.830  -3.639  -4.429  0.00  0.00    +0.068 C 
ATOM     16  N   UNL     1       1.209  -2.945  -3.178  0.00  0.00    -0.295 NA
ATOM     17  C   UNL     1      -1.419  -4.584  -4.972  0.00  0.00    +0.227 C 
ATOM     18  O   UNL     1      -1.309  -5.208  -6.006  0.00  0.00    -0.275 OA
ATOM     19  N   UNL     1      -2.226  -4.909  -3.956  0.00  0.00    -0.241 N 
ATOM     20  C   UNL     1      -2.185  -4.057  -2.906  0.00  0.00    +0.228 C 
ATOM     21  O   UNL     1      -2.830  -4.152  -1.884  0.00  0.00    -0.275 OA
ATOM     22  H   UNL     1       0.064  -4.837   0.418  0.00  0.00    +0.155 HD
ATOM     23  H   UNL     1       1.401  -1.971  -3.360  0.00  0.00    +0.123 HD
ENDROOT
BRANCH  15  24
ATOM     24  C   UNL     1       1.651  -3.126  -5.614  0.00  0.00    +0.028 C 
BRANCH  24  25
ATOM     25  C   UNL     1       3.108  -3.563  -5.454  0.00  0.00    +0.097 C 
BRANCH  25  26
ATOM     26  C   UNL     1       3.916  -3.058  -6.621  0.00  0.00    +0.211 C 
ATOM     27  O   UNL     1       3.379  -2.411  -7.495  0.00  0.00    -0.276 OA
ATOM     28  N   UNL     1       5.235  -3.324  -6.693  0.00  0.00    -0.329 N 
ATOM     29  H   UNL     1       5.664  -3.841  -5.994  0.00  0.00    +0.145 HD
ATOM     30  H   UNL     1       5.755  -2.999  -7.444  0.00  0.00    +0.145 HD
ENDBRANCH  25  26
ENDBRANCH  24  25
ENDBRANCH  15  24
BRANCH  19  31
ATOM     31  C   UNL     1      -3.094  -6.089  -3.979  0.00  0.00    +0.121 C 
BRANCH  31  32
ATOM     32  C   UNL     1      -2.340  -7.287  -3.399  0.00  0.00    +0.054 C 
BRANCH  32  33
ATOM     33  C   UNL     1      -3.232  -8.502  -3.423  0.00  0.00    -0.046 A 
ATOM     34  C   UNL     1      -4.048  -8.781  -2.343  0.00  0.00    +0.004 A 
ATOM     35  C   UNL     1      -4.867  -9.895  -2.365  0.00  0.00    +0.000 A 
ATOM     36  C   UNL     1      -4.869 -10.729  -3.467  0.00  0.00    +0.000 A 
ATOM     37  C   UNL     1      -4.052 -10.450  -4.547  0.00  0.00    +0.000 A 
ATOM     38  C   UNL     1      -3.237  -9.334  -4.527  0.00  0.00    +0.004 A 
ENDBRANCH  32  33
ENDBRANCH  31  32
ENDBRANCH  19  31
TORSDOF 6
