REMARK  Name = ZINC15133323
REMARK  10 active torsions:
REMARK  status: ('A' for Active; 'I' for Inactive)
REMARK    1  A    between atoms: C_1  and  C_2
REMARK    2  A    between atoms: C_2  and  C_24
REMARK    3  A    between atoms: N_3  and  N_4
REMARK    4  A    between atoms: C_5  and  C_7
REMARK    5  A    between atoms: C_7  and  N_8
REMARK    6  A    between atoms: C_9  and  C_11
REMARK    7  A    between atoms: C_11  and  C_12
REMARK    8  A    between atoms: C_11  and  C_18
REMARK    9  A    between atoms: C_26  and  O_31
REMARK   10  A    between atoms: C_29  and  O_30
REMARK                            x       y       z     vdW  Elec       q    Type
REMARK                         _______ _______ _______ _____ _____    ______ ____
ROOT
ATOM      1  C   UNL     1      -0.706  -1.429   4.591  0.00  0.00    +0.201 C 
ENDROOT
BRANCH   1   3
ATOM      2  N   UNL     1      -1.166  -2.477   2.398  0.00  0.00    -0.205 N 
ATOM      3  C   UNL     1      -0.882  -2.636   3.706  0.00  0.00    +0.249 C 
ATOM      4  O   UNL     1      -0.768  -3.751   4.171  0.00  0.00    -0.272 OA
ATOM      5  H   UNL     1      -1.257  -1.585   2.027  0.00  0.00    +0.177 HD
BRANCH   2   8
ATOM      6  C   UNL     1      -1.744  -2.061  -0.262  0.00  0.00    +0.068 C 
ATOM      7  C   UNL     1      -1.603  -3.445   0.316  0.00  0.00    +0.067 C 
ATOM      8  N   UNL     1      -1.329  -3.599   1.575  0.00  0.00    -0.184 NA
BRANCH   7   9
ATOM      9  C   UNL     1      -1.775  -4.626  -0.550  0.00  0.00    +0.042 A 
ATOM     10  C   UNL     1      -2.063  -4.465  -1.907  0.00  0.00    +0.058 A 
ATOM     11  C   UNL     1      -2.223  -5.577  -2.714  0.00  0.00    +0.118 A 
ATOM     12  C   UNL     1      -2.097  -6.852  -2.177  0.00  0.00    +0.049 A 
ATOM     13  C   UNL     1      -1.812  -7.019  -0.836  0.00  0.00    +0.049 A 
ATOM     14  C   UNL     1      -1.644  -5.915  -0.017  0.00  0.00    +0.126 A 
BRANCH  14  15
ATOM     15  O   UNL     1      -1.358  -6.081   1.301  0.00  0.00    -0.506 OA
ATOM     16  H   UNL     1      -2.139  -6.140   1.868  0.00  0.00    +0.292 HD
ENDBRANCH  14  15
BRANCH  11  17
ATOM     17  O   UNL     1      -2.504  -5.422  -4.035  0.00  0.00    -0.507 OA
ATOM     18  H   UNL     1      -1.721  -5.369  -4.600  0.00  0.00    +0.292 HD
ENDBRANCH  11  17
ENDBRANCH   7   9
ENDBRANCH   2   8
ENDBRANCH   1   3
BRANCH   1  19
ATOM     19  N   UNL     1      -0.406  -1.865   5.957  0.00  0.00    -0.306 N 
ATOM     20  C   UNL     1      -0.208  -0.951   6.928  0.00  0.00    +0.225 C 
ATOM     21  O   UNL     1      -0.279   0.232   6.671  0.00  0.00    -0.275 OA
ATOM     22  H   UNL     1      -0.350  -2.811   6.163  0.00  0.00    +0.149 HD
BRANCH  20  23
ATOM     23  C   UNL     1       0.100  -1.400   8.333  0.00  0.00    +0.135 C 
BRANCH  23  24
ATOM     24  C   UNL     1       1.369  -2.212   8.334  0.00  0.00    -0.031 A 
ATOM     25  C   UNL     1       2.509  -1.714   7.732  0.00  0.00    +0.005 A 
ATOM     26  C   UNL     1       3.673  -2.460   7.732  0.00  0.00    +0.000 A 
ATOM     27  C   UNL     1       3.697  -3.703   8.336  0.00  0.00    +0.000 A 
ATOM     28  C   UNL     1       2.558  -4.201   8.939  0.00  0.00    +0.000 A 
ATOM     29  C   UNL     1       1.395  -3.453   8.942  0.00  0.00    +0.005 A 
ENDBRANCH  23  24
BRANCH  23  30
ATOM     30  C   UNL     1       0.276  -0.193   9.219  0.00  0.00    -0.031 A 
ATOM     31  C   UNL     1       1.163   0.805   8.859  0.00  0.00    +0.005 A 
ATOM     32  C   UNL     1       1.324   1.912   9.671  0.00  0.00    +0.000 A 
ATOM     33  C   UNL     1       0.598   2.022  10.842  0.00  0.00    +0.000 A 
ATOM     34  C   UNL     1      -0.290   1.024  11.201  0.00  0.00    +0.000 A 
ATOM     35  C   UNL     1      -0.454  -0.081  10.387  0.00  0.00    +0.005 A 
ENDBRANCH  23  30
ENDBRANCH  20  23
ENDBRANCH   1  19
TORSDOF 9
