REMARK  Name = ZINC07876279
REMARK  10 active torsions:
REMARK  status: ('A' for Active; 'I' for Inactive)
REMARK    1  A    between atoms: C_1  and  C_2
REMARK    2  A    between atoms: C_8  and  C_16
REMARK    3  A    between atoms: C_16  and  O_18
REMARK    4  A    between atoms: O_18  and  C_19
REMARK    5  A    between atoms: C_19  and  C_21
REMARK    6  A    between atoms: C_19  and  C_22
REMARK    7  A    between atoms: N_27  and  C_28
REMARK    8  A    between atoms: C_28  and  C_29
REMARK    9  A    between atoms: C_28  and  C_30
REMARK   10  A    between atoms: C_28  and  C_31
REMARK                            x       y       z     vdW  Elec       q    Type
REMARK                         _______ _______ _______ _____ _____    ______ ____
ROOT
ATOM      1  C   UNL     1      -4.881   0.260  -1.284  0.00  0.00    +0.341 C 
ATOM      2  O   UNL     1      -4.944  -0.901  -1.635  0.00  0.00    -0.245 OA
ENDROOT
BRANCH   1   9
ATOM      3  C   UNL     1       0.071   1.334  -2.483  0.00  0.00    +0.008 C 
ATOM      4  C   UNL     1      -0.762   1.598  -1.227  0.00  0.00    -0.009 C 
ATOM      5  C   UNL     1      -0.013   1.086   0.008  0.00  0.00    +0.010 C 
ATOM      6  C   UNL     1      -0.736   1.582   1.258  0.00  0.00    +0.056 C 
ATOM      7  C   UNL     1      -2.209   1.244   1.183  0.00  0.00    +0.046 A 
ATOM      8  C   UNL     1      -2.830   0.911  -0.015  0.00  0.00    -0.011 A 
ATOM      9  C   UNL     1      -4.192   0.615  -0.025  0.00  0.00    +0.073 A 
ATOM     10  C   UNL     1      -4.899   0.663   1.201  0.00  0.00    +0.015 A 
ATOM     11  C   UNL     1      -6.268   0.378   1.271  0.00  0.00    +0.011 A 
ATOM     12  C   UNL     1      -6.908   0.437   2.473  0.00  0.00    +0.001 A 
ATOM     13  C   UNL     1      -6.216   0.776   3.634  0.00  0.00    +0.002 A 
ATOM     14  C   UNL     1      -4.886   1.059   3.601  0.00  0.00    +0.028 A 
ATOM     15  C   UNL     1      -4.191   1.009   2.378  0.00  0.00    +0.072 A 
ATOM     16  N   UNL     1      -2.889   1.280   2.312  0.00  0.00    -0.251 NA
ATOM     17  C   UNL     1      -2.092   0.853  -1.326  0.00  0.00    +0.041 C 
ENDBRANCH   1   9
BRANCH   1  18
ATOM     18  O   UNL     1      -5.438   1.224  -2.042  0.00  0.00    -0.449 OA
BRANCH  18  19
ATOM     19  C   UNL     1      -6.098   0.802  -3.264  0.00  0.00    +0.259 C 
ATOM     20  C   UNL     1      -7.570   0.503  -2.973  0.00  0.00    +0.062 C 
BRANCH  19  21
ATOM     21  C   UNL     1      -6.002   1.900  -4.292  0.00  0.00    +0.261 C 
ATOM     22  O   UNL     1      -5.434   2.936  -4.020  0.00  0.00    -0.271 OA
ATOM     23  N   UNL     1      -6.548   1.731  -5.512  0.00  0.00    -0.237 N 
ATOM     24  C   UNL     1      -6.462   2.714  -6.431  0.00  0.00    +0.306 C 
ATOM     25  O   UNL     1      -5.893   3.752  -6.159  0.00  0.00    -0.252 OA
ATOM     26  N   UNL     1      -7.008   2.544  -7.651  0.00  0.00    -0.294 N 
ATOM     27  H   UNL     1      -7.003   0.902  -5.729  0.00  0.00    +0.159 HD
ATOM     28  H   UNL     1      -7.463   1.716  -7.869  0.00  0.00    +0.151 HD
BRANCH  26  29
ATOM     29  C   UNL     1      -6.915   3.612  -8.650  0.00  0.00    +0.028 C 
ATOM     30  C   UNL     1      -5.443   3.911  -8.942  0.00  0.00    +0.031 C 
ATOM     31  C   UNL     1      -7.610   3.168  -9.938  0.00  0.00    +0.031 C 
ATOM     32  C   UNL     1      -7.594   4.874  -8.113  0.00  0.00    +0.031 C 
ENDBRANCH  26  29
ENDBRANCH  19  21
ENDBRANCH  18  19
ENDBRANCH   1  18
TORSDOF 5
