REMARK  Name = ZINC39850303
REMARK  11 active torsions:
REMARK  status: ('A' for Active; 'I' for Inactive)
REMARK    1  A    between atoms: C_1  and  C_2
REMARK    2  A    between atoms: C_2  and  C_3
REMARK    3  A    between atoms: C_3  and  O_4
REMARK    4  A    between atoms: O_4  and  C_5
REMARK    5  A    between atoms: C_8  and  C_13
REMARK    6  A    between atoms: C_10  and  O_11
REMARK    7  A    between atoms: O_11  and  C_12
REMARK    8  A    between atoms: C_15  and  C_27
REMARK    9  A    between atoms: C_17  and  C_22
REMARK   10  A    between atoms: C_17  and  O_26
REMARK   11  A    between atoms: C_27  and  C_29
REMARK                            x       y       z     vdW  Elec       q    Type
REMARK                         _______ _______ _______ _____ _____    ______ ____
ROOT
ATOM      1  C   UNL     1       2.939  -4.698   5.584  0.00  0.00    +0.120 C 
ATOM      2  C   UNL     1       2.378  -4.730   7.010  0.00  0.00    +0.144 C 
ATOM      3  C   UNL     1       3.521  -5.061   7.976  0.00  0.00    +0.243 C 
ATOM      4  N   UNL     1       4.603  -4.092   7.790  0.00  0.00    -0.264 N 
ATOM      5  C   UNL     1       4.814  -3.502   6.604  0.00  0.00    +0.302 C 
ATOM      6  O   UNL     1       5.733  -2.712   6.500  0.00  0.00    -0.253 OA
ATOM      7  N   UNL     1       4.053  -3.750   5.527  0.00  0.00    -0.292 N 
ATOM      8  H   UNL     1       5.178  -3.873   8.539  0.00  0.00    +0.153 HD
ATOM      9  H   UNL     1       4.243  -3.291   4.694  0.00  0.00    +0.151 HD
ENDROOT
BRANCH   1  13
ATOM     10  C   UNL     1      -0.127  -3.460   2.871  0.00  0.00    +0.162 A 
ATOM     11  C   UNL     1       0.638  -2.514   3.535  0.00  0.00    +0.050 A 
ATOM     12  C   UNL     1       1.628  -2.917   4.411  0.00  0.00    +0.009 A 
ATOM     13  C   UNL     1       1.858  -4.263   4.628  0.00  0.00    -0.023 A 
ATOM     14  C   UNL     1       1.098  -5.212   3.969  0.00  0.00    +0.055 A 
ATOM     15  C   UNL     1       0.100  -4.815   3.094  0.00  0.00    +0.162 A 
BRANCH  15  16
ATOM     16  O   UNL     1      -0.652  -5.747   2.449  0.00  0.00    -0.491 OA
ATOM     17  C   UNL     1      -0.363  -7.118   2.726  0.00  0.00    +0.277 C 
ENDBRANCH  15  16
BRANCH  10  18
ATOM     18  O   UNL     1      -1.101  -3.065   2.009  0.00  0.00    -0.488 OA
BRANCH  18  19
ATOM     19  C   UNL     1      -1.278  -1.658   1.830  0.00  0.00    +0.229 C 
BRANCH  19  21
ATOM     20  C   UNL     1      -2.600   0.097   0.640  0.00  0.00    +0.007 C 
ATOM     21  C   UNL     1      -2.411  -1.410   0.832  0.00  0.00    +0.038 C 
ENDBRANCH  19  21
ENDBRANCH  18  19
ENDBRANCH  10  18
ENDBRANCH   1  13
BRANCH   3  22
ATOM     22  C   UNL     1       3.010  -4.986   9.417  0.00  0.00    +0.436 C 
ATOM     23  F   UNL     1       1.887  -5.808   9.556  0.00  0.00    -0.166 F 
ATOM     24  F   UNL     1       4.015  -5.416  10.290  0.00  0.00    -0.166 F 
ATOM     25  F   UNL     1       2.662  -3.666   9.720  0.00  0.00    -0.166 F 
ENDBRANCH   3  22
BRANCH   3  26
ATOM     26  O   UNL     1       4.007  -6.377   7.708  0.00  0.00    -0.364 OA
ATOM     27  H   UNL     1       4.734  -6.653   8.284  0.00  0.00    +0.212 HD
ENDBRANCH   3  26
BRANCH   2  28
ATOM     28  C   UNL     1       1.792  -3.385   7.354  0.00  0.00    +0.173 C 
ATOM     29  O   UNL     1       2.503  -2.404   7.385  0.00  0.00    -0.292 OA
BRANCH  28  30
ATOM     30  C   UNL     1       0.357  -3.263   7.654  0.00  0.00    +0.018 A 
ATOM     31  C   UNL     1      -0.488  -4.369   7.509  0.00  0.00    +0.013 A 
ATOM     32  C   UNL     1      -1.831  -4.247   7.792  0.00  0.00    +0.020 A 
ATOM     33  C   UNL     1      -2.345  -3.033   8.218  0.00  0.00    +0.041 A 
ATOM     34  C   UNL     1      -1.515  -1.934   8.364  0.00  0.00    +0.020 A 
ATOM     35  C   UNL     1      -0.168  -2.042   8.091  0.00  0.00    +0.013 A 
ATOM     36 CL   UNL     1      -4.039  -2.889   8.571  0.00  0.00    -0.084 Cl
ENDBRANCH  28  30
ENDBRANCH   2  28
TORSDOF 9
