REMARK  Name = ZINC24058288
REMARK  7 active torsions:
REMARK  status: ('A' for Active; 'I' for Inactive)
REMARK    1  A    between atoms: C_4  and  C_7
REMARK    2  A    between atoms: C_7  and  N_8
REMARK    3  A    between atoms: N_11  and  C_14
REMARK    4  A    between atoms: C_14  and  C_15
REMARK    5  A    between atoms: C_15  and  N_16
REMARK    6  A    between atoms: N_16  and  C_17
REMARK    7  A    between atoms: C_18  and  N_28
REMARK                            x       y       z     vdW  Elec       q    Type
REMARK                         _______ _______ _______ _____ _____    ______ ____
ROOT
ATOM      1  C   UNL     1       1.247   1.719  -0.052  0.00  0.00    +0.084 C 
ENDROOT
BRANCH   1   2
ATOM      2  N   UNL     1      -0.010   0.968  -0.021  0.00  0.00    -0.329 N 
ATOM      3  H   UNL     1       0.006  -0.132  -0.017  0.00  0.00    +0.147 HD
BRANCH   2   4
ATOM      4  C   UNL     1      -1.217   1.642   0.003  0.00  0.00    +0.157 A 
ATOM      5  C   UNL     1      -2.414   0.934  -0.081  0.00  0.00    +0.230 A 
ATOM      6  C   UNL     1      -3.615   1.639  -0.048  0.00  0.00    +0.291 A 
ATOM      7  O   UNL     1      -4.682   1.046  -0.114  0.00  0.00    -0.265 OA
ATOM      8  N   UNL     1      -3.586   2.985   0.051  0.00  0.00    -0.266 N 
ATOM      9  C   UNL     1      -4.756   3.682   0.077  0.00  0.00    +0.096 A 
ATOM     10  C   UNL     1      -4.756   5.030   0.176  0.00  0.00    +0.018 A 
ATOM     11  C   UNL     1      -3.543   5.731   0.253  0.00  0.00    +0.005 A 
ATOM     12  C   UNL     1      -2.368   5.044   0.228  0.00  0.00    +0.047 A 
ATOM     13  C   UNL     1      -2.388   3.640   0.124  0.00  0.00    +0.142 A 
ATOM     14  N   UNL     1      -1.239   2.969   0.100  0.00  0.00    -0.212 NA
BRANCH   5  15
ATOM     15  N   UNL     1      -2.410  -0.542  -0.196  0.00  0.00    +0.065 N 
ATOM     16  O   UNL     1      -1.361  -1.156  -0.114  0.00  0.00    -0.126 OA
ATOM     17  O   UNL     1      -3.455  -1.142  -0.372  0.00  0.00    -0.126 OA
ENDBRANCH   5  15
ENDBRANCH   2   4
ENDBRANCH   1   2
BRANCH   1  18
ATOM     18  C   UNL     1       2.424   0.742  -0.080  0.00  0.00    -0.060 C 
BRANCH  18  22
ATOM     19  N   UNL     1       6.258   2.181  -1.120  0.00  0.00    -0.302 NA
ATOM     20  C   UNL     1       6.120   1.435   0.139  0.00  0.00    +0.066 C 
ATOM     21  C   UNL     1       4.835   0.604   0.099  0.00  0.00    -0.063 C 
ATOM     22  N   UNL     1       3.685   1.494  -0.111  0.00  0.00    +0.382 N 
ATOM     23  C   UNL     1       3.823   2.240  -1.370  0.00  0.00    -0.063 C 
ATOM     24  C   UNL     1       5.107   3.071  -1.330  0.00  0.00    +0.066 C 
ATOM     25  H   UNL     1       3.663   2.222   0.713  0.00  0.00    -0.082 HD
BRANCH  19  26
ATOM     26  C   UNL     1       7.519   2.934  -1.151  0.00  0.00    +0.119 C 
BRANCH  26  30
ATOM     27  C   UNL     1       7.512   5.587  -4.499  0.00  0.00    +0.000 A 
ATOM     28  C   UNL     1       7.019   6.012  -3.279  0.00  0.00    +0.000 A 
ATOM     29  C   UNL     1       7.021   5.153  -2.196  0.00  0.00    +0.005 A 
ATOM     30  C   UNL     1       7.516   3.870  -2.332  0.00  0.00    -0.033 A 
ATOM     31  C   UNL     1       8.014   3.446  -3.550  0.00  0.00    +0.005 A 
ATOM     32  C   UNL     1       8.007   4.303  -4.635  0.00  0.00    +0.000 A 
ENDBRANCH  26  30
ENDBRANCH  19  26
ENDBRANCH  18  22
ENDBRANCH   1  18
TORSDOF 7
