REMARK  Name = ZINC31408193
REMARK  8 active torsions:
REMARK  status: ('A' for Active; 'I' for Inactive)
REMARK    1  A    between atoms: C_1  and  C_2
REMARK    2  A    between atoms: C_7  and  C_9
REMARK    3  A    between atoms: C_7  and  C_10
REMARK    4  A    between atoms: N_13  and  C_17
REMARK    5  A    between atoms: C_17  and  C_18
REMARK    6  A    between atoms: N_20  and  C_21
REMARK    7  A    between atoms: C_21  and  C_22
REMARK    8  A    between atoms: N_24  and  C_25
REMARK                            x       y       z     vdW  Elec       q    Type
REMARK                         _______ _______ _______ _____ _____    ______ ____
ROOT
ATOM      1  C   UNL     1       0.295  -3.331  -4.601  0.00  0.00    +0.213 C 
ENDROOT
BRANCH   1  13
ATOM      2  C   UNL     1       0.709   1.641   0.434  0.00  0.00    +0.007 C 
ATOM      3  C   UNL     1       0.465   0.141   0.259  0.00  0.00    -0.011 C 
ATOM      4  C   UNL     1       1.030  -0.314  -1.089  0.00  0.00    +0.038 C 
ATOM      5  C   UNL     1       0.806  -1.813  -1.255  0.00  0.00    +0.113 C 
ATOM      6  C   UNL     1       1.476  -2.588  -0.126  0.00  0.00    +0.041 C 
ATOM      7  C   UNL     1       0.908  -2.124   1.219  0.00  0.00    -0.032 C 
ATOM      8  C   UNL     1       1.160  -0.624   1.387  0.00  0.00    +0.009 C 
ATOM      9  C   UNL     1       1.596  -2.887   2.353  0.00  0.00    +0.011 C 
ATOM     10  C   UNL     1      -0.596  -2.397   1.259  0.00  0.00    +0.011 C 
ATOM     11  C   UNL     1       1.326  -2.279  -2.596  0.00  0.00    +0.247 C 
ATOM     12  O   UNL     1       2.468  -2.227  -2.998  0.00  0.00    -0.273 OA
ATOM     13  N   UNL     1       0.251  -2.767  -3.249  0.00  0.00    -0.215 N 
ATOM     14  C   UNL     1      -0.861  -2.672  -2.510  0.00  0.00    +0.310 C 
ATOM     15  O   UNL     1      -1.956  -3.045  -2.884  0.00  0.00    -0.252 OA
ATOM     16  N   UNL     1      -0.630  -2.116  -1.305  0.00  0.00    -0.285 N 
ATOM     17  H   UNL     1      -1.284  -1.948  -0.608  0.00  0.00    +0.151 HD
ENDBRANCH   1  13
BRANCH   1  18
ATOM     18  C   UNL     1       0.563  -4.811  -4.519  0.00  0.00    +0.231 C 
ATOM     19  O   UNL     1       0.703  -5.344  -3.438  0.00  0.00    -0.274 OA
ATOM     20  N   UNL     1       0.646  -5.545  -5.647  0.00  0.00    -0.305 N 
ATOM     21  H   UNL     1       0.534  -5.119  -6.511  0.00  0.00    +0.149 HD
BRANCH  20  22
ATOM     22  C   UNL     1       0.907  -6.984  -5.567  0.00  0.00    +0.200 C 
BRANCH  22  23
ATOM     23  C   UNL     1       0.952  -7.564  -6.958  0.00  0.00    +0.234 C 
ATOM     24  O   UNL     1       0.784  -6.845  -7.920  0.00  0.00    -0.274 OA
ATOM     25  N   UNL     1       1.180  -8.881  -7.131  0.00  0.00    -0.284 N 
ATOM     26  H   UNL     1       1.239  -9.469  -6.362  0.00  0.00    +0.155 HD
BRANCH  25  27
ATOM     27  C   UNL     1       1.332  -9.401  -8.423  0.00  0.00    +0.036 A 
ATOM     28  C   UNL     1       0.887 -10.684  -8.712  0.00  0.00    +0.026 A 
ATOM     29  C   UNL     1       1.037 -11.196  -9.986  0.00  0.00    +0.043 A 
ATOM     30  C   UNL     1       1.631 -10.431 -10.975  0.00  0.00    +0.159 A 
ATOM     31  C   UNL     1       2.077  -9.149 -10.689  0.00  0.00    +0.160 A 
ATOM     32  C   UNL     1       1.923  -8.632  -9.416  0.00  0.00    +0.064 A 
ATOM     33  F   UNL     1       2.657  -8.404 -11.656  0.00  0.00    -0.202 F 
ATOM     34  F   UNL     1       1.778 -10.934 -12.221  0.00  0.00    -0.202 F 
ENDBRANCH  25  27
ENDBRANCH  22  23
ENDBRANCH  20  22
ENDBRANCH   1  18
TORSDOF 5
