REMARK  Name = ZINC24968168
REMARK  13 active torsions:
REMARK  status: ('A' for Active; 'I' for Inactive)
REMARK    1  A    between atoms: C_1  and  C_2
REMARK    2  A    between atoms: C_3  and  C_31
REMARK    3  A    between atoms: N_9  and  C_30
REMARK    4  A    between atoms: C_10  and  S_12
REMARK    5  A    between atoms: S_12  and  C_13
REMARK    6  A    between atoms: C_13  and  C_15
REMARK    7  A    between atoms: C_13  and  C_16
REMARK    8  A    between atoms: C_16  and  C_18
REMARK    9  A    between atoms: C_19  and  C_29
REMARK   10  A    between atoms: C_20  and  C_25
REMARK   11  A    between atoms: C_21  and  C_24
REMARK   12  A    between atoms: C_25  and  O_27
REMARK   13  A    between atoms: O_27  and  C_28
REMARK                            x       y       z     vdW  Elec       q    Type
REMARK                         _______ _______ _______ _____ _____    ______ ____
ROOT
ATOM      1  C   UNL     1      -0.013   1.086   0.008  0.00  0.00    +0.124 C 
ATOM      2  C   UNL     1      -0.729   1.579   1.267  0.00  0.00    +0.028 C 
ENDROOT
BRANCH   1   3
ATOM      3  C   UNL     1      -0.742   1.585  -1.213  0.00  0.00    +0.192 C 
ATOM      4  O   UNL     1      -0.381   2.607  -1.760  0.00  0.00    -0.289 OA
BRANCH   3   5
ATOM      5  C   UNL     1      -1.847   0.862  -1.722  0.00  0.00    +0.087 A 
ATOM      6  C   UNL     1      -2.599   1.204  -2.825  0.00  0.00    -0.008 A 
ATOM      7  C   UNL     1      -3.589   0.209  -2.969  0.00  0.00    +0.083 A 
ATOM      8  C   UNL     1      -3.403  -0.704  -1.945  0.00  0.00    +0.028 A 
ATOM      9  N   UNL     1      -2.356  -0.312  -1.205  0.00  0.00    -0.355 N 
ATOM     10  H   UNL     1      -1.893  -0.768  -0.317  0.00  0.00    +0.166 HD
ATOM     11  C   UNL     1      -4.235  -1.938  -1.706  0.00  0.00    +0.064 C 
ATOM     12  C   UNL     1      -2.401   2.409  -3.709  0.00  0.00    +0.047 C 
BRANCH   7  13
ATOM     13  C   UNL     1      -4.627   0.152  -4.013  0.00  0.00    +0.341 C 
ATOM     14  O   UNL     1      -4.407  -0.428  -5.057  0.00  0.00    -0.245 OA
BRANCH  13  15
ATOM     15  O   UNL     1      -5.821   0.743  -3.809  0.00  0.00    -0.464 OA
ATOM     16  C   UNL     1      -6.795   0.647  -4.881  0.00  0.00    +0.280 C 
ENDBRANCH  13  15
ENDBRANCH   7  13
ENDBRANCH   3   5
ENDBRANCH   1   3
BRANCH   1  17
ATOM     17  S   UNL     1       1.685   1.712  -0.005  0.00  0.00    -0.076 S 
BRANCH  17  27
ATOM     18  C   UNL     1       5.062  -1.139   5.374  0.00  0.00    +0.045 C 
ATOM     19  C   UNL     1       3.673  -1.202   4.792  0.00  0.00    -0.026 A 
ATOM     20  C   UNL     1       2.734  -1.973   5.360  0.00  0.00    -0.008 A 
ATOM     21  S   UNL     1       1.304  -1.711   4.328  0.00  0.00    -0.073 S 
ATOM     22  C   UNL     1       2.009  -0.573   3.164  0.00  0.00    +0.117 A 
ATOM     23  C   UNL     1       3.337  -0.428   3.609  0.00  0.00    +0.075 A 
ATOM     24  C   UNL     1       4.159   0.453   2.840  0.00  0.00    +0.263 A 
ATOM     25  O   UNL     1       5.323   0.640   3.151  0.00  0.00    -0.267 OA
ATOM     26  N   UNL     1       3.633   1.070   1.766  0.00  0.00    -0.290 N 
ATOM     27  C   UNL     1       2.330   0.877   1.406  0.00  0.00    +0.173 A 
ATOM     28  N   UNL     1       1.550   0.070   2.097  0.00  0.00    -0.216 NA
ATOM     29  C   UNL     1       4.472   1.969   0.970  0.00  0.00    +0.154 C 
ATOM     30  C   UNL     1       2.857  -2.850   6.579  0.00  0.00    +0.052 C 
ENDBRANCH  17  27
ENDBRANCH   1  17
TORSDOF 6
