REMARK  Name = ZINC36749273
REMARK  7 active torsions:
REMARK  status: ('A' for Active; 'I' for Inactive)
REMARK    1  A    between atoms: C_1  and  C_2
REMARK    2  A    between atoms: C_2  and  N_3
REMARK    3  A    between atoms: N_3  and  C_4
REMARK    4  A    between atoms: N_3  and  C_12
REMARK    5  A    between atoms: C_5  and  N_11
REMARK    6  A    between atoms: C_6  and  C_10
REMARK    7  A    between atoms: N_8  and  C_9
REMARK                            x       y       z     vdW  Elec       q    Type
REMARK                         _______ _______ _______ _____ _____    ______ ____
ROOT
ATOM      1  C   UNL     1      -1.977  -0.695  -1.231  0.00  0.00    +0.141 A 
ATOM      2  C   UNL     1      -1.407  -0.460  -2.448  0.00  0.00    +0.088 A 
ATOM      3  C   UNL     1      -2.376  -0.704  -3.428  0.00  0.00    +0.082 A 
ATOM      4  N   UNL     1      -3.484  -1.069  -2.834  0.00  0.00    -0.173 NA
ATOM      5  N   UNL     1      -3.264  -1.079  -1.450  0.00  0.00    -0.252 N 
ATOM      6  C   UNL     1      -4.245  -1.436  -0.423  0.00  0.00    +0.174 C 
ATOM      7  C   UNL     1      -2.177  -0.568  -4.916  0.00  0.00    +0.069 C 
ENDROOT
BRANCH   2   8
ATOM      8  N   UNL     1      -0.075  -0.045  -2.678  0.00  0.00    -0.354 N 
ATOM      9  H   UNL     1       0.495   0.193  -1.930  0.00  0.00    +0.142 HD
ATOM     10  H   UNL     1       0.269   0.001  -3.584  0.00  0.00    +0.142 HD
ENDBRANCH   2   8
BRANCH   1  11
ATOM     11  N   UNL     1      -1.352  -0.569   0.012  0.00  0.00    -0.311 N 
BRANCH  11  12
ATOM     12  C   UNL     1      -1.297   0.737   0.676  0.00  0.00    +0.075 C 
ATOM     13  C   UNL     1      -0.349   0.884   1.868  0.00  0.00    +0.024 C 
ATOM     14  C   UNL     1      -1.862   0.832   2.095  0.00  0.00    +0.024 C 
ENDBRANCH  11  12
BRANCH  11  16
ATOM     15  C   UNL     1       0.697  -1.892   0.185  0.00  0.00    +0.024 C 
ATOM     16  C   UNL     1      -0.752  -1.742   0.653  0.00  0.00    +0.103 C 
ENDBRANCH  11  16
ENDBRANCH   1  11
TORSDOF 4
