REMARK  Name = ZINC49467611
REMARK  5 active torsions:
REMARK  status: ('A' for Active; 'I' for Inactive)
REMARK    1  A    between atoms: C_1  and  C_2
REMARK    2  A    between atoms: C_2  and  C_3
REMARK    3  A    between atoms: C_2  and  N_4
REMARK    4  A    between atoms: N_7  and  N_8
REMARK    5  A    between atoms: C_9  and  C_11
REMARK                            x       y       z     vdW  Elec       q    Type
REMARK                         _______ _______ _______ _____ _____    ______ ____
ROOT
ATOM      1  N   UNL     1      -3.940  -1.414   0.052  0.00  0.00    -0.229 N 
ATOM      2  C   UNL     1      -5.205  -1.881   0.061  0.00  0.00    +0.262 C 
ATOM      3  O   UNL     1      -5.449  -2.984  -0.388  0.00  0.00    -0.269 OA
ATOM      4  H   UNL     1      -3.745  -0.534   0.409  0.00  0.00    +0.173 HD
ENDROOT
BRANCH   2   5
ATOM      5  C   UNL     1      -6.292  -1.053   0.616  0.00  0.00    +0.056 A 
ATOM      6  C   UNL     1      -6.014   0.235   1.134  0.00  0.00    +0.040 A 
ATOM      7  C   UNL     1      -7.036   0.977   1.640  0.00  0.00    +0.106 A 
ATOM      8  C   UNL     1      -8.343   0.451   1.637  0.00  0.00    +0.267 A 
ATOM      9  O   UNL     1      -9.263   1.112   2.088  0.00  0.00    -0.266 OA
ATOM     10  N   UNL     1      -8.583  -0.776   1.139  0.00  0.00    -0.327 N 
ATOM     11  H   UNL     1      -9.489  -1.124   1.143  0.00  0.00    +0.168 HD
ATOM     12  C   UNL     1      -7.588  -1.526   0.628  0.00  0.00    +0.099 A 
ATOM     13 CL   UNL     1      -6.732   2.560   2.284  0.00  0.00    -0.078 Cl
ENDBRANCH   2   5
BRANCH   1  17
ATOM     14  N   UNL     1      -1.372  -0.511   0.012  0.00  0.00    -0.296 N 
ATOM     15  C   UNL     1      -1.643  -1.734  -0.485  0.00  0.00    +0.316 C 
ATOM     16  O   UNL     1      -0.747  -2.417  -0.942  0.00  0.00    -0.251 OA
ATOM     17  N   UNL     1      -2.908  -2.201  -0.475  0.00  0.00    -0.218 N 
ATOM     18  H   UNL     1      -2.087   0.033   0.377  0.00  0.00    +0.151 HD
ATOM     19  H   UNL     1      -3.103  -3.081  -0.833  0.00  0.00    +0.174 HD
BRANCH  14  21
ATOM     20  C   UNL     1      -0.019   1.526   0.010  0.00  0.00    +0.027 C 
ATOM     21  C   UNL     1       0.002  -0.004   0.002  0.00  0.00    +0.068 C 
ATOM     22  C   UNL     1       0.742  -0.511   1.242  0.00  0.00    +0.027 C 
ENDBRANCH  14  21
ENDBRANCH   1  17
TORSDOF 3
