REMARK  Name = ZINC14197471
REMARK  8 active torsions:
REMARK  status: ('A' for Active; 'I' for Inactive)
REMARK    1  A    between atoms: C_4  and  C_25
REMARK    2  A    between atoms: C_5  and  C_7
REMARK    3  A    between atoms: C_7  and  N_8
REMARK    4  A    between atoms: C_9  and  C_11
REMARK    5  A    between atoms: C_11  and  C_12
REMARK    6  A    between atoms: C_12  and  C_14
REMARK    7  A    between atoms: C_12  and  N_21
REMARK    8  A    between atoms: C_25  and  N_59
REMARK                            x       y       z     vdW  Elec       q    Type
REMARK                         _______ _______ _______ _____ _____    ______ ____
ROOT
ATOM      1  N   UNL     1       4.406   2.484   4.893  0.00  0.00    -0.311 N 
ATOM      2  C   UNL     1       3.358   2.909   5.625  0.00  0.00    +0.215 C 
ATOM      3  O   UNL     1       2.663   3.817   5.220  0.00  0.00    -0.276 OA
ATOM      4  H   UNL     1       4.962   1.758   5.217  0.00  0.00    +0.149 HD
ENDROOT
BRANCH   1   5
ATOM      5  C   UNL     1       4.708   3.119   3.608  0.00  0.00    +0.139 C 
BRANCH   5  10
ATOM      6  C   UNL     1       8.271   2.465   2.545  0.00  0.00    +0.000 A 
ATOM      7  C   UNL     1       8.142   1.263   1.873  0.00  0.00    +0.000 A 
ATOM      8  C   UNL     1       6.902   0.661   1.766  0.00  0.00    +0.002 A 
ATOM      9  C   UNL     1       5.790   1.264   2.323  0.00  0.00    -0.059 A 
ATOM     10  C   UNL     1       5.919   2.465   2.995  0.00  0.00    -0.029 A 
ATOM     11  C   UNL     1       7.160   3.065   3.107  0.00  0.00    +0.005 A 
BRANCH   9  12
ATOM     12  C   UNL     1       4.438   0.610   2.203  0.00  0.00    -0.043 C 
BRANCH  12  18
ATOM     13  C   UNL     1       2.702  -0.468   3.501  0.00  0.00    -0.078 C 
ATOM     14  C   UNL     1       2.377  -1.066   4.872  0.00  0.00    -0.019 C 
ATOM     15  C   UNL     1       3.257  -2.296   5.108  0.00  0.00    -0.004 C 
ATOM     16  C   UNL     1       4.729  -1.888   5.005  0.00  0.00    -0.019 C 
ATOM     17  C   UNL     1       4.986  -1.267   3.631  0.00  0.00    -0.078 C 
ATOM     18  N   UNL     1       4.127  -0.074   3.475  0.00  0.00    +0.382 N 
ATOM     19  H   UNL     1       4.308   0.571   4.253  0.00  0.00    -0.081 HD
ENDBRANCH  12  18
ENDBRANCH   9  12
ENDBRANCH   5  10
ENDBRANCH   1   5
BRANCH   2  20
ATOM     20  C   UNL     1       3.048   2.255   6.947  0.00  0.00    +0.123 C 
BRANCH  20  21
ATOM     21  C   UNL     1       1.818   2.920   7.569  0.00  0.00    +0.115 C 
BRANCH  21  22
ATOM     22  C   UNL     1       1.581   2.351   8.944  0.00  0.00    -0.008 A 
ATOM     23  C   UNL     1       2.233   1.197   9.337  0.00  0.00    +0.007 A 
ATOM     24  C   UNL     1       2.019   0.678  10.600  0.00  0.00    +0.000 A 
ATOM     25  C   UNL     1       1.146   1.307  11.468  0.00  0.00    +0.001 A 
ATOM     26  C   UNL     1       0.489   2.458  11.075  0.00  0.00    +0.020 A 
ATOM     27  C   UNL     1       0.706   2.981   9.812  0.00  0.00    +0.046 A 
ATOM     28 CL   UNL     1      -0.119   4.425   9.317  0.00  0.00    -0.083 Cl
ENDBRANCH  21  22
BRANCH  21  29
ATOM     29  N   UNL     1       0.647   2.664   6.727  0.00  0.00    -0.292 N 
ATOM     30  C   UNL     1       0.226   1.401   6.523  0.00  0.00    +0.298 C 
ATOM     31  O   UNL     1       0.766   0.479   7.104  0.00  0.00    -0.253 OA
ATOM     32  N   UNL     1      -0.794   1.158   5.675  0.00  0.00    -0.313 N 
ATOM     33  H   UNL     1       0.174   3.405   6.316  0.00  0.00    +0.151 HD
ATOM     34  H   UNL     1      -1.224   1.893   5.212  0.00  0.00    +0.146 HD
ATOM     35  H   UNL     1      -1.097   0.248   5.529  0.00  0.00    +0.146 HD
ENDBRANCH  21  29
ENDBRANCH  20  21
ENDBRANCH   2  20
TORSDOF 8
