REMARK  Name = ZINC58307279
REMARK  7 active torsions:
REMARK  status: ('A' for Active; 'I' for Inactive)
REMARK    1  A    between atoms: C_3  and  C_15
REMARK    2  A    between atoms: C_5  and  O_7
REMARK    3  A    between atoms: O_7  and  C_8
REMARK    4  A    between atoms: C_8  and  C_9
REMARK    5  A    between atoms: C_15  and  N_16
REMARK    6  A    between atoms: N_16  and  C_17
REMARK    7  A    between atoms: C_17  and  C_18
REMARK                            x       y       z     vdW  Elec       q    Type
REMARK                         _______ _______ _______ _____ _____    ______ ____
ROOT
ATOM      1  C   UNL     1       3.671   2.190  -0.021  0.00  0.00    -0.047 C 
ENDROOT
BRANCH   1   4
ATOM      2  C   UNL     1      -0.017   1.377   0.010  0.00  0.00    +0.004 A 
ATOM      3  C   UNL     1       1.171   2.086   0.002  0.00  0.00    +0.002 A 
ATOM      4  C   UNL     1       2.379   1.415  -0.013  0.00  0.00    -0.061 A 
ATOM      5  C   UNL     1       2.403   0.033  -0.021  0.00  0.00    +0.047 A 
ATOM      6  C   UNL     1       1.214  -0.680  -0.013  0.00  0.00    +0.121 A 
ATOM      7  C   UNL     1       0.002  -0.004   0.002  0.00  0.00    +0.045 A 
BRANCH   6   8
ATOM      8  O   UNL     1       1.235  -2.039  -0.021  0.00  0.00    -0.489 OA
BRANCH   8   9
ATOM      9  C   UNL     1      -0.028  -2.708  -0.013  0.00  0.00    +0.260 C 
BRANCH   9  10
ATOM     10  C   UNL     1       0.196  -4.221  -0.024  0.00  0.00    +0.156 C 
ATOM     11  C   UNL     1      -1.159  -4.966   0.077  0.00  0.00    +0.037 C 
ATOM     12  C   UNL     1      -0.798  -6.325  -0.582  0.00  0.00    +0.031 C 
ATOM     13  C   UNL     1       0.222  -5.905  -1.662  0.00  0.00    +0.160 C 
ATOM     14  O   UNL     1       0.760  -4.633  -1.279  0.00  0.00    -0.373 OA
ENDBRANCH   9  10
ENDBRANCH   8   9
ENDBRANCH   6   8
ENDBRANCH   1   4
BRANCH   1  15
ATOM     15  N   UNL     1       4.104   2.435   1.361  0.00  0.00    +0.382 N 
ATOM     16  H   UNL     1       3.396   2.965   1.846  0.00  0.00    -0.085 HD
ATOM     17  H   UNL     1       4.244   1.553   1.831  0.00  0.00    -0.085 HD
BRANCH  15  18
ATOM     18  C   UNL     1       5.364   3.191   1.353  0.00  0.00    -0.075 C 
BRANCH  18  19
ATOM     19  C   UNL     1       5.815   3.446   2.793  0.00  0.00    +0.010 C 
ATOM     20  C   UNL     1       4.796   4.353   3.492  0.00  0.00    +0.106 C 
ATOM     21  N   UNL     1       5.213   4.529   4.898  0.00  0.00    -0.329 N 
ATOM     22  C   UNL     1       6.574   4.757   5.111  0.00  0.00    +0.117 A 
ATOM     23  C   UNL     1       7.212   5.173   6.227  0.00  0.00    +0.064 A 
ATOM     24  C   UNL     1       8.579   5.250   5.931  0.00  0.00    +0.136 A 
ATOM     25  N   UNL     1       8.752   4.891   4.681  0.00  0.00    -0.178 NA
ATOM     26  N   UNL     1       7.507   4.574   4.140  0.00  0.00    -0.251 N 
ATOM     27  C   UNL     1       7.191   4.120   2.783  0.00  0.00    +0.148 C 
ATOM     28  H   UNL     1       4.578   4.488   5.630  0.00  0.00    +0.147 HD
ENDBRANCH  18  19
ENDBRANCH  15  18
ENDBRANCH   1  15
TORSDOF 7
