REMARK  Name = ZINC67617742
REMARK  3 active torsions:
REMARK  status: ('A' for Active; 'I' for Inactive)
REMARK    1  A    between atoms: C_4  and  C_7
REMARK    2  A    between atoms: C_10  and  N_12
REMARK    3  A    between atoms: N_15  and  N_16
REMARK                            x       y       z     vdW  Elec       q    Type
REMARK                         _______ _______ _______ _____ _____    ______ ____
ROOT
ATOM      1  N   UNL     1       2.945  -1.750  -2.248  0.00  0.00    -0.295 N 
ATOM      2  C   UNL     1       3.276  -2.112  -3.503  0.00  0.00    +0.316 C 
ATOM      3  O   UNL     1       4.435  -2.348  -3.782  0.00  0.00    -0.251 OA
ATOM      4  N   UNL     1       2.321  -2.213  -4.449  0.00  0.00    -0.219 N 
ATOM      5  H   UNL     1       2.020  -1.561  -2.025  0.00  0.00    +0.151 HD
ATOM      6  H   UNL     1       2.559  -2.474  -5.352  0.00  0.00    +0.174 HD
ENDROOT
BRANCH   4   7
ATOM      7  N   UNL     1       0.985  -1.941  -4.127  0.00  0.00    -0.246 N 
ATOM      8  C   UNL     1      -0.001  -2.045  -5.104  0.00  0.00    +0.158 A 
ATOM      9  C   UNL     1      -1.332  -1.769  -4.787  0.00  0.00    +0.050 A 
ATOM     10  C   UNL     1      -2.276  -1.886  -5.792  0.00  0.00    +0.053 A 
ATOM     11  C   UNL     1      -1.839  -2.272  -7.059  0.00  0.00    +0.176 A 
ATOM     12  N   UNL     1      -0.556  -2.514  -7.267  0.00  0.00    -0.128 NA
ATOM     13  N   UNL     1       0.322  -2.401  -6.337  0.00  0.00    -0.131 NA
ATOM     14  N   UNL     1      -2.757  -2.405  -8.107  0.00  0.00    -0.220 N 
ATOM     15  C   UNL     1      -2.469  -2.777  -9.381  0.00  0.00    +0.116 A 
ATOM     16  C   UNL     1      -3.628  -2.782 -10.078  0.00  0.00    +0.041 A 
ATOM     17  C   UNL     1      -4.657  -2.403  -9.209  0.00  0.00    +0.135 A 
ATOM     18  N   UNL     1      -4.138  -2.183  -8.028  0.00  0.00    -0.173 NA
ATOM     19  H   UNL     1       0.747  -1.680  -3.223  0.00  0.00    +0.172 HD
ENDBRANCH   4   7
BRANCH   1  22
ATOM     20  C   UNL     1       3.711  -0.707  -0.038  0.00  0.00    +0.041 C 
ATOM     21  C   UNL     1       3.675  -2.224   0.162  0.00  0.00    +0.033 C 
ATOM     22  C   UNL     1       3.983  -1.640  -1.219  0.00  0.00    +0.083 C 
BRANCH  20  26
ATOM     23  C   UNL     1      -0.017   1.378   0.010  0.00  0.00    +0.000 A 
ATOM     24  C   UNL     1       1.171   2.086   0.002  0.00  0.00    +0.000 A 
ATOM     25  C   UNL     1       2.377   1.411  -0.013  0.00  0.00    +0.004 A 
ATOM     26  C   UNL     1       2.396   0.029  -0.020  0.00  0.00    -0.042 A 
ATOM     27  C   UNL     1       1.208  -0.679  -0.012  0.00  0.00    +0.004 A 
ATOM     28  C   UNL     1       0.002  -0.004   0.002  0.00  0.00    +0.000 A 
ENDBRANCH  20  26
ENDBRANCH   1  22
TORSDOF 3
