REMARK  Name = ZINC13636236
REMARK  5 active torsions:
REMARK  status: ('A' for Active; 'I' for Inactive)
REMARK    1  A    between atoms: C_1  and  C_2
REMARK    2  A    between atoms: C_9  and  C_11
REMARK    3  A    between atoms: C_11  and  S_12
REMARK    4  A    between atoms: S_12  and  C_13
REMARK    5  A    between atoms: C_23  and  C_28
REMARK                            x       y       z     vdW  Elec       q    Type
REMARK                         _______ _______ _______ _____ _____    ______ ____
ROOT
ATOM      1  C   UNL     1      -5.826  -8.801   0.012  0.00  0.00    +0.066 C 
ATOM      2  C   UNL     1      -6.401  -7.408   0.023  0.00  0.00    +0.054 A 
ATOM      3  C   UNL     1      -7.787  -7.206   0.038  0.00  0.00    +0.060 A 
ATOM      4  C   UNL     1      -8.283  -5.898   0.048  0.00  0.00    +0.057 A 
ATOM      5  N   UNL     1      -7.420  -4.897   0.051  0.00  0.00    -0.218 NA
ATOM      6  C   UNL     1      -6.114  -5.125   0.032  0.00  0.00    +0.222 A 
ATOM      7  N   UNL     1      -5.609  -6.351   0.020  0.00  0.00    -0.219 NA
ATOM      8  N   UNL     1      -5.247  -4.045   0.030  0.00  0.00    -0.254 N 
ATOM      9  C   UNL     1      -3.915  -4.250   0.016  0.00  0.00    +0.230 C 
ATOM     10  O   UNL     1      -3.476  -5.381   0.005  0.00  0.00    -0.274 OA
ATOM     11  C   UNL     1      -9.758  -5.615   0.057  0.00  0.00    +0.060 C 
ATOM     12  C   UNL     1     -10.544  -6.807   0.598  0.00  0.00    -0.001 C 
ATOM     13  C   UNL     1     -10.179  -8.066  -0.199  0.00  0.00    +0.083 C 
ATOM     14  C   UNL     1      -8.711  -8.350   0.047  0.00  0.00    +0.167 C 
ATOM     15  O   UNL     1      -8.313  -9.479   0.244  0.00  0.00    -0.292 OA
ATOM     16  C   UNL     1     -12.043  -6.534   0.461  0.00  0.00    +0.008 C 
ATOM     17  H   UNL     1      -5.598  -3.141   0.038  0.00  0.00    +0.158 HD
ENDROOT
BRANCH   9  18
ATOM     18  C   UNL     1      -2.972  -3.075   0.014  0.00  0.00    +0.175 C 
BRANCH  18  19
ATOM     19  S   UNL     1      -1.263  -3.673  -0.006  0.00  0.00    -0.058 S 
BRANCH  19  20
ATOM     20  C   UNL     1      -0.401  -2.136  -0.006  0.00  0.00    +0.258 A 
ATOM     21  N   UNL     1      -0.970  -0.957   0.006  0.00  0.00    -0.203 NA
ATOM     22  C   UNL     1       0.002  -0.004   0.002  0.00  0.00    +0.110 A 
ATOM     23  C   UNL     1      -0.017   1.391   0.010  0.00  0.00    +0.031 A 
ATOM     24  C   UNL     1       1.170   2.091   0.002  0.00  0.00    +0.002 A 
ATOM     25  C   UNL     1       2.381   1.417  -0.012  0.00  0.00    +0.004 A 
ATOM     26  C   UNL     1       2.414   0.037  -0.020  0.00  0.00    +0.048 A 
ATOM     27  C   UNL     1       1.230  -0.682  -0.013  0.00  0.00    +0.156 A 
ATOM     28  O   UNL     1       0.937  -2.003  -0.018  0.00  0.00    -0.431 OA
ENDBRANCH  19  20
ENDBRANCH  18  19
ENDBRANCH   9  18
TORSDOF 3
