REMARK  Name = ZINC54217012
REMARK  8 active torsions:
REMARK  status: ('A' for Active; 'I' for Inactive)
REMARK    1  A    between atoms: C_1  and  C_2
REMARK    2  A    between atoms: C_4  and  C_8
REMARK    3  A    between atoms: C_5  and  C_7
REMARK    4  A    between atoms: C_8  and  C_10
REMARK    5  A    between atoms: C_8  and  N_11
REMARK    6  A    between atoms: C_12  and  C_14
REMARK    7  A    between atoms: C_19  and  N_20
REMARK    8  A    between atoms: N_20  and  N_21
REMARK                            x       y       z     vdW  Elec       q    Type
REMARK                         _______ _______ _______ _____ _____    ______ ____
ROOT
ATOM      1  N   UNL     1      -2.485  -2.949   2.041  0.00  0.00    -0.305 N 
ATOM      2  C   UNL     1      -3.367  -3.965   2.118  0.00  0.00    +0.246 C 
ATOM      3  O   UNL     1      -2.970  -5.107   2.249  0.00  0.00    -0.270 OA
ATOM      4  H   UNL     1      -2.803  -2.038   1.936  0.00  0.00    +0.150 HD
ENDROOT
BRANCH   2   5
ATOM      5  C   UNL     1      -4.814  -3.693   2.042  0.00  0.00    +0.061 A 
ATOM      6  C   UNL     1      -5.281  -2.375   2.012  0.00  0.00    +0.015 A 
ATOM      7  C   UNL     1      -6.634  -2.126   1.941  0.00  0.00    +0.004 A 
ATOM      8  C   UNL     1      -7.538  -3.176   1.899  0.00  0.00    +0.040 A 
ATOM      9  C   UNL     1      -7.094  -4.483   1.927  0.00  0.00    +0.146 A 
ATOM     10  C   UNL     1      -5.730  -4.754   1.994  0.00  0.00    +0.089 A 
ATOM     11  F   UNL     1      -7.983  -5.500   1.886  0.00  0.00    -0.203 F 
BRANCH  10  12
ATOM     12  N   UNL     1      -5.279  -6.068   2.017  0.00  0.00    -0.280 N 
ATOM     13  H   UNL     1      -4.450  -6.305   1.571  0.00  0.00    +0.166 HD
BRANCH  12  14
ATOM     14  N   UNL     1      -6.002  -7.027   2.668  0.00  0.00    -0.256 NA
ATOM     15  H   UNL     1      -6.947  -7.067   2.318  0.00  0.00    +0.140 HD
ATOM     16  H   UNL     1      -5.552  -7.928   2.600  0.00  0.00    +0.140 HD
ENDBRANCH  12  14
ENDBRANCH  10  12
ENDBRANCH   2   5
BRANCH   1  17
ATOM     17  C   UNL     1      -1.048  -3.220   2.116  0.00  0.00    +0.104 C 
ATOM     18  C   UNL     1      -0.524  -3.585   0.726  0.00  0.00    +0.033 C 
BRANCH  17  22
ATOM     19  C   UNL     1       0.062   1.603   3.327  0.00  0.00    +0.086 C 
ATOM     20  C   UNL     1       0.139   0.110   3.138  0.00  0.00    +0.103 A 
ATOM     21  C   UNL     1      -0.819  -0.665   2.598  0.00  0.00    +0.050 A 
ATOM     22  C   UNL     1      -0.331  -1.992   2.617  0.00  0.00    +0.013 A 
ATOM     23  C   UNL     1       0.896  -1.948   3.167  0.00  0.00    +0.107 A 
ATOM     24  O   UNL     1       1.177  -0.672   3.475  0.00  0.00    -0.465 OA
ATOM     25  C   UNL     1       1.803  -3.130   3.393  0.00  0.00    +0.086 C 
ENDBRANCH  17  22
ENDBRANCH   1  17
TORSDOF 5
