REMARK  Name = ZINC66864254
REMARK  7 active torsions:
REMARK  status: ('A' for Active; 'I' for Inactive)
REMARK    1  A    between atoms: C_1  and  C_2
REMARK    2  A    between atoms: C_2  and  C_3
REMARK    3  A    between atoms: C_3  and  C_23
REMARK    4  A    between atoms: N_6  and  N_10
REMARK    5  A    between atoms: C_11  and  C_13
REMARK    6  A    between atoms: C_13  and  N_14
REMARK    7  A    between atoms: C_18  and  C_20
REMARK                            x       y       z     vdW  Elec       q    Type
REMARK                         _______ _______ _______ _____ _____    ______ ____
ROOT
ATOM      1  C   UNL     1      -1.203  -1.176  -1.325  0.00  0.00    +0.139 C 
ATOM      2  C   UNL     1      -2.104  -0.526  -2.356  0.00  0.00    +0.268 C 
ATOM      3  O   UNL     1      -2.039  -0.640  -3.562  0.00  0.00    -0.271 OA
ATOM      4  N   UNL     1      -2.993   0.205  -1.655  0.00  0.00    -0.137 N 
ATOM      5  C   UNL     1      -2.781   0.108  -0.337  0.00  0.00    +0.327 C 
ATOM      6  O   UNL     1      -3.455   0.677   0.499  0.00  0.00    -0.251 OA
ATOM      7  N   UNL     1      -1.740  -0.691  -0.042  0.00  0.00    -0.280 N 
ATOM      8  H   UNL     1      -1.407  -0.905   0.844  0.00  0.00    +0.152 HD
ENDROOT
BRANCH   1   9
ATOM      9  C   UNL     1      -1.298  -2.678  -1.405  0.00  0.00    -0.015 A 
ATOM     10  C   UNL     1      -0.402  -3.386  -2.183  0.00  0.00    +0.006 A 
ATOM     11  C   UNL     1      -0.489  -4.764  -2.257  0.00  0.00    +0.000 A 
ATOM     12  C   UNL     1      -1.472  -5.433  -1.552  0.00  0.00    +0.000 A 
ATOM     13  C   UNL     1      -2.368  -4.725  -0.773  0.00  0.00    +0.000 A 
ATOM     14  C   UNL     1      -2.278  -3.347  -0.696  0.00  0.00    +0.006 A 
ENDBRANCH   1   9
BRANCH   4  15
ATOM     15  N   UNL     1      -4.012   0.972  -2.234  0.00  0.00    -0.225 N 
ATOM     16  C   UNL     1      -5.288   0.540  -2.192  0.00  0.00    +0.213 C 
ATOM     17  O   UNL     1      -5.553  -0.514  -1.653  0.00  0.00    -0.276 OA
ATOM     18  H   UNL     1      -3.800   1.815  -2.665  0.00  0.00    +0.173 HD
BRANCH  16  19
ATOM     19  C   UNL     1      -6.384   1.365  -2.815  0.00  0.00    +0.021 C 
BRANCH  19  20
ATOM     20  N   UNL     1      -7.673   0.682  -2.637  0.00  0.00    +0.393 N 
ATOM     21  C   UNL     1      -7.696  -0.554  -3.449  0.00  0.00    -0.077 C 
ATOM     22  C   UNL     1      -9.156  -0.668  -3.953  0.00  0.00    -0.020 C 
ATOM     23  C   UNL     1      -9.514   0.818  -4.217  0.00  0.00    -0.008 C 
ATOM     24  C   UNL     1      -8.767   1.561  -3.089  0.00  0.00    +0.020 C 
ATOM     25  H   UNL     1      -7.803   0.449  -1.664  0.00  0.00    -0.080 HD
BRANCH  24  26
ATOM     26  C   UNL     1      -8.201   2.855  -3.614  0.00  0.00    +0.197 C 
ATOM     27  O   UNL     1      -7.382   2.840  -4.509  0.00  0.00    -0.278 OA
ATOM     28  N   UNL     1      -8.605   4.029  -3.090  0.00  0.00    -0.331 N 
ATOM     29  H   UNL     1      -9.259   4.041  -2.374  0.00  0.00    +0.145 HD
ATOM     30  H   UNL     1      -8.241   4.862  -3.428  0.00  0.00    +0.145 HD
ENDBRANCH  24  26
ENDBRANCH  19  20
ENDBRANCH  16  19
ENDBRANCH   4  15
BRANCH   1  32
ATOM     31  C   UNL     1       0.324   0.801  -1.354  0.00  0.00    +0.007 C 
ATOM     32  C   UNL     1       0.245  -0.719  -1.510  0.00  0.00    +0.037 C 
ENDBRANCH   1  32
TORSDOF 6
