REMARK  Name = ZINC15162395
REMARK  8 active torsions:
REMARK  status: ('A' for Active; 'I' for Inactive)
REMARK    1  A    between atoms: C_1  and  C_2
REMARK    2  A    between atoms: C_2  and  C_17
REMARK    3  A    between atoms: N_3  and  N_4
REMARK    4  A    between atoms: C_5  and  C_7
REMARK    5  A    between atoms: C_10  and  N_13
REMARK    6  A    between atoms: C_14  and  C_16
REMARK    7  A    between atoms: C_17  and  C_18
REMARK    8  A    between atoms: N_20  and  C_21
REMARK                            x       y       z     vdW  Elec       q    Type
REMARK                         _______ _______ _______ _____ _____    ______ ____
ROOT
ATOM      1  C   UNL     1      -5.210   7.547  -0.528  0.00  0.00    +0.063 C 
ATOM      2  C   UNL     1      -6.467   6.721  -0.442  0.00  0.00    +0.043 C 
ATOM      3  N   UNL     1      -6.391   5.448  -0.329  0.00  0.00    -0.189 NA
ENDROOT
BRANCH   3   4
ATOM      4  N   UNL     1      -5.137   4.823  -0.286  0.00  0.00    -0.203 N 
ATOM      5  C   UNL     1      -5.057   3.483  -0.167  0.00  0.00    +0.263 C 
ATOM      6  O   UNL     1      -6.071   2.816  -0.097  0.00  0.00    -0.268 OA
ATOM      7  H   UNL     1      -4.328   5.355  -0.341  0.00  0.00    +0.178 HD
BRANCH   5   8
ATOM      8  C   UNL     1      -3.737   2.825  -0.120  0.00  0.00    +0.038 A 
ATOM      9  C   UNL     1      -3.651   1.435   0.003  0.00  0.00    +0.015 A 
ATOM     10  C   UNL     1      -2.418   0.824   0.045  0.00  0.00    +0.024 A 
ATOM     11  C   UNL     1      -1.258   1.588  -0.035  0.00  0.00    +0.033 A 
ATOM     12  C   UNL     1      -1.340   2.972  -0.152  0.00  0.00    +0.024 A 
ATOM     13  C   UNL     1      -2.570   3.589  -0.201  0.00  0.00    +0.015 A 
BRANCH  11  14
ATOM     14  N   UNL     1      -0.011   0.966   0.007  0.00  0.00    -0.286 N 
ATOM     15  C   UNL     1       1.025   1.575   0.617  0.00  0.00    +0.214 C 
ATOM     16  O   UNL     1       0.894   2.696   1.060  0.00  0.00    -0.276 OA
ATOM     17  C   UNL     1       2.347   0.862   0.748  0.00  0.00    +0.109 C 
ATOM     18  H   UNL     1       0.112   0.097  -0.405  0.00  0.00    +0.155 HD
ENDBRANCH  11  14
ENDBRANCH   5   8
ENDBRANCH   3   4
BRANCH   2  19
ATOM     19  C   UNL     1      -7.815   7.393  -0.489  0.00  0.00    +0.147 C 
BRANCH  19  20
ATOM     20  C   UNL     1      -7.984   8.267   0.727  0.00  0.00    +0.219 C 
ATOM     21  O   UNL     1      -7.096   8.336   1.551  0.00  0.00    -0.275 OA
ATOM     22  N   UNL     1      -9.120   8.970   0.899  0.00  0.00    -0.309 N 
ATOM     23  H   UNL     1      -9.829   8.915   0.240  0.00  0.00    +0.149 HD
BRANCH  22  24
ATOM     24  C   UNL     1      -9.284   9.820   2.082  0.00  0.00    +0.035 C 
ATOM     25  C   UNL     1      -9.186   8.960   3.344  0.00  0.00    +0.029 C 
ATOM     26  C   UNL     1      -9.357   9.847   4.579  0.00  0.00    -0.008 C 
ATOM     27  C   UNL     1     -10.726  10.530   4.531  0.00  0.00    +0.007 C 
ATOM     28  C   UNL     1     -10.823  11.389   3.269  0.00  0.00    -0.008 C 
ATOM     29  C   UNL     1     -10.652  10.502   2.034  0.00  0.00    +0.029 C 
ATOM     30  C   UNL     1      -9.723  12.452   3.289  0.00  0.00    +0.007 C 
ATOM     31  C   UNL     1      -8.355  11.770   3.337  0.00  0.00    -0.008 C 
ATOM     32  C   UNL     1      -8.257  10.911   4.599  0.00  0.00    +0.007 C 
ATOM     33  C   UNL     1      -8.184  10.883   2.102  0.00  0.00    +0.029 C 
ENDBRANCH  22  24
ENDBRANCH  19  20
ENDBRANCH   2  19
TORSDOF 6
