REMARK  Name = ZINC62915337
REMARK  5 active torsions:
REMARK  status: ('A' for Active; 'I' for Inactive)
REMARK    1  A    between atoms: C_1  and  C_2
REMARK    2  A    between atoms: C_2  and  C_3
REMARK    3  A    between atoms: C_3  and  C_19
REMARK    4  A    between atoms: C_8  and  C_10
REMARK    5  A    between atoms: C_11  and  C_12
REMARK                            x       y       z     vdW  Elec       q    Type
REMARK                         _______ _______ _______ _____ _____    ______ ____
ROOT
ATOM      1  C   UNL     1       0.718  -0.497  -1.257  0.00  0.00    +0.089 C 
ATOM      2  C   UNL     1       0.686  -2.042  -1.322  0.00  0.00    +0.039 C 
ATOM      3  C   UNL     1      -0.519  -2.322  -2.255  0.00  0.00    +0.109 C 
ATOM      4  N   UNL     1      -0.429  -1.239  -3.260  0.00  0.00    -0.297 N 
ATOM      5  C   UNL     1      -0.032  -0.028  -2.518  0.00  0.00    +0.126 C 
ATOM      6  C   UNL     1      -0.663  -1.339  -4.584  0.00  0.00    +0.239 C 
ATOM      7  O   UNL     1      -0.550  -0.359  -5.298  0.00  0.00    -0.271 OA
ENDROOT
BRANCH   1   8
ATOM      8  C   UNL     1       2.140   0.000  -1.278  0.00  0.00    +0.364 C 
ATOM      9  O   UNL     1       2.561   0.683  -0.360  0.00  0.00    -0.246 OA
ATOM     10  O   UNL     1       2.870  -0.280  -2.213  0.00  0.00    -0.246 OA
ENDBRANCH   1   8
BRANCH   1  12
ATOM     11  C   UNL     1      -0.019   1.526   0.010  0.00  0.00    +0.005 C 
ATOM     12  C   UNL     1       0.002  -0.004   0.002  0.00  0.00    +0.016 C 
ENDBRANCH   1  12
BRANCH   6  13
ATOM     13  C   UNL     1      -1.052  -2.626  -5.164  0.00  0.00    +0.068 C 
ATOM     14  C   UNL     1      -1.285  -2.725  -6.488  0.00  0.00    +0.013 C 
BRANCH  14  15
ATOM     15  C   UNL     1      -1.676  -4.019  -7.071  0.00  0.00    -0.024 A 
ATOM     16  C   UNL     1      -1.812  -5.146  -6.253  0.00  0.00    +0.008 A 
ATOM     17  C   UNL     1      -2.179  -6.355  -6.806  0.00  0.00    +0.002 A 
ATOM     18  C   UNL     1      -2.412  -6.455  -8.167  0.00  0.00    +0.015 A 
ATOM     19  C   UNL     1      -2.280  -5.345  -8.983  0.00  0.00    +0.018 A 
ATOM     20  C   UNL     1      -1.919  -4.127  -8.443  0.00  0.00    +0.023 A 
ATOM     21 BR   UNL     1      -2.601  -5.496 -10.841  0.00  0.00    -0.050 Br
ENDBRANCH  14  15
ENDBRANCH   6  13
TORSDOF 4
