REMARK  Name = ZINC37691963
REMARK  8 active torsions:
REMARK  status: ('A' for Active; 'I' for Inactive)
REMARK    1  A    between atoms: C_1  and  O_2
REMARK    2  A    between atoms: O_2  and  C_3
REMARK    3  A    between atoms: C_5  and  C_22
REMARK    4  A    between atoms: C_6  and  N_19
REMARK    5  A    between atoms: C_8  and  O_9
REMARK    6  A    between atoms: O_9  and  C_10
REMARK    7  A    between atoms: C_16  and  O_18
REMARK    8  A    between atoms: C_22  and  O_23
REMARK                            x       y       z     vdW  Elec       q    Type
REMARK                         _______ _______ _______ _____ _____    ______ ____
ROOT
ATOM      1  C   UNL     1      -1.215  -0.654  -0.209  0.00  0.00    +0.162 A 
ATOM      2  C   UNL     1      -2.381   0.065  -0.417  0.00  0.00    +0.057 A 
ATOM      3  C   UNL     1      -3.576  -0.599  -0.620  0.00  0.00    +0.012 A 
ATOM      4  C   UNL     1      -3.612  -1.981  -0.616  0.00  0.00    +0.135 A 
ATOM      5  C   UNL     1      -2.453  -2.705  -0.409  0.00  0.00    +0.082 A 
ATOM      6  C   UNL     1      -1.250  -2.045  -0.210  0.00  0.00    +0.165 A 
ENDROOT
BRANCH   4   7
ATOM      7  N   UNL     1      -4.895  -2.687  -0.833  0.00  0.00    +0.057 N 
ATOM      8  O   UNL     1      -4.928  -3.895  -0.830  0.00  0.00    -0.126 OA
ATOM      9  O   UNL     1      -5.910  -2.054  -1.014  0.00  0.00    -0.126 OA
ENDBRANCH   4   7
BRANCH   1  11
ATOM     10  C   UNL     1      -0.078   1.426  -0.021  0.00  0.00    +0.277 C 
ATOM     11  O   UNL     1      -0.038  -0.003  -0.009  0.00  0.00    -0.491 OA
ENDBRANCH   1  11
BRANCH   6  12
ATOM     12  O   UNL     1      -0.108  -2.756  -0.012  0.00  0.00    -0.483 OA
BRANCH  12  13
ATOM     13  C   UNL     1      -0.238  -4.175   0.099  0.00  0.00    +0.202 C 
ATOM     14  C   UNL     1      -0.243  -4.797  -1.300  0.00  0.00    +0.047 C 
ATOM     15  C   UNL     1      -0.382  -6.316  -1.181  0.00  0.00    +0.004 C 
ATOM     16  C   UNL     1       0.794  -6.875  -0.379  0.00  0.00    +0.003 C 
ATOM     17  C   UNL     1       0.800  -6.253   1.019  0.00  0.00    +0.035 C 
ATOM     18  C   UNL     1       0.939  -4.734   0.901  0.00  0.00    +0.155 C 
BRANCH  18  19
ATOM     19  O   UNL     1       0.944  -4.153   2.206  0.00  0.00    -0.388 OA
ATOM     20  H   UNL     1       1.665  -4.463   2.772  0.00  0.00    +0.210 HD
ENDBRANCH  18  19
ENDBRANCH  12  13
ENDBRANCH   6  12
BRANCH   3  21
ATOM     21  C   UNL     1      -4.843   0.186  -0.847  0.00  0.00    +0.193 C 
BRANCH  21  22
ATOM     22  O   UNL     1      -4.551   1.584  -0.806  0.00  0.00    -0.390 OA
ATOM     23  H   UNL     1      -5.322   2.151  -0.945  0.00  0.00    +0.210 HD
ENDBRANCH  21  22
ENDBRANCH   3  21
TORSDOF 7
