REMARK  Name = ZINC09359989
REMARK  5 active torsions:
REMARK  status: ('A' for Active; 'I' for Inactive)
REMARK    1  A    between atoms: C_6  and  N_7
REMARK    2  A    between atoms: C_8  and  C_10
REMARK    3  A    between atoms: C_10  and  S_11
REMARK    4  A    between atoms: S_11  and  C_12
REMARK    5  A    between atoms: C_18  and  N_22
REMARK                            x       y       z     vdW  Elec       q    Type
REMARK                         _______ _______ _______ _____ _____    ______ ____
ROOT
ATOM      1  S   UNL     1      -2.128  -4.602  -0.337  0.00  0.00    -0.079 S 
ENDROOT
BRANCH   1   2
ATOM      2  C   UNL     1      -3.721  -5.346  -0.450  0.00  0.00    +0.168 A 
ATOM      3  N   UNL     1      -3.955  -6.687  -0.562  0.00  0.00    -0.333 N 
ATOM      4  H   UNL     1      -3.285  -7.388  -0.593  0.00  0.00    +0.168 HD
ATOM      5  C   UNL     1      -5.329  -6.860  -0.622  0.00  0.00    +0.067 A 
ATOM      6  C   UNL     1      -6.153  -7.969  -0.736  0.00  0.00    +0.030 A 
ATOM      7  C   UNL     1      -7.523  -7.806  -0.770  0.00  0.00    +0.035 A 
ATOM      8  C   UNL     1      -8.081  -6.538  -0.692  0.00  0.00    +0.128 A 
ATOM      9  C   UNL     1      -7.277  -5.426  -0.579  0.00  0.00    +0.062 A 
ATOM     10  C   UNL     1      -5.889  -5.575  -0.542  0.00  0.00    +0.092 A 
ATOM     11  N   UNL     1      -4.859  -4.695  -0.434  0.00  0.00    -0.222 NA
BRANCH   8  12
ATOM     12  N   UNL     1      -9.553  -6.380  -0.730  0.00  0.00    +0.056 N 
ATOM     13  O   UNL     1     -10.263  -7.354  -0.829  0.00  0.00    -0.126 OA
ATOM     14  O   UNL     1     -10.044  -5.278  -0.661  0.00  0.00    -0.126 OA
ENDBRANCH   8  12
ENDBRANCH   1   2
BRANCH   1  15
ATOM     15  C   UNL     1      -2.480  -2.828  -0.204  0.00  0.00    +0.173 C 
BRANCH  15  17
ATOM     16  N   UNL     1      -1.200  -0.722   0.010  0.00  0.00    -0.285 N 
ATOM     17  C   UNL     1      -1.185  -2.065  -0.099  0.00  0.00    +0.227 C 
ATOM     18  O   UNL     1      -0.128  -2.660  -0.113  0.00  0.00    -0.275 OA
ATOM     19  H   UNL     1      -2.045  -0.252   0.098  0.00  0.00    +0.155 HD
BRANCH  16  25
ATOM     20  C   UNL     1       1.071  -0.454  -0.766  0.00  0.00    +0.026 A 
ATOM     21  C   UNL     1       2.256   0.256  -0.779  0.00  0.00    +0.041 A 
ATOM     22  C   UNL     1       2.379   1.415  -0.033  0.00  0.00    +0.142 A 
ATOM     23  C   UNL     1       1.313   1.867   0.729  0.00  0.00    +0.078 A 
ATOM     24  C   UNL     1       0.126   1.159   0.745  0.00  0.00    +0.046 A 
ATOM     25  C   UNL     1       0.002  -0.004  -0.004  0.00  0.00    +0.035 A 
ATOM     26 CL   UNL     1       1.469   3.321   1.665  0.00  0.00    -0.081 Cl
ATOM     27  F   UNL     1       3.539   2.107  -0.047  0.00  0.00    -0.204 F 
ENDBRANCH  16  25
ENDBRANCH  15  17
ENDBRANCH   1  15
TORSDOF 5
