REMARK  Name = ZINC49876375
REMARK  9 active torsions:
REMARK  status: ('A' for Active; 'I' for Inactive)
REMARK    1  A    between atoms: C_1  and  C_2
REMARK    2  A    between atoms: C_5  and  C_26
REMARK    3  A    between atoms: C_6  and  C_8
REMARK    4  A    between atoms: C_15  and  O_18
REMARK    5  A    between atoms: O_18  and  C_19
REMARK    6  A    between atoms: C_19  and  C_20
REMARK    7  A    between atoms: N_22  and  C_23
REMARK    8  A    between atoms: C_23  and  C_24
REMARK    9  A    between atoms: C_23  and  C_25
REMARK                            x       y       z     vdW  Elec       q    Type
REMARK                         _______ _______ _______ _____ _____    ______ ____
ROOT
ATOM      1  C   UNL     1       0.497  -2.957   2.344  0.00  0.00    +0.101 A 
ATOM      2  C   UNL     1       0.624  -2.335   3.610  0.00  0.00    +0.015 A 
ATOM      3  C   UNL     1       0.526  -0.951   3.786  0.00  0.00    +0.011 A 
ATOM      4  C   UNL     1       0.659  -0.424   5.037  0.00  0.00    +0.001 A 
ATOM      5  C   UNL     1       0.889  -1.242   6.140  0.00  0.00    +0.001 A 
ATOM      6  C   UNL     1       0.989  -2.595   6.003  0.00  0.00    +0.014 A 
ATOM      7  C   UNL     1       0.858  -3.168   4.734  0.00  0.00    +0.047 A 
ATOM      8  C   UNL     1       0.949  -4.560   4.511  0.00  0.00    +0.243 A 
ATOM      9  N   UNL     1       0.814  -5.022   3.282  0.00  0.00    -0.110 NA
ATOM     10  N   UNL     1       0.597  -4.273   2.267  0.00  0.00    -0.145 NA
ENDROOT
BRANCH   1  16
ATOM     11  C   UNL     1       1.723   0.871  -0.617  0.00  0.00    +0.044 C 
ATOM     12  C   UNL     1       0.838  -0.307  -0.298  0.00  0.00    -0.050 A 
ATOM     13  C   UNL     1      -0.207  -0.634  -1.144  0.00  0.00    +0.003 A 
ATOM     14  C   UNL     1      -1.024  -1.713  -0.860  0.00  0.00    +0.004 A 
ATOM     15  C   UNL     1      -0.800  -2.472   0.272  0.00  0.00    -0.041 A 
ATOM     16  C   UNL     1       0.252  -2.148   1.128  0.00  0.00    +0.006 A 
ATOM     17  C   UNL     1       1.075  -1.061   0.832  0.00  0.00    +0.013 A 
ATOM     18  C   UNL     1      -1.691  -3.647   0.581  0.00  0.00    +0.044 C 
ENDBRANCH   1  16
BRANCH   8  19
ATOM     19  O   UNL     1       1.172  -5.408   5.544  0.00  0.00    -0.466 OA
BRANCH  19  20
ATOM     20  C   UNL     1       1.250  -6.801   5.235  0.00  0.00    +0.326 C 
BRANCH  20  21
ATOM     21  C   UNL     1       1.500  -7.583   6.499  0.00  0.00    +0.251 C 
ATOM     22  O   UNL     1       1.602  -7.005   7.560  0.00  0.00    -0.272 OA
ATOM     23  N   UNL     1       1.611  -8.926   6.449  0.00  0.00    -0.310 N 
ATOM     24  H   UNL     1       1.530  -9.388   5.601  0.00  0.00    +0.149 HD
BRANCH  23  25
ATOM     25  C   UNL     1       1.855  -9.686   7.678  0.00  0.00    +0.067 C 
ATOM     26  C   UNL     1       0.522  -9.969   8.375  0.00  0.00    +0.027 C 
ATOM     27  C   UNL     1       2.540 -11.009   7.331  0.00  0.00    +0.027 C 
ENDBRANCH  23  25
ENDBRANCH  20  21
ENDBRANCH  19  20
ENDBRANCH   8  19
TORSDOF 5
