REMARK  Name = ZINC50778430
REMARK  4 active torsions:
REMARK  status: ('A' for Active; 'I' for Inactive)
REMARK    1  A    between atoms: C_1  and  N_2
REMARK    2  A    between atoms: N_2  and  C_3
REMARK    3  A    between atoms: C_5  and  C_13
REMARK    4  A    between atoms: C_6  and  N_10
REMARK                            x       y       z     vdW  Elec       q    Type
REMARK                         _______ _______ _______ _____ _____    ______ ____
ROOT
ATOM      1  C   UNL     1       1.413  -1.020  -0.802  0.00  0.00    +0.063 A 
ATOM      2  C   UNL     1       2.150  -0.376  -1.782  0.00  0.00    +0.041 A 
ATOM      3  C   UNL     1       1.907  -0.655  -3.128  0.00  0.00    +0.069 A 
ATOM      4  C   UNL     1       0.923  -1.582  -3.478  0.00  0.00    +0.141 A 
ATOM      5  C   UNL     1       0.194  -2.219  -2.495  0.00  0.00    +0.073 A 
ATOM      6  C   UNL     1       0.438  -1.946  -1.160  0.00  0.00    +0.146 A 
ATOM      7  F   UNL     1      -0.275  -2.578  -0.202  0.00  0.00    -0.203 F 
ENDROOT
BRANCH   3   8
ATOM      8  C   UNL     1       2.688   0.028  -4.179  0.00  0.00    +0.249 C 
ATOM      9  O   UNL     1       3.324  -0.623  -4.985  0.00  0.00    -0.270 OA
ATOM     10  N   UNL     1       2.696   1.375  -4.245  0.00  0.00    -0.294 N 
ATOM     11  C   UNL     1       2.088   2.309  -3.275  0.00  0.00    +0.112 C 
ATOM     12  C   UNL     1       2.371   3.734  -3.845  0.00  0.00    +0.008 C 
ATOM     13  C   UNL     1       3.905   3.928  -3.627  0.00  0.00    +0.007 C 
ATOM     14  C   UNL     1       4.555   2.900  -4.583  0.00  0.00    +0.023 C 
ATOM     15  C   UNL     1       3.326   2.210  -5.307  0.00  0.00    +0.077 C 
ATOM     16  C   UNL     1       2.315   3.413  -5.382  0.00  0.00    +0.027 C 
ENDBRANCH   3   8
BRANCH   1  18
ATOM     17  C   UNL     1       2.680   0.232   0.925  0.00  0.00    +0.125 C 
ATOM     18  N   UNL     1       1.653  -0.743   0.548  0.00  0.00    -0.345 N 
ATOM     19  H   UNL     1       1.141  -1.197   1.235  0.00  0.00    +0.146 HD
ENDBRANCH   1  18
BRANCH   4  20
ATOM     20  N   UNL     1       0.663  -1.882  -4.904  0.00  0.00    +0.057 N 
ATOM     21  O   UNL     1      -0.186  -2.687  -5.207  0.00  0.00    -0.126 OA
ATOM     22  O   UNL     1       1.299  -1.321  -5.766  0.00  0.00    -0.126 OA
ENDBRANCH   4  20
TORSDOF 3
