REMARK  Name = ZINC39413150
REMARK  4 active torsions:
REMARK  status: ('A' for Active; 'I' for Inactive)
REMARK    1  A    between atoms: C_1  and  C_2
REMARK    2  A    between atoms: C_2  and  C_3
REMARK    3  A    between atoms: C_2  and  C_4
REMARK    4  A    between atoms: C_6  and  C_10
REMARK                            x       y       z     vdW  Elec       q    Type
REMARK                         _______ _______ _______ _____ _____    ______ ____
ROOT
ATOM      1  C   UNL     1      -4.314  -0.769  -1.353  0.00  0.00    +0.240 C 
ATOM      2  O   UNL     1      -4.811   0.220  -0.858  0.00  0.00    -0.273 OA
ATOM      3  N   UNL     1      -4.622  -1.117  -2.618  0.00  0.00    -0.295 N 
ATOM      4  C   UNL     1      -4.037  -2.315  -3.239  0.00  0.00    +0.114 C 
ATOM      5  C   UNL     1      -5.151  -3.319  -3.554  0.00  0.00    +0.076 C 
ATOM      6  C   UNL     1      -6.300  -2.588  -4.213  0.00  0.00    +0.067 C 
ATOM      7  C   UNL     1      -6.464  -1.263  -4.143  0.00  0.00    -0.007 C 
ATOM      8  C   UNL     1      -5.561  -0.310  -3.422  0.00  0.00    +0.142 C 
ATOM      9  C   UNL     1      -7.720  -0.983  -4.925  0.00  0.00    +0.200 C 
ATOM     10  N   UNL     1      -8.126  -2.330  -5.374  0.00  0.00    -0.183 NA
ATOM     11  N   UNL     1      -7.297  -3.137  -4.942  0.00  0.00    -0.159 NA
ENDROOT
BRANCH   1  14
ATOM     12  C   UNL     1      -1.412  -0.526   0.013  0.00  0.00    +0.126 C 
ATOM     13  C   UNL     1      -1.918  -1.291  -0.930  0.00  0.00    +0.048 C 
ATOM     14  C   UNL     1      -3.352  -1.609  -0.553  0.00  0.00    +0.204 C 
ATOM     15  N   UNL     1      -3.398  -1.245   0.886  0.00  0.00    -0.140 NA
ATOM     16  O   UNL     1      -2.305  -0.265   0.997  0.00  0.00    -0.410 OA
ATOM     17  H   UNL     1      -4.286  -0.829   1.126  0.00  0.00    +0.168 HD
BRANCH  12  19
ATOM     18  C   UNL     1      -0.019   1.526   0.010  0.00  0.00    +0.015 C 
ATOM     19  C   UNL     1       0.002  -0.004   0.002  0.00  0.00    +0.051 C 
ATOM     20  C   UNL     1       0.742  -0.511   1.242  0.00  0.00    +0.015 C 
ENDBRANCH  12  19
ENDBRANCH   1  14
TORSDOF 2
