REMARK  Name = ZINC67298071
REMARK  6 active torsions:
REMARK  status: ('A' for Active; 'I' for Inactive)
REMARK    1  A    between atoms: C_1  and  O_2
REMARK    2  A    between atoms: O_2  and  C_3
REMARK    3  A    between atoms: C_3  and  C_5
REMARK    4  A    between atoms: C_8  and  N_11
REMARK    5  A    between atoms: C_13  and  C_23
REMARK    6  A    between atoms: C_18  and  O_22
REMARK                            x       y       z     vdW  Elec       q    Type
REMARK                         _______ _______ _______ _____ _____    ______ ____
ROOT
ATOM      1  N   UNL     1      -1.399  -6.229  -0.015  0.00  0.00    -0.325 N 
ATOM      2  C   UNL     1      -2.228  -6.859   0.794  0.00  0.00    +0.212 A 
ATOM      3  C   UNL     1      -2.385  -8.324   0.735  0.00  0.00    +0.098 A 
ATOM      4  C   UNL     1      -2.812  -8.968   1.889  0.00  0.00    +0.030 A 
ATOM      5  C   UNL     1      -3.096  -8.177   3.030  0.00  0.00    +0.018 A 
ATOM      6  C   UNL     1      -3.335  -8.783   4.273  0.00  0.00    +0.015 A 
ATOM      7  C   UNL     1      -3.567  -8.011   5.372  0.00  0.00    +0.046 A 
ATOM      8  C   UNL     1      -3.576  -6.620   5.270  0.00  0.00    +0.120 A 
ATOM      9  C   UNL     1      -3.363  -6.003   4.047  0.00  0.00    +0.092 A 
ATOM     10  C   UNL     1      -3.133  -6.773   2.919  0.00  0.00    +0.141 A 
ATOM     11  O   UNL     1      -2.961  -6.183   1.714  0.00  0.00    -0.438 OA
ATOM     12  H   UNL     1      -0.819  -6.735  -0.605  0.00  0.00    +0.169 HD
ENDROOT
BRANCH   3  13
ATOM     13  C   UNL     1      -2.101  -9.074  -0.499  0.00  0.00    +0.255 C 
ATOM     14  O   UNL     1      -1.646  -8.499  -1.469  0.00  0.00    -0.270 OA
ATOM     15  N   UNL     1      -2.346 -10.399  -0.554  0.00  0.00    -0.261 N 
ATOM     16  C   UNL     1      -1.980 -11.127  -1.678  0.00  0.00    +0.165 A 
ATOM     17  N   UNL     1      -1.385 -10.699  -2.771  0.00  0.00    -0.233 NA
ATOM     18  C   UNL     1      -1.100 -11.525  -3.761  0.00  0.00    +0.120 A 
ATOM     19  C   UNL     1      -1.448 -12.825  -3.598  0.00  0.00    +0.068 A 
ATOM     20  S   UNL     1      -2.181 -12.772  -1.971  0.00  0.00    -0.061 S 
ATOM     21  H   UNL     1      -2.779 -10.843   0.192  0.00  0.00    +0.157 HD
ENDBRANCH   3  13
BRANCH   1  25
ATOM     22  C   UNL     1      -1.273  -2.105  -0.035  0.00  0.00    +0.059 A 
ATOM     23  C   UNL     1      -0.082  -2.841  -0.028  0.00  0.00    +0.017 A 
ATOM     24  C   UNL     1      -0.123  -4.205  -0.022  0.00  0.00    +0.026 A 
ATOM     25  C   UNL     1      -1.357  -4.868  -0.021  0.00  0.00    +0.042 A 
ATOM     26  C   UNL     1      -2.548  -4.130  -0.027  0.00  0.00    +0.026 A 
ATOM     27  C   UNL     1      -2.506  -2.767  -0.028  0.00  0.00    +0.017 A 
BRANCH  22  28
ATOM     28  C   UNL     1      -1.228  -0.633  -0.041  0.00  0.00    +0.339 C 
ATOM     29  O   UNL     1      -2.261   0.006  -0.041  0.00  0.00    -0.245 OA
BRANCH  28  31
ATOM     30  C   UNL     1      -0.071   1.433  -0.054  0.00  0.00    +0.280 C 
ATOM     31  O   UNL     1      -0.040   0.005  -0.047  0.00  0.00    -0.464 OA
ENDBRANCH  28  31
ENDBRANCH  22  28
ENDBRANCH   1  25
BRANCH   8  32
ATOM     32  O   UNL     1      -3.797  -5.865   6.376  0.00  0.00    -0.507 OA
ATOM     33  H   UNL     1      -2.993  -5.628   6.857  0.00  0.00    +0.292 HD
ENDBRANCH   8  32
TORSDOF 5
