REMARK  Name = ZINC39140848
REMARK  8 active torsions:
REMARK  status: ('A' for Active; 'I' for Inactive)
REMARK    1  A    between atoms: C_1  and  C_2
REMARK    2  A    between atoms: C_2  and  C_3
REMARK    3  A    between atoms: C_6  and  C_9
REMARK    4  A    between atoms: C_9  and  C_11
REMARK    5  A    between atoms: C_9  and  N_12
REMARK    6  A    between atoms: C_13  and  C_15
REMARK    7  A    between atoms: C_15  and  C_26
REMARK    8  A    between atoms: C_16  and  C_17
REMARK                            x       y       z     vdW  Elec       q    Type
REMARK                         _______ _______ _______ _____ _____    ______ ____
ROOT
ATOM      1  N   UNL     1       2.739  -4.258  -4.955  0.00  0.00    -0.304 N 
ATOM      2  C   UNL     1       4.007  -3.881  -5.211  0.00  0.00    +0.255 C 
ATOM      3  O   UNL     1       4.230  -2.791  -5.701  0.00  0.00    -0.269 OA
ATOM      4  H   UNL     1       2.561  -5.128  -4.564  0.00  0.00    +0.150 HD
ENDROOT
BRANCH   1   5
ATOM      5  C   UNL     1       1.629  -3.354  -5.266  0.00  0.00    +0.100 C 
ATOM      6  C   UNL     1       1.420  -2.383  -4.102  0.00  0.00    +0.033 C 
BRANCH   5  10
ATOM      7  C   UNL     1      -1.933  -5.633  -5.877  0.00  0.00    -0.048 A 
ATOM      8  C   UNL     1      -1.659  -4.547  -6.688  0.00  0.00    +0.004 A 
ATOM      9  C   UNL     1      -0.507  -3.809  -6.490  0.00  0.00    +0.006 A 
ATOM     10  C   UNL     1       0.372  -4.158  -5.481  0.00  0.00    -0.027 A 
ATOM     11  C   UNL     1       0.098  -5.243  -4.670  0.00  0.00    +0.006 A 
ATOM     12  C   UNL     1      -1.056  -5.978  -4.865  0.00  0.00    +0.004 A 
BRANCH   7  14
ATOM     13  C   UNL     1      -4.324  -5.843  -5.256  0.00  0.00    +0.009 C 
ATOM     14  C   UNL     1      -3.189  -6.437  -6.093  0.00  0.00    +0.032 C 
ENDBRANCH   7  14
ENDBRANCH   5  10
ENDBRANCH   1   5
BRANCH   2  15
ATOM     15  C   UNL     1       5.124  -4.791  -4.898  0.00  0.00    +0.114 C 
ATOM     16  C   UNL     1       5.468  -5.798  -5.787  0.00  0.00    +0.030 C 
BRANCH  16  17
ATOM     17  C   UNL     1       4.917  -5.814  -7.073  0.00  0.00    -0.018 C 
ATOM     18  C   UNL     1       5.069  -6.800  -8.041  0.00  0.00    +0.003 A 
ATOM     19  C   UNL     1       5.772  -8.024  -8.061  0.00  0.00    +0.010 A 
ATOM     20  C   UNL     1       5.747  -8.808  -9.165  0.00  0.00    +0.001 A 
ATOM     21  C   UNL     1       5.038  -8.454 -10.321  0.00  0.00    +0.002 A 
ATOM     22  C   UNL     1       4.333  -7.303 -10.402  0.00  0.00    +0.026 A 
ATOM     23  C   UNL     1       4.309  -6.396  -9.245  0.00  0.00    +0.043 A 
ATOM     24  N   UNL     1       3.723  -5.244  -9.053  0.00  0.00    -0.380 N 
ATOM     25  C   UNL     1       4.025  -4.765  -7.701  0.00  0.00    +0.149 C 
ATOM     26  H   UNL     1       3.171  -4.781  -9.702  0.00  0.00    +0.160 HD
ENDBRANCH  16  17
BRANCH  15  27
ATOM     27  C   UNL     1       5.854  -4.634  -3.676  0.00  0.00    +0.104 C 
ATOM     28  N   UNL     1       6.433  -4.510  -2.707  0.00  0.00    -0.191 NA
ENDBRANCH  15  27
ENDBRANCH   2  15
TORSDOF 6
