REMARK  Name = ZINC53173357
REMARK  6 active torsions:
REMARK  status: ('A' for Active; 'I' for Inactive)
REMARK    1  A    between atoms: C_1  and  C_2
REMARK    2  A    between atoms: C_2  and  C_4
REMARK    3  A    between atoms: C_2  and  N_7
REMARK    4  A    between atoms: C_4  and  O_5
REMARK    5  A    between atoms: O_5  and  C_6
REMARK    6  A    between atoms: N_7  and  C_8
REMARK                            x       y       z     vdW  Elec       q    Type
REMARK                         _______ _______ _______ _____ _____    ______ ____
ROOT
ATOM      1  C   UNL     1       0.026  -0.639   2.401  0.00  0.00    +0.050 A 
ATOM      2  C   UNL     1      -1.326  -0.333   2.476  0.00  0.00    +0.074 A 
ATOM      3  C   UNL     1      -2.004  -0.482   3.675  0.00  0.00    +0.168 A 
ATOM      4  C   UNL     1      -1.327  -0.938   4.803  0.00  0.00    +0.168 A 
ATOM      5  C   UNL     1       0.022  -1.243   4.725  0.00  0.00    +0.071 A 
ATOM      6  C   UNL     1       0.697  -1.099   3.526  0.00  0.00    +0.065 A 
ATOM      7 CL   UNL     1       2.386  -1.488   3.430  0.00  0.00    -0.082 Cl
ATOM      8  O   UNL     1      -2.207  -0.997   5.846  0.00  0.00    -0.453 OA
ATOM      9  C   UNL     1      -3.329  -0.186   5.449  0.00  0.00    +0.466 C 
ATOM     10  O   UNL     1      -3.308  -0.255   4.011  0.00  0.00    -0.453 OA
ENDROOT
BRANCH   1  11
ATOM     11  N   UNL     1       0.711  -0.489   1.189  0.00  0.00    -0.338 N 
ATOM     12  H   UNL     1       1.654  -0.707   1.135  0.00  0.00    +0.146 HD
BRANCH  11  14
ATOM     13  C   UNL     1      -0.019   1.526   0.010  0.00  0.00    +0.030 C 
ATOM     14  C   UNL     1       0.002  -0.004   0.002  0.00  0.00    +0.093 C 
BRANCH  14  15
ATOM     15  C   UNL     1       0.718  -0.497  -1.257  0.00  0.00    +0.181 C 
BRANCH  15  16
ATOM     16  O   UNL     1       2.019   0.090  -1.326  0.00  0.00    -0.381 OA
ATOM     17  C   UNL     1       2.776  -0.307  -2.471  0.00  0.00    +0.194 C 
ENDBRANCH  15  16
ENDBRANCH  14  15
ENDBRANCH  11  14
ENDBRANCH   1  11
TORSDOF 4
