REMARK  Name = ZINC36644565
REMARK  11 active torsions:
REMARK  status: ('A' for Active; 'I' for Inactive)
REMARK    1  A    between atoms: C_1  and  C_2
REMARK    2  A    between atoms: C_2  and  C_3
REMARK    3  A    between atoms: C_3  and  C_4
REMARK    4  A    between atoms: C_4  and  N_5
REMARK    5  A    between atoms: C_6  and  N_33
REMARK    6  A    between atoms: C_7  and  N_14
REMARK    7  A    between atoms: N_14  and  C_15
REMARK    8  A    between atoms: C_15  and  C_16
REMARK    9  A    between atoms: C_16  and  C_17
REMARK   10  A    between atoms: C_16  and  C_18
REMARK   11  A    between atoms: C_19  and  C_21
REMARK                            x       y       z     vdW  Elec       q    Type
REMARK                         _______ _______ _______ _____ _____    ______ ____
ROOT
ATOM      1  N   UNL     1       4.910  -2.807   3.766  0.00  0.00    -0.263 N 
ATOM      2  C   UNL     1       5.453  -3.023   2.550  0.00  0.00    +0.228 C 
ATOM      3  O   UNL     1       6.555  -3.521   2.458  0.00  0.00    -0.275 OA
ENDROOT
BRANCH   2   4
ATOM      4  C   UNL     1       4.690  -2.647   1.306  0.00  0.00    +0.116 C 
ATOM      5  C   UNL     1       3.882  -3.851   0.820  0.00  0.00    +0.113 C 
ATOM      6  C   UNL     1       4.807  -4.890   0.246  0.00  0.00    +0.218 C 
ATOM      7  O   UNL     1       4.552  -6.066   0.393  0.00  0.00    -0.275 OA
ATOM      8  N   UNL     1       5.914  -4.529  -0.429  0.00  0.00    -0.285 N 
ATOM      9  C   UNL     1       6.235  -3.178  -0.594  0.00  0.00    +0.037 A 
ATOM     10  C   UNL     1       5.658  -2.223   0.233  0.00  0.00    -0.014 A 
ATOM     11  C   UNL     1       5.973  -0.889   0.069  0.00  0.00    +0.006 A 
ATOM     12  C   UNL     1       6.862  -0.504  -0.918  0.00  0.00    +0.000 A 
ATOM     13  C   UNL     1       7.438  -1.452  -1.743  0.00  0.00    +0.002 A 
ATOM     14  C   UNL     1       7.128  -2.788  -1.583  0.00  0.00    +0.023 A 
ATOM     15  H   UNL     1       6.494  -5.211  -0.803  0.00  0.00    +0.155 HD
ENDBRANCH   2   4
BRANCH   1  18
ATOM     16  N   UNL     1       1.372  -2.129   4.492  0.00  0.00    -0.280 N 
ATOM     17  C   UNL     1       2.569  -2.799   4.397  0.00  0.00    +0.127 A 
ATOM     18  C   UNL     1       3.668  -2.146   3.877  0.00  0.00    +0.140 A 
ATOM     19  C   UNL     1       3.528  -0.809   3.459  0.00  0.00    +0.277 A 
ATOM     20  O   UNL     1       4.483  -0.208   2.995  0.00  0.00    -0.266 OA
ATOM     21  N   UNL     1       2.333  -0.198   3.574  0.00  0.00    -0.273 N 
ATOM     22  H   UNL     1       2.236   0.723   3.286  0.00  0.00    +0.173 HD
ATOM     23  C   UNL     1       1.272  -0.853   4.078  0.00  0.00    +0.331 A 
ATOM     24  O   UNL     1       0.203  -0.279   4.166  0.00  0.00    -0.246 OA
BRANCH  17  25
ATOM     25  N   UNL     1       2.670  -4.105   4.815  0.00  0.00    -0.343 N 
ATOM     26  H   UNL     1       1.921  -4.531   5.260  0.00  0.00    +0.144 HD
ATOM     27  H   UNL     1       3.491  -4.600   4.665  0.00  0.00    +0.144 HD
ENDBRANCH  17  25
BRANCH  16  28
ATOM     28  C   UNL     1       0.198  -2.810   5.043  0.00  0.00    +0.128 C 
BRANCH  28  29
ATOM     29  C   UNL     1      -0.565  -3.504   3.912  0.00  0.00    +0.021 C 
BRANCH  29  31
ATOM     30  C   UNL     1      -2.555  -4.909   3.357  0.00  0.00    +0.004 C 
ATOM     31  C   UNL     1      -1.792  -4.215   4.487  0.00  0.00    -0.002 C 
ENDBRANCH  29  31
ENDBRANCH  28  29
ENDBRANCH  16  28
ENDBRANCH   1  18
BRANCH   1  32
ATOM     32  C   UNL     1       5.609  -3.257   4.972  0.00  0.00    +0.117 C 
BRANCH  32  33
ATOM     33  C   UNL     1       6.639  -2.205   5.388  0.00  0.00    +0.001 C 
ATOM     34  C   UNL     1       5.917  -0.928   5.822  0.00  0.00    +0.009 C 
ATOM     35  C   UNL     1       7.474  -2.740   6.553  0.00  0.00    +0.009 C 
ENDBRANCH  32  33
ENDBRANCH   1  32
TORSDOF 8
