REMARK  Name = ZINC54219804
REMARK  7 active torsions:
REMARK  status: ('A' for Active; 'I' for Inactive)
REMARK    1  A    between atoms: C_1  and  C_2
REMARK    2  A    between atoms: C_3  and  C_28
REMARK    3  A    between atoms: C_4  and  C_21
REMARK    4  A    between atoms: C_9  and  S_11
REMARK    5  A    between atoms: S_11  and  C_12
REMARK    6  A    between atoms: C_12  and  C_13
REMARK    7  A    between atoms: C_25  and  O_27
REMARK                            x       y       z     vdW  Elec       q    Type
REMARK                         _______ _______ _______ _____ _____    ______ ____
ROOT
ATOM      1  C   UNL     1      -0.013   1.086   0.008  0.00  0.00    +0.062 C 
ATOM      2  C   UNL     1      -0.742   1.585  -1.213  0.00  0.00    +0.034 C 
ATOM      3  C   UNL     1      -0.877   3.067  -1.413  0.00  0.00    +0.148 C 
ATOM      4  C   UNL     1      -0.879   3.429  -2.902  0.00  0.00    +0.158 C 
ATOM      5  N   UNL     1      -1.708   2.449  -3.605  0.00  0.00    -0.220 N 
ATOM      6  C   UNL     1      -1.856   1.169  -3.168  0.00  0.00    +0.250 A 
ATOM      7  N   UNL     1      -2.656   0.553  -4.000  0.00  0.00    -0.184 NA
ATOM      8  C   UNL     1      -3.031   1.396  -4.970  0.00  0.00    +0.211 A 
ATOM      9  N   UNL     1      -2.468   2.570  -4.763  0.00  0.00    -0.141 NA
ATOM     10  N   UNL     1      -1.219   0.718  -2.047  0.00  0.00    -0.220 NA
ENDROOT
BRANCH   4  11
ATOM     11  C   UNL     1       0.528   3.385  -3.439  0.00  0.00    -0.018 A 
ATOM     12  C   UNL     1       1.249   2.206  -3.391  0.00  0.00    +0.006 A 
ATOM     13  C   UNL     1       2.541   2.162  -3.882  0.00  0.00    +0.004 A 
ATOM     14  C   UNL     1       3.115   3.297  -4.422  0.00  0.00    +0.045 A 
ATOM     15  C   UNL     1       2.393   4.481  -4.472  0.00  0.00    +0.117 A 
ATOM     16  C   UNL     1       1.095   4.521  -3.983  0.00  0.00    +0.051 A 
BRANCH  15  17
ATOM     17  O   UNL     1       2.955   5.599  -5.002  0.00  0.00    -0.507 OA
ATOM     18  H   UNL     1       2.808   5.700  -5.952  0.00  0.00    +0.292 HD
ENDBRANCH  15  17
ENDBRANCH   4  11
BRANCH   3  19
ATOM     19  C   UNL     1      -2.168   3.533  -0.790  0.00  0.00    +0.221 C 
ATOM     20  O   UNL     1      -3.014   4.067  -1.476  0.00  0.00    -0.275 OA
ATOM     21  N   UNL     1      -2.382   3.357   0.529  0.00  0.00    -0.329 N 
ATOM     22  H   UNL     1      -1.706   2.929   1.077  0.00  0.00    +0.145 HD
ATOM     23  H   UNL     1      -3.213   3.656   0.930  0.00  0.00    +0.145 HD
ENDBRANCH   3  19
BRANCH   8  24
ATOM     24  S   UNL     1      -4.104   1.000  -6.310  0.00  0.00    -0.080 S 
BRANCH  24  25
ATOM     25  C   UNL     1      -4.531  -0.741  -6.030  0.00  0.00    +0.114 C 
BRANCH  25  26
ATOM     26  C   UNL     1      -5.458  -1.212  -7.121  0.00  0.00    -0.019 A 
ATOM     27  C   UNL     1      -6.827  -1.087  -6.967  0.00  0.00    +0.006 A 
ATOM     28  C   UNL     1      -7.677  -1.519  -7.967  0.00  0.00    +0.000 A 
ATOM     29  C   UNL     1      -7.160  -2.077  -9.122  0.00  0.00    +0.001 A 
ATOM     30  C   UNL     1      -5.793  -2.204  -9.276  0.00  0.00    +0.020 A 
ATOM     31  C   UNL     1      -4.941  -1.766  -8.278  0.00  0.00    +0.045 A 
ATOM     32 CL   UNL     1      -3.223  -1.918  -8.474  0.00  0.00    -0.083 Cl
ENDBRANCH  25  26
ENDBRANCH  24  25
ENDBRANCH   8  24
TORSDOF 6
