REMARK  Name = ZINC02111550
REMARK  6 active torsions:
REMARK  status: ('A' for Active; 'I' for Inactive)
REMARK    1  A    between atoms: C_1  and  C_2
REMARK    2  A    between atoms: C_3  and  O_19
REMARK    3  A    between atoms: C_12  and  C_13
REMARK    4  A    between atoms: O_19  and  C_20
REMARK    5  A    between atoms: C_20  and  C_21
REMARK    6  A    between atoms: C_26  and  O_34
REMARK                            x       y       z     vdW  Elec       q    Type
REMARK                         _______ _______ _______ _____ _____    ______ ____
ROOT
ATOM      1  C   UNL     1      -0.046   4.242   0.013  0.00  0.00    +0.051 C 
ATOM      2  C   UNL     1       1.231   3.442   0.003  0.00  0.00    +0.034 A 
ATOM      3  C   UNL     1       1.184   2.058   0.002  0.00  0.00    +0.128 A 
ATOM      4  C   UNL     1       2.359   1.310  -0.013  0.00  0.00    +0.047 A 
ATOM      5  C   UNL     1       3.574   1.933  -0.022  0.00  0.00    +0.016 A 
ATOM      6  C   UNL     1       3.639   3.328  -0.016  0.00  0.00    +0.026 A 
ATOM      7  C   UNL     1       2.458   4.090  -0.000  0.00  0.00    +0.146 A 
ATOM      8  O   UNL     1       2.524   5.438   0.005  0.00  0.00    -0.422 OA
ATOM      9  C   UNL     1       3.697   6.091  -0.003  0.00  0.00    +0.338 A 
ATOM     10  O   UNL     1       3.697   7.309   0.003  0.00  0.00    -0.245 OA
ATOM     11  C   UNL     1       4.925   5.408  -0.019  0.00  0.00    +0.101 A 
ATOM     12  C   UNL     1       4.935   4.026  -0.025  0.00  0.00    -0.000 A 
ENDROOT
BRANCH  12  13
ATOM     13  C   UNL     1       6.208   3.272  -0.042  0.00  0.00    -0.017 A 
ATOM     14  C   UNL     1       6.428   2.247   0.879  0.00  0.00    +0.008 A 
ATOM     15  C   UNL     1       7.615   1.544   0.854  0.00  0.00    +0.001 A 
ATOM     16  C   UNL     1       8.591   1.862  -0.073  0.00  0.00    +0.000 A 
ATOM     17  C   UNL     1       8.382   2.881  -0.985  0.00  0.00    +0.001 A 
ATOM     18  C   UNL     1       7.197   3.588  -0.975  0.00  0.00    +0.008 A 
ENDBRANCH  12  13
BRANCH   3  19
ATOM     19  O   UNL     1      -0.017   1.425   0.010  0.00  0.00    -0.482 OA
BRANCH  19  20
ATOM     20  C   UNL     1       0.002  -0.004   0.002  0.00  0.00    +0.324 C 
BRANCH  20  21
ATOM     21  C   UNL     1      -1.412  -0.526   0.013  0.00  0.00    +0.253 C 
ATOM     22  O   UNL     1      -2.344   0.250   0.026  0.00  0.00    -0.272 OA
ATOM     23  N   UNL     1      -1.640  -1.854   0.008  0.00  0.00    -0.298 N 
ATOM     24  C   UNL     1      -0.521  -2.807  -0.014  0.00  0.00    +0.110 C 
ATOM     25  C   UNL     1      -0.714  -3.772  -1.182  0.00  0.00    +0.054 C 
ATOM     26  C   UNL     1      -2.093  -4.429  -1.077  0.00  0.00    +0.072 C 
ATOM     27  C   UNL     1      -2.274  -5.408  -2.240  0.00  0.00    +0.035 C 
ATOM     28  C   UNL     1      -2.148  -4.652  -3.564  0.00  0.00    +0.003 C 
ATOM     29  C   UNL     1      -3.225  -3.568  -3.639  0.00  0.00    +0.001 C 
ATOM     30  C   UNL     1      -3.051  -2.593  -2.473  0.00  0.00    +0.008 C 
ATOM     31  C   UNL     1      -3.179  -3.353  -1.151  0.00  0.00    +0.038 C 
ATOM     32  C   UNL     1      -3.012  -2.378   0.018  0.00  0.00    +0.114 C 
BRANCH  26  33
ATOM     33  O   UNL     1      -2.201  -5.133   0.162  0.00  0.00    -0.388 OA
ATOM     34  H   UNL     1      -1.542  -5.831   0.276  0.00  0.00    +0.210 HD
ENDBRANCH  26  33
ENDBRANCH  20  21
ENDBRANCH  19  20
ENDBRANCH   3  19
TORSDOF 5
