REMARK  Name = ZINC05345331
REMARK  7 active torsions:
REMARK  status: ('A' for Active; 'I' for Inactive)
REMARK    1  A    between atoms: C_1  and  C_2
REMARK    2  A    between atoms: C_2  and  C_3
REMARK    3  A    between atoms: C_3  and  C_4
REMARK    4  A    between atoms: C_4  and  N_5
REMARK    5  A    between atoms: C_10  and  C_26
REMARK    6  A    between atoms: C_26  and  C_27
REMARK    7  A    between atoms: C_27  and  C_28
REMARK                            x       y       z     vdW  Elec       q    Type
REMARK                         _______ _______ _______ _____ _____    ______ ____
ROOT
ATOM      1  N   UNL     1       0.002  -0.004   0.002  0.00  0.00    -0.242 N 
ATOM      2  C   UNL     1       0.022  -0.734   1.123  0.00  0.00    +0.224 C 
ATOM      3  O   UNL     1       0.032  -0.286   2.250  0.00  0.00    -0.275 OA
ATOM      4  C   UNL     1       0.032  -2.202   0.767  0.00  0.00    +0.073 C 
ATOM      5  C   UNL     1       1.393  -2.814   1.159  0.00  0.00    -0.057 C 
ATOM      6  C   UNL     1       1.389  -2.787  -1.178  0.00  0.00    +0.050 C 
ATOM      7  C   UNL     1       0.029  -2.195  -0.787  0.00  0.00    +0.088 C 
ATOM      8  C   UNL     1      -0.004  -0.721  -1.127  0.00  0.00    +0.225 C 
ATOM      9  O   UNL     1      -0.029  -0.262  -2.249  0.00  0.00    -0.275 OA
ATOM     10  C   UNL     1       1.276  -4.245  -1.525  0.00  0.00    -0.028 A 
ATOM     11  C   UNL     1       0.844  -5.353  -0.832  0.00  0.00    +0.004 A 
ATOM     12  C   UNL     1       0.861  -6.598  -1.437  0.00  0.00    +0.000 A 
ATOM     13  C   UNL     1       1.312  -6.725  -2.737  0.00  0.00    +0.002 A 
ATOM     14  C   UNL     1       1.746  -5.617  -3.435  0.00  0.00    +0.023 A 
ATOM     15  C   UNL     1       1.732  -4.360  -2.834  0.00  0.00    +0.036 A 
ATOM     16  N   UNL     1       2.112  -3.109  -3.326  0.00  0.00    -0.286 N 
ATOM     17  C   UNL     1       1.940  -2.132  -2.415  0.00  0.00    +0.211 C 
ATOM     18  O   UNL     1       2.182  -0.953  -2.563  0.00  0.00    -0.277 OA
ATOM     19  H   UNL     1       2.459  -2.961  -4.220  0.00  0.00    +0.155 HD
ATOM     20  N   UNL     1       2.237  -2.583  -0.017  0.00  0.00    +0.394 N 
ATOM     21  H   UNL     1       3.020  -3.247  -0.028  0.00  0.00    -0.083 HD
ATOM     22  H   UNL     1       2.602  -1.623  -0.008  0.00  0.00    -0.083 HD
ENDROOT
BRANCH   1  23
ATOM     23  C   UNL     1      -0.018   1.461   0.010  0.00  0.00    +0.116 C 
BRANCH  23  24
ATOM     24  C   UNL     1       1.418   1.990  -0.001  0.00  0.00    +0.019 C 
BRANCH  24  26
ATOM     25  C   UNL     1       2.832   4.050  -0.003  0.00  0.00    +0.004 C 
ATOM     26  C   UNL     1       1.397   3.520   0.008  0.00  0.00    -0.002 C 
ENDBRANCH  24  26
ENDBRANCH  23  24
ENDBRANCH   1  23
BRANCH   5  27
ATOM     27  C   UNL     1       1.956  -2.112   2.396  0.00  0.00    -0.004 C 
BRANCH  27  28
ATOM     28  C   UNL     1       3.241  -2.813   2.840  0.00  0.00    +0.123 C 
BRANCH  28  29
ATOM     29  C   UNL     1       3.795  -2.122   4.059  0.00  0.00    +0.356 C 
ATOM     30  O   UNL     1       3.221  -1.166   4.525  0.00  0.00    -0.246 OA
ATOM     31  O   UNL     1       4.927  -2.568   4.627  0.00  0.00    -0.246 OA
ENDBRANCH  28  29
ENDBRANCH  27  28
ENDBRANCH   5  27
TORSDOF 6
