REMARK  Name = ZINC65233865
REMARK  6 active torsions:
REMARK  status: ('A' for Active; 'I' for Inactive)
REMARK    1  A    between atoms: C_2  and  C_3
REMARK    2  A    between atoms: C_3  and  N_4
REMARK    3  A    between atoms: N_4  and  C_5
REMARK    4  A    between atoms: N_4  and  S_14
REMARK    5  A    between atoms: C_5  and  C_6
REMARK    6  A    between atoms: S_14  and  C_17
REMARK                            x       y       z     vdW  Elec       q    Type
REMARK                         _______ _______ _______ _____ _____    ______ ____
ROOT
ATOM      1  N   UNL     1       1.357   1.975  -0.000  0.00  0.00    -0.158 NA
ENDROOT
BRANCH   1   2
ATOM      2  S   UNL     1       2.104   2.371   1.423  0.00  0.00    +0.062 S 
ATOM      3  O   UNL     1       3.121   3.309   1.101  0.00  0.00    -0.153 OA
ATOM      4  O   UNL     1       1.072   2.658   2.358  0.00  0.00    -0.153 OA
BRANCH   2   5
ATOM      5  C   UNL     1       2.921   0.922   2.004  0.00  0.00    +0.106 A 
ATOM      6  C   UNL     1       2.254   0.037   2.831  0.00  0.00    +0.028 A 
ATOM      7  C   UNL     1       2.895  -1.100   3.287  0.00  0.00    +0.002 A 
ATOM      8  C   UNL     1       4.202  -1.353   2.915  0.00  0.00    +0.000 A 
ATOM      9  C   UNL     1       4.868  -0.469   2.087  0.00  0.00    +0.002 A 
ATOM     10  C   UNL     1       4.226   0.666   1.628  0.00  0.00    +0.028 A 
ENDBRANCH   2   5
ENDBRANCH   1   2
BRANCH   1  11
ATOM     11  C   UNL     1      -0.018   1.468   0.010  0.00  0.00    +0.198 C 
BRANCH  11  13
ATOM     12  C   UNL     1       0.018  -1.178  -0.004  0.00  0.00    +0.005 C 
ATOM     13  C   UNL     1       0.002  -0.004   0.002  0.00  0.00    -0.088 C 
ENDBRANCH  11  13
ENDBRANCH   1  11
BRANCH   1  14
ATOM     14  C   UNL     1       2.070   2.131  -1.270  0.00  0.00    +0.186 C 
BRANCH  14  15
ATOM     15  C   UNL     1       1.726   3.467  -1.878  0.00  0.00    +0.152 A 
ATOM     16  N   UNL     1       0.692   3.573  -2.694  0.00  0.00    -0.198 NA
ATOM     17  C   UNL     1       0.384   4.751  -3.232  0.00  0.00    +0.217 A 
ATOM     18  N   UNL     1       1.119   5.821  -2.949  0.00  0.00    -0.181 NA
ATOM     19  C   UNL     1       2.159   5.710  -2.129  0.00  0.00    +0.217 A 
ATOM     20  N   UNL     1       2.457   4.530  -1.590  0.00  0.00    -0.198 NA
ATOM     21  N   UNL     1       2.925   6.818  -1.832  0.00  0.00    -0.327 N 
ATOM     22  N   UNL     1      -0.696   4.860  -4.084  0.00  0.00    -0.327 N 
ATOM     23  H   UNL     1       2.705   7.679  -2.222  0.00  0.00    +0.145 HD
ATOM     24  H   UNL     1       3.684   6.737  -1.233  0.00  0.00    +0.145 HD
ATOM     25  H   UNL     1      -1.232   4.079  -4.291  0.00  0.00    +0.145 HD
ATOM     26  H   UNL     1      -0.919   5.719  -4.476  0.00  0.00    +0.145 HD
ENDBRANCH  14  15
ENDBRANCH   1  14
TORSDOF 6
