REMARK  Name = ZINC49012497
REMARK  6 active torsions:
REMARK  status: ('A' for Active; 'I' for Inactive)
REMARK    1  A    between atoms: C_1  and  C_2
REMARK    2  A    between atoms: C_7  and  N_10
REMARK    3  A    between atoms: N_10  and  C_11
REMARK    4  A    between atoms: N_10  and  S_12
REMARK    5  A    between atoms: S_12  and  C_15
REMARK    6  A    between atoms: CA_17  and  C_21
REMARK                            x       y       z     vdW  Elec       q    Type
REMARK                         _______ _______ _______ _____ _____    ______ ____
ROOT
ATOM      1  S   UNL     1      -0.892  -4.176   1.348  0.00  0.00    +0.062 S 
ATOM      2  O   UNL     1      -2.173  -4.405   0.776  0.00  0.00    -0.153 OA
ATOM      3  O   UNL     1       0.281  -4.822   0.872  0.00  0.00    -0.153 OA
ENDROOT
BRANCH   1   4
ATOM      4  C   UNL     1      -1.027  -4.574   3.059  0.00  0.00    +0.123 A 
ATOM      5  C   UNL     1       0.024  -4.942   3.902  0.00  0.00    +0.063 A 
ATOM      6  CA  UNL     1      -0.522  -5.163   5.153  0.00  0.00    +0.130 A 
ATOM      7  N   UNL     1      -1.877  -4.930   5.059  0.00  0.00    -0.354 N 
ATOM      8  H   UNL     1      -2.515  -5.008   5.785  0.00  0.00    +0.166 HD
ATOM      9  C   UNL     1      -2.167  -4.569   3.792  0.00  0.00    +0.112 A 
BRANCH   6  10
ATOM     10  C   UNL     1       0.205  -5.570   6.354  0.00  0.00    +0.402 C 
ATOM     11  O   UNL     1      -0.398  -5.734   7.408  0.00  0.00    -0.239 OA
ATOM     12  OXT UNL     1       1.416  -5.747   6.307  0.00  0.00    -0.239 OA
ENDBRANCH   6  10
ENDBRANCH   1   4
BRANCH   1  13
ATOM     13  N   UNL     1      -0.612  -2.548   1.244  0.00  0.00    -0.177 NA
ATOM     14  C   UNL     1      -1.737  -1.615   1.149  0.00  0.00    +0.132 C 
BRANCH  13  20
ATOM     15  C   UNL     1       0.019   1.450  -0.202  0.00  0.00    +0.007 C 
ATOM     16  C   UNL     1       0.040  -0.078  -0.122  0.00  0.00    -0.013 C 
ATOM     17  C   UNL     1       0.794  -0.641  -1.328  0.00  0.00    +0.003 C 
ATOM     18  C   UNL     1       0.815  -2.169  -1.248  0.00  0.00    +0.002 C 
ATOM     19  C   UNL     1       1.517  -2.603   0.040  0.00  0.00    +0.020 C 
ATOM     20  C   UNL     1       0.762  -2.040   1.246  0.00  0.00    +0.080 C 
ATOM     21  C   UNL     1       0.742  -0.512   1.167  0.00  0.00    +0.024 C 
ENDBRANCH  13  20
ENDBRANCH   1  13
TORSDOF 4
