REMARK  Name = ZINC63195478
REMARK  8 active torsions:
REMARK  status: ('A' for Active; 'I' for Inactive)
REMARK    1  A    between atoms: C_1  and  C_2
REMARK    2  A    between atoms: C_2  and  C_4
REMARK    3  A    between atoms: C_2  and  N_23
REMARK    4  A    between atoms: N_10  and  C_11
REMARK    5  A    between atoms: C_11  and  C_12
REMARK    6  A    between atoms: C_12  and  C_13
REMARK    7  A    between atoms: N_15  and  C_16
REMARK    8  A    between atoms: C_17  and  C_21
REMARK                            x       y       z     vdW  Elec       q    Type
REMARK                         _______ _______ _______ _____ _____    ______ ____
ROOT
ATOM      1  C   UNL     1       1.304  -2.485  -0.246  0.00  0.00    +0.094 C 
ENDROOT
BRANCH   1   7
ATOM      2  C   UNL     1       1.013  -0.468   1.060  0.00  0.00    +0.042 C 
ATOM      3  C   UNL     1       0.550   0.068   2.417  0.00  0.00    +0.017 C 
ATOM      4  C   UNL     1       1.485  -0.454   3.511  0.00  0.00    +0.003 C 
ATOM      5  C   UNL     1       1.490  -1.985   3.481  0.00  0.00    +0.015 C 
ATOM      6  C   UNL     1       1.926  -2.461   2.093  0.00  0.00    +0.084 C 
ATOM      7  N   UNL     1       0.999  -1.936   1.081  0.00  0.00    -0.300 NA
BRANCH   2   9
ATOM      8  C   UNL     1      -1.322  -0.567   0.175  0.00  0.00    -0.013 C 
ATOM      9  C   UNL     1       0.069   0.034  -0.035  0.00  0.00    -0.061 C 
BRANCH   9  10
ATOM     10  N   UNL     1      -0.016   1.500   0.027  0.00  0.00    +0.381 N 
ATOM     11  H   UNL     1      -0.466   1.774   0.887  0.00  0.00    -0.090 HD
ATOM     12  H   UNL     1       0.913   1.892  -0.007  0.00  0.00    -0.090 HD
ATOM     13  H   UNL     1      -0.554   1.839  -0.757  0.00  0.00    -0.090 HD
ENDBRANCH   9  10
ENDBRANCH   2   9
ENDBRANCH   1   7
BRANCH   1  14
ATOM     14  C   UNL     1       0.965  -3.977  -0.272  0.00  0.00    +0.111 C 
BRANCH  14  15
ATOM     15  C   UNL     1       1.278  -4.540  -1.634  0.00  0.00    +0.219 C 
ATOM     16  O   UNL     1       1.728  -3.819  -2.500  0.00  0.00    -0.275 OA
ATOM     17  N   UNL     1       1.058  -5.845  -1.891  0.00  0.00    -0.279 N 
ATOM     18  H   UNL     1       0.698  -6.421  -1.199  0.00  0.00    +0.155 HD
BRANCH  17  19
ATOM     19  C   UNL     1       1.346  -6.363  -3.146  0.00  0.00    +0.089 A 
ATOM     20  C   UNL     1       1.180  -7.667  -3.588  0.00  0.00    +0.080 A 
ATOM     21  C   UNL     1       1.562  -7.940  -4.954  0.00  0.00    +0.028 A 
ATOM     22  C   UNL     1       2.040  -6.891  -5.650  0.00  0.00    +0.048 A 
ATOM     23  S   UNL     1       1.967  -5.555  -4.478  0.00  0.00    -0.081 S 
BRANCH  20  24
ATOM     24  C   UNL     1       0.657  -8.690  -2.733  0.00  0.00    +0.102 C 
ATOM     25  N   UNL     1       0.242  -9.502  -2.056  0.00  0.00    -0.191 NA
ENDBRANCH  20  24
ENDBRANCH  17  19
ENDBRANCH  14  15
ENDBRANCH   1  14
TORSDOF 7
