REMARK  Name = ZINC44760200
REMARK  6 active torsions:
REMARK  status: ('A' for Active; 'I' for Inactive)
REMARK    1  A    between atoms: C_1  and  C_2
REMARK    2  A    between atoms: C_8  and  N_10
REMARK    3  A    between atoms: N_10  and  S_11
REMARK    4  A    between atoms: S_11  and  C_14
REMARK    5  A    between atoms: C_16  and  C_20
REMARK    6  A    between atoms: N_17  and  C_19
REMARK                            x       y       z     vdW  Elec       q    Type
REMARK                         _______ _______ _______ _____ _____    ______ ____
ROOT
ATOM      1  S   UNL     1       2.571   0.445   2.848  0.00  0.00    +0.060 S 
ATOM      2  O   UNL     1       3.825   1.017   2.502  0.00  0.00    -0.153 OA
ATOM      3  O   UNL     1       1.618   1.128   3.651  0.00  0.00    -0.153 OA
ENDROOT
BRANCH   1   4
ATOM      4  C   UNL     1       2.921  -1.077   3.665  0.00  0.00    +0.123 A 
ATOM      5  C   UNL     1       2.080  -1.740   4.564  0.00  0.00    +0.061 A 
ATOM      6  C   UNL     1       2.736  -2.885   4.963  0.00  0.00    +0.106 A 
ATOM      7  N   UNL     1       3.952  -2.912   4.318  0.00  0.00    -0.344 N 
ATOM      8  C   UNL     1       4.049  -1.814   3.530  0.00  0.00    +0.114 A 
ATOM      9  C   UNL     1       4.969  -3.958   4.455  0.00  0.00    +0.149 C 
BRANCH   6  10
ATOM     10  C   UNL     1       2.232  -3.890   5.905  0.00  0.00    +0.258 C 
ATOM     11  O   UNL     1       2.863  -4.912   6.099  0.00  0.00    -0.269 OA
ATOM     12  N   UNL     1       1.071  -3.681   6.556  0.00  0.00    -0.324 N 
ATOM     13  H   UNL     1       0.532  -2.901   6.348  0.00  0.00    +0.145 HD
ATOM     14  H   UNL     1       0.773  -4.309   7.232  0.00  0.00    +0.145 HD
ENDBRANCH   6  10
ENDBRANCH   1   4
BRANCH   1  15
ATOM     15  N   UNL     1       1.811   0.073   1.425  0.00  0.00    -0.187 NA
ATOM     16  H   UNL     1       2.240   0.276   0.578  0.00  0.00    +0.148 HD
BRANCH  15  23
ATOM     17  C   UNL     1      -0.501   1.469   0.379  0.00  0.00    +0.009 C 
ATOM     18  C   UNL     1      -0.339  -0.048   0.265  0.00  0.00    +0.005 C 
ATOM     19  C   UNL     1      -1.717  -0.712   0.284  0.00  0.00    +0.005 C 
ATOM     20  C   UNL     1      -1.555  -2.229   0.171  0.00  0.00    +0.000 C 
ATOM     21  C   UNL     1      -0.725  -2.743   1.349  0.00  0.00    +0.002 C 
ATOM     22  C   UNL     1       0.654  -2.079   1.329  0.00  0.00    +0.020 C 
ATOM     23  C   UNL     1       0.491  -0.562   1.443  0.00  0.00    +0.079 C 
ENDBRANCH  15  23
ENDBRANCH   1  15
TORSDOF 4
