REMARK  Name = ZINC16710249
REMARK  10 active torsions:
REMARK  status: ('A' for Active; 'I' for Inactive)
REMARK    1  A    between atoms: C_1  and  C_2
REMARK    2  A    between atoms: C_5  and  O_26
REMARK    3  A    between atoms: C_6  and  N_8
REMARK    4  A    between atoms: C_9  and  C_11
REMARK    5  A    between atoms: C_11  and  C_13
REMARK    6  A    between atoms: C_11  and  S_14
REMARK    7  A    between atoms: S_14  and  C_15
REMARK    8  A    between atoms: C_19  and  C_25
REMARK    9  A    between atoms: C_21  and  C_24
REMARK   10  A    between atoms: O_26  and  C_27
REMARK                            x       y       z     vdW  Elec       q    Type
REMARK                         _______ _______ _______ _____ _____    ______ ____
ROOT
ATOM      1  C   UNL     1      -0.734   1.590   1.283  0.00  0.00    +0.137 C 
ATOM      2  C   UNL     1      -0.006   1.101   0.029  0.00  0.00    +0.029 C 
ENDROOT
BRANCH   1   4
ATOM      3  N   UNL     1      -3.091   1.667   0.539  0.00  0.00    -0.282 N 
ATOM      4  C   UNL     1      -2.145   1.062   1.284  0.00  0.00    +0.230 C 
ATOM      5  O   UNL     1      -2.429   0.091   1.954  0.00  0.00    -0.274 OA
ATOM      6  H   UNL     1      -2.881   2.481   0.055  0.00  0.00    +0.155 HD
BRANCH   3  12
ATOM      7  C   UNL     1      -6.799  -0.738   2.697  0.00  0.00    +0.044 C 
ATOM      8  C   UNL     1      -6.202  -0.049   1.496  0.00  0.00    -0.048 A 
ATOM      9  C   UNL     1      -6.928   0.044   0.323  0.00  0.00    +0.007 A 
ATOM     10  C   UNL     1      -6.386   0.674  -0.782  0.00  0.00    +0.048 A 
ATOM     11  C   UNL     1      -5.114   1.220  -0.714  0.00  0.00    +0.141 A 
ATOM     12  C   UNL     1      -4.380   1.122   0.466  0.00  0.00    +0.076 A 
ATOM     13  C   UNL     1      -4.931   0.488   1.571  0.00  0.00    +0.030 A 
BRANCH  11  14
ATOM     14  O   UNL     1      -4.582   1.846  -1.797  0.00  0.00    -0.493 OA
ATOM     15  C   UNL     1      -5.392   1.908  -2.973  0.00  0.00    +0.277 C 
ENDBRANCH  11  14
ENDBRANCH   3  12
ENDBRANCH   1   4
BRANCH   1  16
ATOM     16  S   UNL     1       0.137   0.993   2.758  0.00  0.00    -0.072 S 
BRANCH  16  17
ATOM     17  C   UNL     1       1.699   1.804   2.689  0.00  0.00    +0.212 A 
ATOM     18  N   UNL     1       2.084   2.653   1.739  0.00  0.00    -0.183 NA
ATOM     19  C   UNL     1       3.316   3.081   1.991  0.00  0.00    +0.254 A 
ATOM     20  N   UNL     1       4.127   3.926   1.345  0.00  0.00    -0.216 NA
ATOM     21  C   UNL     1       5.329   4.193   1.806  0.00  0.00    +0.044 A 
ATOM     22  C   UNL     1       5.781   3.594   2.987  0.00  0.00    +0.046 A 
ATOM     23  C   UNL     1       4.964   2.734   3.650  0.00  0.00    +0.045 A 
ATOM     24  N   UNL     1       3.728   2.479   3.147  0.00  0.00    -0.200 N 
ATOM     25  N   UNL     1       2.666   1.670   3.575  0.00  0.00    -0.137 NA
ATOM     26  C   UNL     1       5.422   2.073   4.925  0.00  0.00    +0.066 C 
ATOM     27  C   UNL     1       6.224   5.148   1.059  0.00  0.00    +0.066 C 
ENDBRANCH  16  17
ENDBRANCH   1  16
TORSDOF 5
