REMARK  Name = ZINC08845503
REMARK  7 active torsions:
REMARK  status: ('A' for Active; 'I' for Inactive)
REMARK    1  A    between atoms: C_4  and  O_35
REMARK    2  A    between atoms: C_5  and  C_7
REMARK    3  A    between atoms: C_9  and  C_13
REMARK    4  A    between atoms: N_15  and  C_16
REMARK    5  A    between atoms: C_17  and  C_25
REMARK    6  A    between atoms: N_27  and  C_28
REMARK    7  A    between atoms: C_28  and  C_29
REMARK                            x       y       z     vdW  Elec       q    Type
REMARK                         _______ _______ _______ _____ _____    ______ ____
ROOT
ATOM      1  C   UNL     1       0.201  -7.929   0.916  0.00  0.00    +0.085 A 
ATOM      2  C   UNL     1       0.582  -9.227   0.612  0.00  0.00    +0.069 A 
ATOM      3  C   UNL     1      -0.159 -10.302   1.248  0.00  0.00    -0.023 A 
ATOM      4  C   UNL     1      -1.145  -9.883   2.071  0.00  0.00    -0.004 A 
ATOM      5  S   UNL     1      -1.070  -8.117   1.997  0.00  0.00    -0.077 S 
ATOM      6  C   UNL     1      -2.080 -10.741   2.866  0.00  0.00    +0.043 C 
ATOM      7  C   UNL     1      -2.001 -12.174   2.318  0.00  0.00    +0.005 C 
ATOM      8  C   UNL     1      -0.529 -12.571   2.178  0.00  0.00    +0.005 C 
ATOM      9  C   UNL     1       0.116 -11.783   1.036  0.00  0.00    +0.037 C 
ENDROOT
BRANCH   1  12
ATOM     10  C   UNL     1       0.253  -5.563   0.851  0.00  0.00    +0.269 C 
ATOM     11  O   UNL     1      -0.674  -5.531   1.637  0.00  0.00    -0.268 OA
ATOM     12  N   UNL     1       0.748  -6.748   0.441  0.00  0.00    -0.274 N 
ATOM     13  H   UNL     1       1.488  -6.773  -0.186  0.00  0.00    +0.156 HD
BRANCH  10  16
ATOM     14  C   UNL     1       1.246  -2.162  -0.022  0.00  0.00    +0.070 A 
ATOM     15  C   UNL     1       0.424  -2.996   0.683  0.00  0.00    +0.062 A 
ATOM     16  C   UNL     1       0.836  -4.304   0.345  0.00  0.00    +0.148 A 
ATOM     17  N   UNL     1       1.837  -4.193  -0.505  0.00  0.00    -0.169 NA
ATOM     18  N   UNL     1       2.092  -2.956  -0.739  0.00  0.00    -0.276 N 
ATOM     19  H   UNL     1       2.786  -2.634  -1.335  0.00  0.00    +0.189 HD
BRANCH  14  24
ATOM     20  C   UNL     1      -0.017   1.375   0.010  0.00  0.00    +0.001 A 
ATOM     21  C   UNL     1       1.169   2.089   0.002  0.00  0.00    +0.004 A 
ATOM     22  C   UNL     1       2.382   1.427  -0.013  0.00  0.00    +0.046 A 
ATOM     23  C   UNL     1       2.417   0.042  -0.021  0.00  0.00    +0.126 A 
ATOM     24  C   UNL     1       1.220  -0.683  -0.013  0.00  0.00    +0.041 A 
ATOM     25  C   UNL     1       0.002  -0.004   0.002  0.00  0.00    +0.013 A 
BRANCH  23  26
ATOM     26  O   UNL     1       3.609  -0.610  -0.036  0.00  0.00    -0.506 OA
ATOM     27  H   UNL     1       3.963  -0.804   0.843  0.00  0.00    +0.292 HD
ENDBRANCH  23  26
ENDBRANCH  14  24
ENDBRANCH  10  16
ENDBRANCH   1  12
BRANCH   2  28
ATOM     28  C   UNL     1       1.685  -9.503  -0.313  0.00  0.00    +0.247 C 
ATOM     29  O   UNL     1       2.822  -9.608   0.110  0.00  0.00    -0.270 OA
ATOM     30  N   UNL     1       1.441  -9.640  -1.631  0.00  0.00    -0.309 N 
ATOM     31  H   UNL     1       0.535  -9.557  -1.968  0.00  0.00    +0.149 HD
BRANCH  30  32
ATOM     32  C   UNL     1       2.543  -9.916  -2.555  0.00  0.00    +0.136 C 
BRANCH  32  33
ATOM     33  C   UNL     1       1.999 -10.025  -3.981  0.00  0.00    +0.135 C 
ATOM     34  C   UNL     1       3.133 -10.434  -4.945  0.00  0.00    +0.035 C 
ATOM     35  C   UNL     1       2.824  -9.575  -6.201  0.00  0.00    +0.031 C 
ATOM     36  C   UNL     1       2.253  -8.292  -5.547  0.00  0.00    +0.160 C 
ATOM     37  O   UNL     1       1.502  -8.752  -4.410  0.00  0.00    -0.375 OA
ENDBRANCH  32  33
ENDBRANCH  30  32
ENDBRANCH   2  28
TORSDOF 7
