REMARK  Name = ZINC37069212
REMARK  5 active torsions:
REMARK  status: ('A' for Active; 'I' for Inactive)
REMARK    1  A    between atoms: C_1  and  O_2
REMARK    2  A    between atoms: O_2  and  C_3
REMARK    3  A    between atoms: C_4  and  N_21
REMARK    4  A    between atoms: C_7  and  O_9
REMARK    5  A    between atoms: O_9  and  C_10
REMARK                            x       y       z     vdW  Elec       q    Type
REMARK                         _______ _______ _______ _____ _____    ______ ____
ROOT
ATOM      1  C   UNL     1       0.605  -0.607  -1.055  0.00  0.00    +0.239 A 
ATOM      2  C   UNL     1       0.651  -1.998  -1.122  0.00  0.00    +0.087 A 
ATOM      3  C   UNL     1       1.271  -2.602  -2.209  0.00  0.00    +0.033 A 
ATOM      4  C   UNL     1       1.823  -1.792  -3.190  0.00  0.00    +0.069 A 
ATOM      5  C   UNL     1       1.740  -0.414  -3.058  0.00  0.00    +0.218 A 
ATOM      6  N   UNL     1       1.139   0.132  -2.013  0.00  0.00    -0.176 NA
ENDROOT
BRANCH   2   7
ATOM      7  N   UNL     1       0.080  -2.778  -0.106  0.00  0.00    -0.354 N 
ATOM      8  H   UNL     1      -0.351  -2.349   0.650  0.00  0.00    +0.142 HD
ATOM      9  H   UNL     1       0.116  -3.746  -0.160  0.00  0.00    +0.142 HD
ENDBRANCH   2   7
BRANCH   1  11
ATOM     10  C   UNL     1      -0.017   1.425   0.010  0.00  0.00    +0.279 C 
ATOM     11  O   UNL     1       0.002  -0.004   0.002  0.00  0.00    -0.478 OA
ENDBRANCH   1  11
BRANCH   5  12
ATOM     12  O   UNL     1       2.278   0.385  -4.015  0.00  0.00    -0.468 OA
BRANCH  12  13
ATOM     13  C   UNL     1       2.162   1.796  -3.823  0.00  0.00    +0.206 C 
ATOM     14  C   UNL     1       3.362   2.492  -4.461  0.00  0.00    +0.050 C 
ATOM     15  C   UNL     1       3.113   4.005  -4.438  0.00  0.00    +0.009 C 
ATOM     16  C   UNL     1       1.994   4.324  -5.428  0.00  0.00    +0.035 C 
ATOM     17  C   UNL     1       0.799   3.440  -5.179  0.00  0.00    -0.041 A 
ATOM     18  C   UNL     1       0.878   2.277  -4.446  0.00  0.00    -0.004 A 
ATOM     19  C   UNL     1      -0.261   1.505  -4.261  0.00  0.00    +0.007 A 
ATOM     20  C   UNL     1      -1.469   1.894  -4.802  0.00  0.00    +0.000 A 
ATOM     21  C   UNL     1      -1.547   3.063  -5.535  0.00  0.00    +0.000 A 
ATOM     22  C   UNL     1      -0.418   3.831  -5.721  0.00  0.00    +0.004 A 
ENDBRANCH  12  13
ENDBRANCH   5  12
TORSDOF 4
