REMARK  Name = ZINC54911513
REMARK  4 active torsions:
REMARK  status: ('A' for Active; 'I' for Inactive)
REMARK    1  A    between atoms: C_1  and  C_2
REMARK    2  A    between atoms: C_2  and  C_3
REMARK    3  A    between atoms: C_3  and  C_4
REMARK    4  A    between atoms: C_15  and  O_20
REMARK                            x       y       z     vdW  Elec       q    Type
REMARK                         _______ _______ _______ _____ _____    ______ ____
ROOT
ATOM      1  C   UNL     1       0.739  -2.027  -1.265  0.00  0.00    -0.008 C 
ATOM      2  C   UNL     1      -0.693  -2.556  -1.378  0.00  0.00    +0.022 C 
ATOM      3  C   UNL     1      -0.671  -4.088  -1.352  0.00  0.00    +0.107 C 
ATOM      4  N   UNL     1       0.234  -4.566  -2.406  0.00  0.00    -0.310 N 
ATOM      5  C   UNL     1       1.610  -4.051  -2.443  0.00  0.00    +0.107 C 
ATOM      6  C   UNL     1       1.562  -2.519  -2.458  0.00  0.00    +0.022 C 
ATOM      7  C   UNL     1      -0.201  -5.487  -3.346  0.00  0.00    +0.161 A 
ATOM      8  N   UNL     1      -1.389  -6.040  -3.459  0.00  0.00    -0.229 NA
ATOM      9  C   UNL     1      -1.667  -6.916  -4.422  0.00  0.00    +0.056 A 
ATOM     10  C   UNL     1      -0.638  -7.185  -5.264  0.00  0.00    +0.042 A 
ATOM     11  S   UNL     1       0.660  -6.163  -4.627  0.00  0.00    -0.054 S 
ATOM     12  C   UNL     1      -0.633  -8.111  -6.433  0.00  0.00    +0.153 C 
ATOM     13  C   UNL     1      -2.091  -8.457  -6.776  0.00  0.00    +0.037 C 
ATOM     14  C   UNL     1      -2.826  -8.833  -5.486  0.00  0.00    +0.009 C 
ATOM     15  C   UNL     1      -3.017  -7.594  -4.609  0.00  0.00    +0.056 C 
ENDROOT
BRANCH  12  16
ATOM     16  O   UNL     1      -0.012  -7.474  -7.551  0.00  0.00    -0.387 OA
ATOM     17  H   UNL     1       0.905  -7.212  -7.394  0.00  0.00    +0.210 HD
ENDBRANCH  12  16
BRANCH   1  18
ATOM     18  C   UNL     1       0.718  -0.497  -1.257  0.00  0.00    +0.003 C 
BRANCH  18  20
ATOM     19  C   UNL     1      -0.019   1.526   0.010  0.00  0.00    +0.004 C 
ATOM     20  C   UNL     1       0.002  -0.004   0.002  0.00  0.00    -0.003 C 
ENDBRANCH  18  20
ENDBRANCH   1  18
TORSDOF 3
