REMARK  Name = ZINC58191027
REMARK  4 active torsions:
REMARK  status: ('A' for Active; 'I' for Inactive)
REMARK    1  A    between atoms: C_1  and  C_2
REMARK    2  A    between atoms: N_10  and  C_14
REMARK    3  A    between atoms: C_14  and  C_15
REMARK    4  A    between atoms: C_25  and  C_27
REMARK                            x       y       z     vdW  Elec       q    Type
REMARK                         _______ _______ _______ _____ _____    ______ ____
ROOT
ATOM      1  C   UNL     1       3.488  -6.201  -1.487  0.00  0.00    +0.238 C 
ATOM      2  O   UNL     1       3.200  -5.459  -2.403  0.00  0.00    -0.273 OA
ATOM      3  N   UNL     1       3.954  -7.439  -1.744  0.00  0.00    -0.258 N 
ATOM      4  C   UNL     1       4.312  -8.379  -0.772  0.00  0.00    +0.040 A 
ATOM      5  C   UNL     1       4.276  -8.270   0.619  0.00  0.00    +0.024 A 
ATOM      6  C   UNL     1       4.677  -9.326   1.409  0.00  0.00    +0.002 A 
ATOM      7  C   UNL     1       5.118 -10.502   0.829  0.00  0.00    +0.000 A 
ATOM      8  C   UNL     1       5.156 -10.617  -0.548  0.00  0.00    +0.005 A 
ATOM      9  C   UNL     1       4.755  -9.561  -1.344  0.00  0.00    -0.024 A 
ATOM     10  C   UNL     1       4.696  -9.419  -2.848  0.00  0.00    +0.069 C 
ATOM     11  C   UNL     1       4.155  -8.000  -3.083  0.00  0.00    +0.171 C 
ENDROOT
BRANCH  11  12
ATOM     12  C   UNL     1       2.846  -8.053  -3.829  0.00  0.00    +0.232 C 
ATOM     13  O   UNL     1       1.829  -7.660  -3.298  0.00  0.00    -0.274 OA
ATOM     14  N   UNL     1       2.807  -8.539  -5.086  0.00  0.00    -0.328 N 
ATOM     15  H   UNL     1       3.620  -8.853  -5.510  0.00  0.00    +0.145 HD
ATOM     16  H   UNL     1       1.964  -8.573  -5.566  0.00  0.00    +0.145 HD
ENDBRANCH  11  12
BRANCH   1  17
ATOM     17  C   UNL     1       3.325  -5.738  -0.062  0.00  0.00    +0.214 C 
BRANCH  17  27
ATOM     18  C   UNL     1      -0.019   1.526   0.010  0.00  0.00    +0.007 C 
ATOM     19  C   UNL     1       0.002  -0.004   0.002  0.00  0.00    -0.014 C 
ATOM     20  C   UNL     1       0.716  -0.497  -1.258  0.00  0.00    +0.006 C 
ATOM     21  C   UNL     1       0.727  -2.028  -1.271  0.00  0.00    +0.035 C 
ATOM     22  C   UNL     1       1.442  -2.543  -0.027  0.00  0.00    +0.113 C 
ATOM     23  C   UNL     1       0.753  -2.041   1.238  0.00  0.00    +0.035 C 
ATOM     24  C   UNL     1       0.742  -0.510   1.242  0.00  0.00    +0.006 C 
ATOM     25  C   UNL     1       1.495  -4.053  -0.035  0.00  0.00    +0.247 C 
ATOM     26  O   UNL     1       0.556  -4.821  -0.030  0.00  0.00    -0.273 OA
ATOM     27  N   UNL     1       2.807  -4.367  -0.051  0.00  0.00    -0.215 N 
ATOM     28  C   UNL     1       3.576  -3.272  -0.053  0.00  0.00    +0.310 C 
ATOM     29  O   UNL     1       4.791  -3.300  -0.065  0.00  0.00    -0.252 OA
ATOM     30  N   UNL     1       2.853  -2.136  -0.039  0.00  0.00    -0.285 N 
ATOM     31  H   UNL     1       3.196  -1.229  -0.038  0.00  0.00    +0.151 HD
ENDBRANCH  17  27
ENDBRANCH   1  17
TORSDOF 3
