REMARK  Name = ZINC38079338
REMARK  7 active torsions:
REMARK  status: ('A' for Active; 'I' for Inactive)
REMARK    1  A    between atoms: C_1  and  C_2
REMARK    2  A    between atoms: C_3  and  N_9
REMARK    3  A    between atoms: N_9  and  C_10
REMARK    4  A    between atoms: C_10  and  C_11
REMARK    5  A    between atoms: C_11  and  O_12
REMARK    6  A    between atoms: O_12  and  C_13
REMARK    7  A    between atoms: C_16  and  N_19
REMARK                            x       y       z     vdW  Elec       q    Type
REMARK                         _______ _______ _______ _____ _____    ______ ____
ROOT
ATOM      1  C   UNL     1      -0.006  -0.718  -3.683  0.00  0.00    +0.142 C 
ENDROOT
BRANCH   1   2
ATOM      2  N   UNL     1      -0.010   0.010  -2.411  0.00  0.00    -0.340 N 
ATOM      3  H   UNL     1      -0.023   0.980  -2.408  0.00  0.00    +0.146 HD
BRANCH   2   6
ATOM      4  C   UNL     1      -0.018   1.503   0.010  0.00  0.00    +0.047 C 
ATOM      5  C   UNL     1       0.002  -0.004   0.002  0.00  0.00    -0.011 A 
ATOM      6  C   UNL     1       0.006  -0.693  -1.204  0.00  0.00    +0.032 A 
ATOM      7  C   UNL     1       0.025  -2.082  -1.208  0.00  0.00    +0.023 A 
ATOM      8  C   UNL     1       0.040  -2.774  -0.012  0.00  0.00    +0.003 A 
ATOM      9  C   UNL     1       0.035  -2.087   1.187  0.00  0.00    +0.020 A 
ATOM     10  C   UNL     1       0.023  -0.702   1.194  0.00  0.00    +0.046 A 
ATOM     11 CL   UNL     1       0.026   0.157   2.703  0.00  0.00    -0.083 Cl
ENDBRANCH   2   6
ENDBRANCH   1   2
BRANCH   1  12
ATOM     12  C   UNL     1      -0.025   0.280  -4.842  0.00  0.00    +0.247 C 
BRANCH  12  13
ATOM     13  O   UNL     1       1.185   1.039  -4.837  0.00  0.00    -0.490 OA
BRANCH  13  14
ATOM     14  C   UNL     1       1.329   1.977  -5.810  0.00  0.00    +0.121 A 
ATOM     15  C   UNL     1       0.323   2.167  -6.746  0.00  0.00    +0.048 A 
ATOM     16  C   UNL     1       0.471   3.122  -7.733  0.00  0.00    +0.036 A 
ATOM     17  C   UNL     1       1.621   3.888  -7.789  0.00  0.00    +0.126 A 
ATOM     18  C   UNL     1       2.625   3.700  -6.858  0.00  0.00    +0.036 A 
ATOM     19  C   UNL     1       2.479   2.751  -5.865  0.00  0.00    +0.048 A 
BRANCH  17  20
ATOM     20  N   UNL     1       1.777   4.910  -8.848  0.00  0.00    +0.056 N 
ATOM     21  O   UNL     1       0.899   5.075  -9.663  0.00  0.00    -0.126 OA
ATOM     22  O   UNL     1       2.782   5.580  -8.898  0.00  0.00    -0.126 OA
ENDBRANCH  17  20
ENDBRANCH  13  14
ENDBRANCH  12  13
ENDBRANCH   1  12
TORSDOF 6
