REMARK  Name = ZINC33310250
REMARK  8 active torsions:
REMARK  status: ('A' for Active; 'I' for Inactive)
REMARK    1  A    between atoms: C_1  and  C_2
REMARK    2  A    between atoms: C_2  and  C_3
REMARK    3  A    between atoms: C_2  and  N_4
REMARK    4  A    between atoms: N_7  and  C_8
REMARK    5  A    between atoms: C_11  and  N_14
REMARK    6  A    between atoms: C_21  and  C_24
REMARK    7  A    between atoms: N_26  and  C_27
REMARK    8  A    between atoms: C_27  and  C_28
REMARK                            x       y       z     vdW  Elec       q    Type
REMARK                         _______ _______ _______ _____ _____    ______ ____
ROOT
ATOM      1  N   UNL     1      -5.979  -1.912  -5.165  0.00  0.00    -0.269 N 
ATOM      2  C   UNL     1      -5.111  -1.525  -4.210  0.00  0.00    +0.306 C 
ATOM      3  O   UNL     1      -4.042  -2.093  -4.093  0.00  0.00    -0.252 OA
ATOM      4  N   UNL     1      -5.427  -0.508  -3.384  0.00  0.00    -0.285 N 
ATOM      5  C   UNL     1      -6.661   0.264  -3.585  0.00  0.00    +0.109 C 
ATOM      6  C   UNL     1      -6.305   1.752  -3.663  0.00  0.00    +0.020 C 
ATOM      7  C   UNL     1      -5.512   2.148  -2.415  0.00  0.00    +0.016 C 
ATOM      8  C   UNL     1      -4.212   1.343  -2.357  0.00  0.00    +0.092 C 
ATOM      9  C   UNL     1      -4.545  -0.150  -2.265  0.00  0.00    +0.122 C 
ATOM     10  H   UNL     1      -6.911  -1.349  -5.322  0.00  0.00    +0.156 HD
ENDROOT
BRANCH   1  14
ATOM     11  C   UNL     1      -5.129  -5.240  -7.531  0.00  0.00    +0.035 A 
ATOM     12  C   UNL     1      -6.437  -4.979  -7.142  0.00  0.00    +0.025 A 
ATOM     13  C   UNL     1      -6.718  -3.878  -6.359  0.00  0.00    +0.025 A 
ATOM     14  C   UNL     1      -5.693  -3.030  -5.960  0.00  0.00    +0.035 A 
ATOM     15  C   UNL     1      -4.387  -3.287  -6.353  0.00  0.00    +0.025 A 
ATOM     16  C   UNL     1      -4.105  -4.392  -7.132  0.00  0.00    +0.025 A 
BRANCH  11  20
ATOM     17  N   UNL     1      -3.349  -8.012  -9.019  0.00  0.00    -0.297 N 
ATOM     18  C   UNL     1      -3.668  -7.002  -8.185  0.00  0.00    +0.304 C 
ATOM     19  O   UNL     1      -2.895  -6.672  -7.307  0.00  0.00    -0.253 OA
ATOM     20  N   UNL     1      -4.844  -6.358  -8.326  0.00  0.00    -0.269 N 
ATOM     21  H   UNL     1      -4.049  -8.310  -9.814  0.00  0.00    +0.151 HD
ATOM     22  H   UNL     1      -5.579  -6.710  -9.064  0.00  0.00    +0.156 HD
BRANCH  17  24
ATOM     23  C   UNL     1      -2.191 -10.123  -9.445  0.00  0.00    +0.027 C 
ATOM     24  C   UNL     1      -2.071  -8.712  -8.867  0.00  0.00    +0.068 C 
ATOM     25  C   UNL     1      -0.978  -7.945  -9.613  0.00  0.00    +0.027 C 
ENDBRANCH  17  24
ENDBRANCH  11  20
ENDBRANCH   1  14
BRANCH   8  26
ATOM     26  C   UNL     1      -3.417   1.757  -1.145  0.00  0.00    +0.218 C 
ATOM     27  O   UNL     1      -3.848   2.612  -0.401  0.00  0.00    -0.275 OA
ATOM     28  N   UNL     1      -2.228   1.176  -0.889  0.00  0.00    -0.312 N 
ATOM     29  H   UNL     1      -1.838   0.401  -1.564  0.00  0.00    +0.149 HD
BRANCH  28  30
ATOM     30  C   UNL     1      -1.456   1.579   0.289  0.00  0.00    +0.131 C 
BRANCH  30  31
ATOM     31  C   UNL     1      -0.176   0.785   0.345  0.00  0.00    -0.016 C 
ATOM     32  C   UNL     1       0.977   1.405   0.406  0.00  0.00    +0.005 C 
ENDBRANCH  30  31
ENDBRANCH  28  30
ENDBRANCH   8  26
TORSDOF 6
