REMARK  Name = ZINC34889462
REMARK  9 active torsions:
REMARK  status: ('A' for Active; 'I' for Inactive)
REMARK    1  A    between atoms: C_1  and  C_2
REMARK    2  A    between atoms: C_3  and  C_7
REMARK    3  A    between atoms: C_10  and  S_13
REMARK    4  A    between atoms: N_11  and  N_12
REMARK    5  A    between atoms: S_13  and  C_14
REMARK    6  A    between atoms: C_14  and  C_15
REMARK    7  A    between atoms: N_20  and  C_21
REMARK    8  A    between atoms: C_26  and  C_31
REMARK    9  A    between atoms: C_28  and  C_30
REMARK                            x       y       z     vdW  Elec       q    Type
REMARK                         _______ _______ _______ _____ _____    ______ ____
ROOT
ATOM      1  C   UNL     1      -7.305   0.657   0.047  0.00  0.00    +0.173 C 
ENDROOT
BRANCH   1   2
ATOM      2  C   UNL     1      -8.784   0.369   0.057  0.00  0.00    +0.231 C 
ATOM      3  O   UNL     1      -9.178  -0.777   0.059  0.00  0.00    -0.274 OA
ATOM      4  N   UNL     1      -9.668   1.386   0.064  0.00  0.00    -0.239 N 
ATOM      5  C   UNL     1     -10.991   1.129   0.074  0.00  0.00    +0.306 C 
ATOM      6  O   UNL     1     -11.387  -0.020   0.076  0.00  0.00    -0.252 OA
ATOM      7  N   UNL     1     -11.875   2.146   0.081  0.00  0.00    -0.296 N 
ATOM      8  H   UNL     1      -9.352   2.304   0.063  0.00  0.00    +0.159 HD
ATOM      9  H   UNL     1     -11.560   3.063   0.079  0.00  0.00    +0.151 HD
BRANCH   7  10
ATOM     10  C   UNL     1     -13.313   1.867   0.091  0.00  0.00    +0.078 C 
ATOM     11  C   UNL     1     -13.800   1.647  -1.343  0.00  0.00    +0.022 C 
ATOM     12  C   UNL     1     -15.302   1.355  -1.332  0.00  0.00    +0.002 C 
ATOM     13  C   UNL     1     -16.048   2.540  -0.716  0.00  0.00    +0.003 C 
ATOM     14  C   UNL     1     -15.561   2.760   0.718  0.00  0.00    -0.009 C 
ATOM     15  C   UNL     1     -14.059   3.052   0.707  0.00  0.00    +0.009 C 
ATOM     16  C   UNL     1     -13.790   4.310  -0.121  0.00  0.00    +0.009 C 
ATOM     17  C   UNL     1     -16.307   3.945   1.333  0.00  0.00    +0.008 C 
ENDBRANCH   7  10
ENDBRANCH   1   2
BRANCH   1  18
ATOM     18  S   UNL     1      -6.385  -0.906   0.039  0.00  0.00    -0.075 S 
BRANCH  18  22
ATOM     19  C   UNL     1      -2.510  -0.400   0.013  0.00  0.00    +0.185 A 
ATOM     20  N   UNL     1      -2.963   0.832   0.017  0.00  0.00    -0.127 NA
ATOM     21  N   UNL     1      -4.248   0.828   0.025  0.00  0.00    -0.121 NA
ATOM     22  C   UNL     1      -4.695  -0.406   0.027  0.00  0.00    +0.209 A 
ATOM     23  N   UNL     1      -3.605  -1.232   0.013  0.00  0.00    -0.224 N 
BRANCH  19  26
ATOM     24  C   UNL     1      -0.018   1.503   0.010  0.00  0.00    +0.087 C 
ATOM     25  C   UNL     1       0.002  -0.004   0.002  0.00  0.00    +0.112 A 
ATOM     26  C   UNL     1      -1.091  -0.815   0.003  0.00  0.00    +0.061 A 
ATOM     27  C   UNL     1      -0.568  -2.187  -0.008  0.00  0.00    +0.053 A 
ATOM     28  C   UNL     1       0.770  -2.074  -0.014  0.00  0.00    +0.196 A 
ATOM     29  O   UNL     1       1.100  -0.773  -0.013  0.00  0.00    -0.467 OA
ENDBRANCH  19  26
BRANCH  23  30
ATOM     30  N   UNL     1      -3.604  -2.598   0.004  0.00  0.00    -0.295 N 
ATOM     31  H   UNL     1      -3.598  -2.966   0.944  0.00  0.00    +0.163 HD
ATOM     32  H   UNL     1      -4.388  -2.957  -0.520  0.00  0.00    +0.163 HD
ENDBRANCH  23  30
ENDBRANCH  18  22
ENDBRANCH   1  18
TORSDOF 6
