REMARK  Name = ZINC05669489
REMARK  3 active torsions:
REMARK  status: ('A' for Active; 'I' for Inactive)
REMARK    1  A    between atoms: C_14  and  C_15
REMARK    2  A    between atoms: N_16  and  N_17
REMARK    3  A    between atoms: C_18  and  C_20
REMARK                            x       y       z     vdW  Elec       q    Type
REMARK                         _______ _______ _______ _____ _____    ______ ____
ROOT
ATOM      1  C   UNL     1      -1.857   4.997  -2.647  0.00  0.00    +0.139 C 
ATOM      2  N   UNL     1      -1.650   3.721  -2.494  0.00  0.00    -0.188 NA
ENDROOT
BRANCH   1  16
ATOM      3  C   UNL     1      -3.572   9.542  -4.216  0.00  0.00    +0.001 A 
ATOM      4  C   UNL     1      -2.905   9.079  -3.083  0.00  0.00    +0.001 A 
ATOM      5  C   UNL     1      -2.567   7.770  -2.939  0.00  0.00    +0.009 A 
ATOM      6  C   UNL     1      -2.899   6.851  -3.951  0.00  0.00    -0.009 A 
ATOM      7  C   UNL     1      -3.595   7.336  -5.145  0.00  0.00    -0.017 A 
ATOM      8  C   UNL     1      -3.917   8.708  -5.231  0.00  0.00    +0.008 A 
ATOM      9  C   UNL     1      -3.935   6.452  -6.169  0.00  0.00    +0.017 A 
ATOM     10  C   UNL     1      -3.607   5.100  -6.061  0.00  0.00    -0.017 A 
ATOM     11  C   UNL     1      -3.940   4.187  -7.085  0.00  0.00    +0.008 A 
ATOM     12  C   UNL     1      -3.605   2.877  -6.950  0.00  0.00    +0.001 A 
ATOM     13  C   UNL     1      -2.937   2.406  -5.821  0.00  0.00    +0.001 A 
ATOM     14  C   UNL     1      -2.589   3.234  -4.800  0.00  0.00    +0.009 A 
ATOM     15  C   UNL     1      -2.905   4.602  -4.876  0.00  0.00    -0.009 A 
ATOM     16  C   UNL     1      -2.558   5.488  -3.836  0.00  0.00    +0.010 A 
ENDBRANCH   1  16
BRANCH   2  17
ATOM     17  N   UNL     1      -0.979   3.251  -1.357  0.00  0.00    -0.204 N 
ATOM     18  C   UNL     1      -0.765   1.930  -1.199  0.00  0.00    +0.276 C 
ATOM     19  O   UNL     1      -1.152   1.147  -2.041  0.00  0.00    -0.270 OA
ATOM     20  H   UNL     1      -0.669   3.877  -0.683  0.00  0.00    +0.177 HD
BRANCH  18  21
ATOM     21  C   UNL     1      -0.043   1.425   0.024  0.00  0.00    +0.297 C 
ATOM     22  C   UNL     1       1.412   1.910   0.004  0.00  0.00    +0.283 C 
ATOM     23  O   UNL     1       2.070   1.402   1.170  0.00  0.00    -0.484 OA
ATOM     24  C   UNL     1       1.872   0.087   1.460  0.00  0.00    +0.162 A 
ATOM     25  C   UNL     1       2.735  -0.554   2.336  0.00  0.00    +0.049 A 
ATOM     26  C   UNL     1       2.543  -1.887   2.645  0.00  0.00    +0.004 A 
ATOM     27  C   UNL     1       1.492  -2.586   2.081  0.00  0.00    +0.004 A 
ATOM     28  C   UNL     1       0.629  -1.953   1.206  0.00  0.00    +0.049 A 
ATOM     29  C   UNL     1       0.817  -0.616   0.891  0.00  0.00    +0.163 A 
ATOM     30  O   UNL     1      -0.039  -0.007   0.025  0.00  0.00    -0.472 OA
ENDBRANCH  18  21
ENDBRANCH   2  17
TORSDOF 3
