REMARK  Name = ZINC52000802
REMARK  7 active torsions:
REMARK  status: ('A' for Active; 'I' for Inactive)
REMARK    1  A    between atoms: C_1  and  C_2
REMARK    2  A    between atoms: C_2  and  C_3
REMARK    3  A    between atoms: C_2  and  C_4
REMARK    4  A    between atoms: C_2  and  C_5
REMARK    5  A    between atoms: C_5  and  C_6
REMARK    6  A    between atoms: N_8  and  C_9
REMARK    7  A    between atoms: C_15  and  O_17
REMARK                            x       y       z     vdW  Elec       q    Type
REMARK                         _______ _______ _______ _____ _____    ______ ____
ROOT
ATOM      1  C   UNL     1       2.132   0.024  -1.268  0.00  0.00    +0.214 C 
ATOM      2  O   UNL     1       2.528   0.722  -0.358  0.00  0.00    -0.276 OA
ATOM      3  N   UNL     1       2.957  -0.285  -2.288  0.00  0.00    -0.310 N 
ATOM      4  H   UNL     1       2.640  -0.843  -3.015  0.00  0.00    +0.149 HD
ENDROOT
BRANCH   3   5
ATOM      5  C   UNL     1       4.331   0.222  -2.298  0.00  0.00    +0.101 C 
ATOM      6  C   UNL     1       4.351   1.629  -2.901  0.00  0.00    +0.025 C 
ATOM      7  C   UNL     1       3.816   1.578  -4.333  0.00  0.00    +0.002 C 
ATOM      8  C   UNL     1       4.695   0.650  -5.174  0.00  0.00    +0.003 C 
ATOM      9  C   UNL     1       4.675  -0.756  -4.571  0.00  0.00    +0.033 C 
ATOM     10  C   UNL     1       5.210  -0.705  -3.139  0.00  0.00    +0.135 C 
BRANCH  10  11
ATOM     11  O   UNL     1       5.192  -2.019  -2.577  0.00  0.00    -0.390 OA
ATOM     12  H   UNL     1       5.729  -2.661  -3.060  0.00  0.00    +0.210 HD
ENDBRANCH  10  11
ENDBRANCH   3   5
BRANCH   1  13
ATOM     13  C   UNL     1       0.718  -0.497  -1.257  0.00  0.00    +0.102 C 
BRANCH  13  15
ATOM     14  C   UNL     1      -0.019   1.526   0.010  0.00  0.00    +0.011 C 
ATOM     15  C   UNL     1       0.002  -0.004   0.002  0.00  0.00    -0.029 C 
ATOM     16  C   UNL     1       0.742  -0.511   1.242  0.00  0.00    +0.011 C 
ATOM     17  C   UNL     1      -1.433  -0.534   0.013  0.00  0.00    +0.011 C 
ENDBRANCH  13  15
ENDBRANCH   1  13
TORSDOF 4
