REMARK  Name = ZINC00500770
REMARK  9 active torsions:
REMARK  status: ('A' for Active; 'I' for Inactive)
REMARK    1  A    between atoms: C_1  and  C_2
REMARK    2  A    between atoms: C_2  and  C_3
REMARK    3  A    between atoms: C_3  and  N_4
REMARK    4  A    between atoms: N_7  and  C_15
REMARK    5  A    between atoms: C_8  and  C_13
REMARK    6  A    between atoms: C_8  and  O_14
REMARK    7  A    between atoms: C_10  and  C_11
REMARK    8  A    between atoms: C_10  and  C_12
REMARK    9  A    between atoms: C_19  and  C_21
REMARK                            x       y       z     vdW  Elec       q    Type
REMARK                         _______ _______ _______ _____ _____    ______ ____
ROOT
ATOM      1  N   UNL     1       0.561  -2.140  -0.868  0.00  0.00    -0.280 N 
ATOM      2  C   UNL     1       1.589  -2.872  -0.413  0.00  0.00    +0.312 C 
ATOM      3  O   UNL     1       2.361  -2.366   0.378  0.00  0.00    -0.252 OA
ATOM      4  N   UNL     1       1.798  -4.140  -0.796  0.00  0.00    -0.227 N 
ATOM      5  C   UNL     1       0.897  -4.810  -1.735  0.00  0.00    +0.140 C 
ATOM      6  C   UNL     1       0.274  -3.765  -2.667  0.00  0.00    +0.080 C 
ATOM      7  C   UNL     1      -0.415  -2.697  -1.806  0.00  0.00    +0.037 C 
ATOM      8  C   UNL     1      -0.951  -1.583  -2.708  0.00  0.00    +0.031 C 
ATOM      9  C   UNL     1      -1.571  -3.328  -1.028  0.00  0.00    +0.031 C 
ATOM     10  C   UNL     1       1.685  -5.828  -2.562  0.00  0.00    +0.064 C 
ENDROOT
BRANCH   4  11
ATOM     11  C   UNL     1       2.900  -4.837  -0.288  0.00  0.00    +0.041 A 
ATOM     12  C   UNL     1       2.749  -5.671   0.812  0.00  0.00    +0.024 A 
ATOM     13  C   UNL     1       3.839  -6.358   1.311  0.00  0.00    +0.002 A 
ATOM     14  C   UNL     1       5.079  -6.215   0.716  0.00  0.00    +0.003 A 
ATOM     15  C   UNL     1       5.233  -5.384  -0.379  0.00  0.00    -0.049 A 
ATOM     16  C   UNL     1       4.146  -4.700  -0.886  0.00  0.00    +0.027 A 
ATOM     17  C   UNL     1       6.587  -5.230  -1.023  0.00  0.00    +0.044 C 
ENDBRANCH   4  11
BRANCH   5  18
ATOM     18  O   UNL     1      -0.136  -5.480  -1.010  0.00  0.00    -0.371 OA
ATOM     19  H   UNL     1       0.187  -6.154  -0.396  0.00  0.00    +0.212 HD
ENDBRANCH   5  18
BRANCH   1  20
ATOM     20  C   UNL     1       0.407  -0.756  -0.410  0.00  0.00    +0.109 C 
BRANCH  20  22
ATOM     21  C   UNL     1      -0.611   0.715   1.333  0.00  0.00    +0.005 C 
ATOM     22  C   UNL     1      -0.451  -0.729   0.856  0.00  0.00    +0.016 C 
ENDBRANCH  20  22
ENDBRANCH   1  20
TORSDOF 4
