REMARK  Name = ZINC11477492
REMARK  13 active torsions:
REMARK  status: ('A' for Active; 'I' for Inactive)
REMARK    1  A    between atoms: C_1  and  C_2
REMARK    2  A    between atoms: C_2  and  N_3
REMARK    3  A    between atoms: N_3  and  C_4
REMARK    4  A    between atoms: C_4  and  C_5
REMARK    5  A    between atoms: C_6  and  C_8
REMARK    6  A    between atoms: C_8  and  S_9
REMARK    7  A    between atoms: S_9  and  C_10
REMARK    8  A    between atoms: C_13  and  S_16
REMARK    9  A    between atoms: N_14  and  N_15
REMARK   10  A    between atoms: S_16  and  C_17
REMARK   11  A    between atoms: C_17  and  C_18
REMARK   12  A    between atoms: N_20  and  C_21
REMARK   13  A    between atoms: C_22  and  C_30
REMARK                            x       y       z     vdW  Elec       q    Type
REMARK                         _______ _______ _______ _____ _____    ______ ____
ROOT
ATOM      1  C   UNL     1      -1.331   2.079   0.020  0.00  0.00    +0.173 C 
ENDROOT
BRANCH   1   2
ATOM      2  C   UNL     1      -0.016   1.344   0.009  0.00  0.00    +0.228 C 
ATOM      3  O   UNL     1       1.026   1.964   0.003  0.00  0.00    -0.275 OA
ATOM      4  N   UNL     1       0.002  -0.004   0.002  0.00  0.00    -0.279 N 
ATOM      5  H   UNL     1      -0.831  -0.500   0.007  0.00  0.00    +0.155 HD
BRANCH   4   6
ATOM      6  C   UNL     1       1.212  -0.681  -0.013  0.00  0.00    +0.084 A 
ATOM      7  C   UNL     1       1.434  -2.051  -0.017  0.00  0.00    +0.068 A 
ATOM      8  C   UNL     1       2.813  -2.508  -0.037  0.00  0.00    -0.023 A 
ATOM      9  C   UNL     1       3.743  -1.529  -0.041  0.00  0.00    -0.004 A 
ATOM     10  S   UNL     1       2.814  -0.022  -0.024  0.00  0.00    -0.077 S 
ATOM     11  C   UNL     1       5.231  -1.697  -0.054  0.00  0.00    +0.043 C 
ATOM     12  C   UNL     1       5.557  -3.152   0.314  0.00  0.00    +0.005 C 
ATOM     13  C   UNL     1       4.671  -4.082  -0.519  0.00  0.00    +0.005 C 
ATOM     14  C   UNL     1       3.219  -3.976  -0.049  0.00  0.00    +0.037 C 
BRANCH   7  15
ATOM     15  C   UNL     1       0.318  -3.002  -0.005  0.00  0.00    +0.244 C 
ATOM     16  O   UNL     1      -0.157  -3.396  -1.054  0.00  0.00    -0.270 OA
ATOM     17  N   UNL     1      -0.182  -3.439   1.168  0.00  0.00    -0.325 N 
ATOM     18  H   UNL     1       0.197  -3.125   2.004  0.00  0.00    +0.145 HD
ATOM     19  H   UNL     1      -0.920  -4.069   1.176  0.00  0.00    +0.145 HD
ENDBRANCH   7  15
ENDBRANCH   4   6
ENDBRANCH   1   2
BRANCH   1  20
ATOM     20  S   UNL     1      -1.024   3.867   0.028  0.00  0.00    -0.075 S 
BRANCH  20  24
ATOM     21  C   UNL     1      -4.287   6.049   0.055  0.00  0.00    +0.209 A 
ATOM     22  N   UNL     1      -4.815   4.849   0.051  0.00  0.00    -0.120 NA
ATOM     23  N   UNL     1      -3.769   3.916   0.035  0.00  0.00    -0.120 NA
ATOM     24  C   UNL     1      -2.637   4.577   0.039  0.00  0.00    +0.209 A 
ATOM     25  N   UNL     1      -2.927   5.912   0.048  0.00  0.00    -0.219 N 
BRANCH  25  26
ATOM     26  N   UNL     1      -2.017   6.932   0.050  0.00  0.00    -0.294 N 
ATOM     27  H   UNL     1      -1.781   7.207  -0.892  0.00  0.00    +0.163 HD
ATOM     28  H   UNL     1      -2.357   7.718   0.582  0.00  0.00    +0.163 HD
ENDBRANCH  25  26
BRANCH  21  29
ATOM     29  S   UNL     1      -5.175   7.571   0.067  0.00  0.00    -0.075 S 
BRANCH  29  30
ATOM     30  C   UNL     1      -6.916   7.063   0.073  0.00  0.00    +0.173 C 
BRANCH  30  32
ATOM     31  N   UNL     1      -9.137   8.151   0.089  0.00  0.00    -0.301 N 
ATOM     32  C   UNL     1      -7.796   8.286   0.083  0.00  0.00    +0.226 C 
ATOM     33  O   UNL     1      -7.298   9.392   0.087  0.00  0.00    -0.275 OA
BRANCH  31  35
ATOM     34  C   UNL     1      -9.942   6.344   1.526  0.00  0.00    +0.024 C 
ATOM     35  C   UNL     1      -9.739   6.816   0.085  0.00  0.00    +0.104 C 
ENDBRANCH  31  35
BRANCH  31  36
ATOM     36  C   UNL     1      -9.993   9.341   0.099  0.00  0.00    +0.104 C 
ATOM     37  C   UNL     1     -10.298   9.762  -1.340  0.00  0.00    +0.024 C 
ENDBRANCH  31  36
ENDBRANCH  30  32
ENDBRANCH  29  30
ENDBRANCH  21  29
ENDBRANCH  20  24
ENDBRANCH   1  20
TORSDOF 11
