REMARK  Name = ZINC67100880
REMARK  9 active torsions:
REMARK  status: ('A' for Active; 'I' for Inactive)
REMARK    1  A    between atoms: C_1  and  C_2
REMARK    2  A    between atoms: C_4  and  C_25
REMARK    3  A    between atoms: C_6  and  O_23
REMARK    4  A    between atoms: C_7  and  C_8
REMARK    5  A    between atoms: C_8  and  N_9
REMARK    6  A    between atoms: N_12  and  C_13
REMARK    7  A    between atoms: C_16  and  C_19
REMARK    8  A    between atoms: N_21  and  C_22
REMARK    9  A    between atoms: O_23  and  C_24
REMARK                            x       y       z     vdW  Elec       q    Type
REMARK                         _______ _______ _______ _____ _____    ______ ____
ROOT
ATOM      1  N   UNL     1      -1.354   0.215   2.954  0.00  0.00    -0.295 N 
ATOM      2  C   UNL     1      -1.598   0.844   4.121  0.00  0.00    +0.300 C 
ATOM      3  O   UNL     1      -0.673   1.233   4.807  0.00  0.00    -0.253 OA
ATOM      4  N   UNL     1      -2.868   1.040   4.528  0.00  0.00    -0.297 N 
ATOM      5  H   UNL     1      -2.093  -0.096   2.407  0.00  0.00    +0.151 HD
ATOM      6  H   UNL     1      -3.606   0.730   3.981  0.00  0.00    +0.151 HD
ENDROOT
BRANCH   4   7
ATOM      7  C   UNL     1      -3.133   1.724   5.796  0.00  0.00    +0.074 C 
ATOM      8  C   UNL     1      -3.078   0.712   6.942  0.00  0.00    +0.023 C 
ATOM      9  C   UNL     1      -4.134  -0.372   6.716  0.00  0.00    +0.014 C 
ATOM     10  C   UNL     1      -5.522   0.270   6.670  0.00  0.00    +0.075 C 
ATOM     11  C   UNL     1      -5.577   1.282   5.524  0.00  0.00    +0.014 C 
ATOM     12  C   UNL     1      -4.521   2.366   5.749  0.00  0.00    +0.023 C 
BRANCH  10  13
ATOM     13  C   UNL     1      -6.562  -0.798   6.447  0.00  0.00    +0.216 C 
ATOM     14  O   UNL     1      -6.226  -1.958   6.337  0.00  0.00    -0.276 OA
ATOM     15  N   UNL     1      -7.865  -0.463   6.371  0.00  0.00    -0.318 N 
ATOM     16  C   UNL     1      -8.877  -1.501   6.154  0.00  0.00    +0.128 C 
ATOM     17  H   UNL     1      -8.134   0.465   6.459  0.00  0.00    +0.148 HD
ENDBRANCH  10  13
ENDBRANCH   4   7
BRANCH   1  18
ATOM     18  C   UNL     1       0.026   0.001   2.512  0.00  0.00    +0.146 C 
BRANCH  18  25
ATOM     19  C   UNL     1      -0.018   1.503   0.010  0.00  0.00    +0.044 C 
ATOM     20  C   UNL     1       0.002  -0.004   0.002  0.00  0.00    -0.039 A 
ATOM     21  C   UNL     1       0.006  -0.708  -1.195  0.00  0.00    +0.027 A 
ATOM     22  C   UNL     1       0.025  -2.087  -1.167  0.00  0.00    +0.042 A 
ATOM     23  N   UNL     1       0.040  -2.741  -0.021  0.00  0.00    -0.218 NA
ATOM     24  C   UNL     1       0.036  -2.106   1.140  0.00  0.00    +0.220 A 
ATOM     25  C   UNL     1       0.023  -0.718   1.187  0.00  0.00    +0.034 A 
ATOM     26  C   UNL     1       0.030  -2.858  -2.462  0.00  0.00    +0.066 C 
BRANCH  24  27
ATOM     27  O   UNL     1       0.051  -2.818   2.295  0.00  0.00    -0.479 OA
ATOM     28  C   UNL     1       0.070  -4.242   2.179  0.00  0.00    +0.279 C 
ENDBRANCH  24  27
ENDBRANCH  18  25
ENDBRANCH   1  18
TORSDOF 5
