REMARK  Name = ZINC16361503
REMARK  11 active torsions:
REMARK  status: ('A' for Active; 'I' for Inactive)
REMARK    1  A    between atoms: C_1  and  C_2
REMARK    2  A    between atoms: C_2  and  O_3
REMARK    3  A    between atoms: O_3  and  C_4
REMARK    4  A    between atoms: C_6  and  C_18
REMARK    5  A    between atoms: C_9  and  O_10
REMARK    6  A    between atoms: O_10  and  C_11
REMARK    7  A    between atoms: C_11  and  C_12
REMARK    8  A    between atoms: C_20  and  C_27
REMARK    9  A    between atoms: C_21  and  C_26
REMARK   10  A    between atoms: N_29  and  C_30
REMARK   11  A    between atoms: C_30  and  C_31
REMARK                            x       y       z     vdW  Elec       q    Type
REMARK                         _______ _______ _______ _____ _____    ______ ____
ROOT
ATOM      1  C   UNL     1      -0.336   0.210   0.050  0.00  0.00    +0.142 C 
ATOM      2  C   UNL     1       0.104  -0.233   1.431  0.00  0.00    +0.056 C 
ATOM      3  C   UNL     1       1.252  -0.936   1.528  0.00  0.00    +0.019 C 
ATOM      4  N   UNL     1       1.990  -1.238   0.419  0.00  0.00    -0.273 N 
ATOM      5  C   UNL     1       1.648  -0.873  -0.823  0.00  0.00    +0.304 C 
ATOM      6  O   UNL     1       2.370  -1.188  -1.749  0.00  0.00    -0.252 OA
ATOM      7  N   UNL     1       0.530  -0.166  -1.080  0.00  0.00    -0.288 N 
ATOM      8  C   UNL     1       1.726  -1.396   2.883  0.00  0.00    +0.061 C 
ATOM      9  H   UNL     1       2.808  -1.746   0.538  0.00  0.00    +0.156 HD
ATOM     10  H   UNL     1       0.301   0.088  -1.987  0.00  0.00    +0.151 HD
ENDROOT
BRANCH   1  13
ATOM     11  C   UNL     1      -1.824   3.683   0.094  0.00  0.00    +0.162 A 
ATOM     12  C   UNL     1      -1.709   2.302   0.078  0.00  0.00    +0.055 A 
ATOM     13  C   UNL     1      -0.459   1.712   0.061  0.00  0.00    -0.019 A 
ATOM     14  C   UNL     1       0.679   2.497   0.049  0.00  0.00    +0.009 A 
ATOM     15  C   UNL     1       0.572   3.876   0.059  0.00  0.00    +0.050 A 
ATOM     16  C   UNL     1      -0.678   4.473   0.082  0.00  0.00    +0.162 A 
BRANCH  11  17
ATOM     17  O   UNL     1      -3.053   4.264   0.117  0.00  0.00    -0.489 OA
BRANCH  17  19
ATOM     18  C   UNL     1      -5.469   4.215   0.140  0.00  0.00    +0.048 C 
ATOM     19  C   UNL     1      -4.181   3.394   0.225  0.00  0.00    +0.226 C 
ENDBRANCH  17  19
ENDBRANCH  11  17
BRANCH  16  20
ATOM     20  O   UNL     1      -0.785   5.829   0.092  0.00  0.00    -0.484 OA
BRANCH  20  21
ATOM     21  C   UNL     1       0.432   6.576   0.079  0.00  0.00    +0.264 C 
BRANCH  21  22
ATOM     22  C   UNL     1       0.118   8.050   0.093  0.00  0.00    -0.010 A 
ATOM     23  C   UNL     1      -0.039   8.735  -1.097  0.00  0.00    +0.007 A 
ATOM     24  C   UNL     1      -0.333  10.085  -1.084  0.00  0.00    +0.000 A 
ATOM     25  C   UNL     1      -0.459  10.753   0.120  0.00  0.00    +0.000 A 
ATOM     26  C   UNL     1      -0.297  10.070   1.310  0.00  0.00    +0.000 A 
ATOM     27  C   UNL     1      -0.009   8.718   1.297  0.00  0.00    +0.007 A 
ENDBRANCH  21  22
ENDBRANCH  20  21
ENDBRANCH  16  20
ENDBRANCH   1  13
BRANCH   2  28
ATOM     28  C   UNL     1      -0.662   0.082   2.580  0.00  0.00    +0.244 C 
ATOM     29  O   UNL     1      -1.657  -0.568   2.845  0.00  0.00    -0.270 OA
ATOM     30  N   UNL     1      -0.290   1.100   3.381  0.00  0.00    -0.307 N 
ATOM     31  H   UNL     1       0.541   1.571   3.212  0.00  0.00    +0.149 HD
BRANCH  30  32
ATOM     32  C   UNL     1      -1.140   1.495   4.507  0.00  0.00    +0.139 C 
BRANCH  32  33
ATOM     33  C   UNL     1      -0.565   2.724   5.163  0.00  0.00    -0.030 A 
ATOM     34  C   UNL     1       0.416   2.597   6.129  0.00  0.00    +0.005 A 
ATOM     35  C   UNL     1       0.947   3.724   6.728  0.00  0.00    +0.000 A 
ATOM     36  C   UNL     1       0.489   4.978   6.368  0.00  0.00    +0.000 A 
ATOM     37  C   UNL     1      -0.495   5.105   5.405  0.00  0.00    +0.000 A 
ATOM     38  C   UNL     1      -1.022   3.978   4.803  0.00  0.00    +0.005 A 
ENDBRANCH  32  33
ENDBRANCH  30  32
ENDBRANCH   2  28
TORSDOF 9
