REMARK  Name = ZINC08490364
REMARK  8 active torsions:
REMARK  status: ('A' for Active; 'I' for Inactive)
REMARK    1  A    between atoms: C_1  and  C_2
REMARK    2  A    between atoms: C_2  and  C_20
REMARK    3  A    between atoms: N_5  and  C_9
REMARK    4  A    between atoms: C_9  and  C_10
REMARK    5  A    between atoms: N_12  and  C_13
REMARK    6  A    between atoms: C_13  and  C_14
REMARK    7  A    between atoms: C_13  and  C_15
REMARK    8  A    between atoms: C_13  and  C_17
REMARK                            x       y       z     vdW  Elec       q    Type
REMARK                         _______ _______ _______ _____ _____    ______ ____
ROOT
ATOM      1  C   UNL     1      -0.722   2.047  -1.238  0.00  0.00    +0.047 C 
ATOM      2  C   UNL     1      -0.018   1.512   0.010  0.00  0.00    +0.135 C 
ATOM      3  C   UNL     1       0.002  -0.004   0.002  0.00  0.00    +0.251 C 
ATOM      4  O   UNL     1      -0.954  -0.749   0.008  0.00  0.00    -0.272 OA
ATOM      5  N   UNL     1       1.304  -0.351  -0.012  0.00  0.00    -0.215 N 
ATOM      6  C   UNL     1       2.101   0.724  -0.014  0.00  0.00    +0.310 C 
ATOM      7  O   UNL     1       3.315   0.665  -0.026  0.00  0.00    -0.252 OA
ATOM      8  N   UNL     1       1.409   1.877  -0.001  0.00  0.00    -0.281 N 
ATOM      9  H   UNL     1       1.777   2.775  -0.000  0.00  0.00    +0.152 HD
ENDROOT
BRANCH   2  10
ATOM     10  C   UNL     1      -0.687   2.026   1.259  0.00  0.00    -0.015 A 
ATOM     11  C   UNL     1      -1.685   1.284   1.864  0.00  0.00    +0.007 A 
ATOM     12  C   UNL     1      -2.295   1.753   3.013  0.00  0.00    +0.020 A 
ATOM     13  C   UNL     1      -1.915   2.970   3.550  0.00  0.00    +0.041 A 
ATOM     14  C   UNL     1      -0.921   3.714   2.941  0.00  0.00    +0.020 A 
ATOM     15  C   UNL     1      -0.307   3.242   1.796  0.00  0.00    +0.007 A 
ATOM     16 CL   UNL     1      -2.685   3.562   4.989  0.00  0.00    -0.084 Cl
ENDBRANCH   2  10
BRANCH   5  17
ATOM     17  C   UNL     1       1.788  -1.734  -0.024  0.00  0.00    +0.213 C 
BRANCH  17  18
ATOM     18  C   UNL     1       1.940  -2.201  -1.448  0.00  0.00    +0.232 C 
ATOM     19  O   UNL     1       1.671  -1.453  -2.364  0.00  0.00    -0.274 OA
ATOM     20  N   UNL     1       2.375  -3.451  -1.705  0.00  0.00    -0.296 N 
ATOM     21  H   UNL     1       2.590  -4.049  -0.972  0.00  0.00    +0.150 HD
BRANCH  20  22
ATOM     22  C   UNL     1       2.522  -3.905  -3.090  0.00  0.00    +0.121 C 
ATOM     23  C   UNL     1       3.526  -3.008  -3.816  0.00  0.00    +0.048 C 
BRANCH  22  24
ATOM     24  C   UNL     1       3.027  -5.349  -3.101  0.00  0.00    +0.026 C 
ATOM     25  C   UNL     1       4.404  -5.612  -3.716  0.00  0.00    +0.007 C 
ATOM     26  C   UNL     1       3.138  -6.048  -4.458  0.00  0.00    +0.007 C 
ENDBRANCH  22  24
BRANCH  22  27
ATOM     27  C   UNL     1       1.219  -3.835  -3.771  0.00  0.00    +0.088 C 
ATOM     28  N   UNL     1       0.214  -3.781  -4.296  0.00  0.00    -0.194 NA
ENDBRANCH  22  27
ENDBRANCH  20  22
ENDBRANCH  17  18
ENDBRANCH   5  17
TORSDOF 6
