REMARK  Name = ZINC42960602
REMARK  6 active torsions:
REMARK  status: ('A' for Active; 'I' for Inactive)
REMARK    1  A    between atoms: C_10  and  N_12
REMARK    2  A    between atoms: N_15  and  N_16
REMARK    3  A    between atoms: C_17  and  C_19
REMARK    4  A    between atoms: C_19  and  O_20
REMARK    5  A    between atoms: O_20  and  C_21
REMARK    6  A    between atoms: C_24  and  C_27
REMARK                            x       y       z     vdW  Elec       q    Type
REMARK                         _______ _______ _______ _____ _____    ______ ____
ROOT
ATOM      1  N   UNL     1       4.631   0.029  -0.946  0.00  0.00    -0.291 N 
ATOM      2  C   UNL     1       5.321   1.107  -0.525  0.00  0.00    +0.316 C 
ATOM      3  O   UNL     1       5.202   1.496   0.621  0.00  0.00    -0.251 OA
ATOM      4  N   UNL     1       6.144   1.754  -1.374  0.00  0.00    -0.218 N 
ATOM      5  H   UNL     1       4.726  -0.282  -1.860  0.00  0.00    +0.151 HD
ATOM      6  H   UNL     1       6.640   2.530  -1.071  0.00  0.00    +0.174 HD
ENDROOT
BRANCH   1  16
ATOM      7  C   UNL     1      -0.017   1.375   0.010  0.00  0.00    +0.000 A 
ATOM      8  C   UNL     1       1.174   2.078   0.002  0.00  0.00    +0.000 A 
ATOM      9  C   UNL     1       2.372   1.395  -0.010  0.00  0.00    +0.006 A 
ATOM     10  C   UNL     1       2.393   0.006  -0.017  0.00  0.00    -0.024 A 
ATOM     11  C   UNL     1       1.208  -0.694  -0.015  0.00  0.00    -0.042 A 
ATOM     12  C   UNL     1       0.002  -0.004   0.002  0.00  0.00    +0.004 A 
ATOM     13  C   UNL     1       1.155  -2.199  -0.038  0.00  0.00    +0.035 C 
ATOM     14  C   UNL     1       2.501  -2.790   0.375  0.00  0.00    +0.007 C 
ATOM     15  C   UNL     1       3.599  -2.130  -0.467  0.00  0.00    +0.027 C 
ATOM     16  C   UNL     1       3.737  -0.675  -0.023  0.00  0.00    +0.105 C 
ENDBRANCH   1  16
BRANCH   4  17
ATOM     17  N   UNL     1       6.281   1.306  -2.695  0.00  0.00    -0.230 N 
ATOM     18  C   UNL     1       7.104   1.953  -3.543  0.00  0.00    +0.267 C 
ATOM     19  O   UNL     1       7.725   2.924  -3.165  0.00  0.00    -0.271 OA
ATOM     20  H   UNL     1       5.785   0.530  -2.998  0.00  0.00    +0.173 HD
BRANCH  18  21
ATOM     21  C   UNL     1       7.252   1.471  -4.964  0.00  0.00    +0.326 C 
BRANCH  21  22
ATOM     22  O   UNL     1       8.172   2.315  -5.660  0.00  0.00    -0.483 OA
BRANCH  22  23
ATOM     23  C   UNL     1       8.419   2.016  -6.960  0.00  0.00    +0.121 A 
ATOM     24  C   UNL     1       7.783   0.934  -7.556  0.00  0.00    +0.047 A 
ATOM     25  C   UNL     1       8.031   0.627  -8.875  0.00  0.00    +0.022 A 
ATOM     26  C   UNL     1       8.924   1.406  -9.616  0.00  0.00    +0.052 A 
ATOM     27  C   UNL     1       9.562   2.494  -9.013  0.00  0.00    +0.022 A 
ATOM     28  C   UNL     1       9.304   2.797  -7.694  0.00  0.00    +0.047 A 
BRANCH  26  29
ATOM     29  C   UNL     1       9.185   1.091 -10.988  0.00  0.00    +0.099 C 
ATOM     30  N   UNL     1       9.392   0.841 -12.077  0.00  0.00    -0.191 NA
ENDBRANCH  26  29
ENDBRANCH  22  23
ENDBRANCH  21  22
ENDBRANCH  18  21
ENDBRANCH   4  17
TORSDOF 6
