REMARK  Name = ZINC29499932
REMARK  7 active torsions:
REMARK  status: ('A' for Active; 'I' for Inactive)
REMARK    1  A    between atoms: C_1  and  N_2
REMARK    2  A    between atoms: C_3  and  C_5
REMARK    3  A    between atoms: C_16  and  C_18
REMARK    4  A    between atoms: C_18  and  S_19
REMARK    5  A    between atoms: S_19  and  C_20
REMARK    6  A    between atoms: N_21  and  C_22
REMARK    7  A    between atoms: C_22  and  C_23
REMARK                            x       y       z     vdW  Elec       q    Type
REMARK                         _______ _______ _______ _____ _____    ______ ____
ROOT
ATOM      1  C   UNL     1      -2.454   5.134  -0.246  0.00  0.00    +0.276 C 
ATOM      2  C   UNL     1      -1.302   5.900   0.420  0.00  0.00    +0.168 C 
ATOM      3  N   UNL     1      -0.045   5.236   0.035  0.00  0.00    -0.264 N 
ATOM      4  C   UNL     1      -0.023   3.830   0.036  0.00  0.00    +0.078 A 
ATOM      5  C   UNL     1       1.185   3.154  -0.036  0.00  0.00    +0.027 A 
ATOM      6  C   UNL     1       1.201   1.772  -0.040  0.00  0.00    +0.002 A 
ATOM      7  C   UNL     1       0.015   1.065   0.026  0.00  0.00    +0.004 A 
ATOM      8  C   UNL     1      -1.193   1.734   0.094  0.00  0.00    +0.047 A 
ATOM      9  C   UNL     1      -1.218   3.121   0.106  0.00  0.00    +0.143 A 
ATOM     10  O   UNL     1      -2.409   3.771   0.183  0.00  0.00    -0.476 OA
ATOM     11  C   UNL     1       1.046   5.950  -0.305  0.00  0.00    +0.230 C 
ATOM     12  O   UNL     1       2.092   5.384  -0.543  0.00  0.00    -0.274 OA
ENDROOT
BRANCH   1  15
ATOM     13  C   UNL     1      -5.357   7.597   0.156  0.00  0.00    +0.128 C 
ATOM     14  N   UNL     1      -4.077   7.000  -0.234  0.00  0.00    -0.315 N 
ATOM     15  C   UNL     1      -3.771   5.747   0.155  0.00  0.00    +0.255 C 
ATOM     16  O   UNL     1      -4.555   5.113   0.829  0.00  0.00    -0.272 OA
ATOM     17  H   UNL     1      -3.365   7.576  -0.846  0.00  0.00    +0.148 HD
ENDBRANCH   1  15
BRANCH  11  18
ATOM     18  C   UNL     1       0.967   7.453  -0.389  0.00  0.00    +0.173 C 
BRANCH  18  19
ATOM     19  S   UNL     1       2.539   8.106  -1.003  0.00  0.00    -0.084 S 
BRANCH  19  20
ATOM     20  C   UNL     1       2.175   9.830  -1.001  0.00  0.00    +0.126 C 
ATOM     21  N   UNL     1       1.003  10.249  -0.611  0.00  0.00    -0.361 N 
ATOM     22  N   UNL     1       3.127  10.735  -1.412  0.00  0.00    -0.339 N 
ATOM     23  H   UNL     1       2.900  11.811  -1.410  0.00  0.00    +0.144 HD
ATOM     24  H   UNL     1       4.115  10.382  -1.741  0.00  0.00    +0.144 HD
ATOM     25  H   UNL     1       0.279   9.539  -0.186  0.00  0.00    +0.162 HD
BRANCH  21  26
ATOM     26  C   UNL     1       0.652  11.666  -0.738  0.00  0.00    +0.189 C 
BRANCH  26  27
ATOM     27  C   UNL     1      -0.505  11.812  -1.693  0.00  0.00    +0.124 A 
ATOM     28  C   UNL     1      -1.808  11.785  -1.360  0.00  0.00    +0.046 A 
ATOM     29  C   UNL     1      -2.540  11.962  -2.557  0.00  0.00    +0.041 A 
ATOM     30  C   UNL     1      -1.641  12.078  -3.550  0.00  0.00    +0.195 A 
ATOM     31  O   UNL     1      -0.410  11.987  -3.021  0.00  0.00    -0.466 OA
ENDBRANCH  26  27
ENDBRANCH  21  26
ENDBRANCH  19  20
ENDBRANCH  18  19
ENDBRANCH  11  18
TORSDOF 6
