REMARK  Name = ZINC39521245
REMARK  5 active torsions:
REMARK  status: ('A' for Active; 'I' for Inactive)
REMARK    1  A    between atoms: C_1  and  O_2
REMARK    2  A    between atoms: O_2  and  C_3
REMARK    3  A    between atoms: N_9  and  C_10
REMARK    4  A    between atoms: C_15  and  O_16
REMARK    5  A    between atoms: C_20  and  O_23
REMARK                            x       y       z     vdW  Elec       q    Type
REMARK                         _______ _______ _______ _____ _____    ______ ____
ROOT
ATOM      1  C   UNL     1       0.793  -0.238  -1.368  0.00  0.00    +0.206 C 
ATOM      2  C   UNL     1       1.006  -1.661  -0.843  0.00  0.00    +0.052 C 
ATOM      3  C   UNL     1       1.212  -2.612  -2.024  0.00  0.00    +0.006 C 
ATOM      4  C   UNL     1      -0.037  -2.606  -2.909  0.00  0.00    +0.026 C 
ATOM      5  C   UNL     1      -0.265  -1.194  -3.455  0.00  0.00    +0.040 C 
ATOM      6  N   UNL     1      -0.315  -0.248  -2.332  0.00  0.00    -0.296 N 
ATOM      7  C   UNL     1      -1.586  -1.147  -4.223  0.00  0.00    +0.026 C 
ATOM      8  C   UNL     1      -1.811   0.268  -4.762  0.00  0.00    +0.005 C 
ATOM      9  C   UNL     1      -0.661   0.647  -5.696  0.00  0.00    +0.031 C 
ATOM     10  C   UNL     1       0.660   0.601  -4.925  0.00  0.00    +0.117 C 
ATOM     11  C   UNL     1       0.886  -0.814  -4.386  0.00  0.00    +0.057 C 
ENDROOT
BRANCH   6  12
ATOM     12  C   UNL     1      -1.400   0.623  -2.182  0.00  0.00    +0.074 A 
ATOM     13  C   UNL     1      -1.256   1.970  -2.482  0.00  0.00    +0.027 A 
ATOM     14  C   UNL     1      -2.329   2.829  -2.333  0.00  0.00    +0.002 A 
ATOM     15  C   UNL     1      -3.546   2.349  -1.885  0.00  0.00    +0.004 A 
ATOM     16  C   UNL     1      -3.696   1.008  -1.585  0.00  0.00    +0.047 A 
ATOM     17  C   UNL     1      -2.628   0.140  -1.736  0.00  0.00    +0.138 A 
BRANCH  17  18
ATOM     18  O   UNL     1      -2.776  -1.181  -1.446  0.00  0.00    -0.505 OA
ATOM     19  H   UNL     1      -2.578  -1.406  -0.527  0.00  0.00    +0.292 HD
ENDBRANCH  17  18
ENDBRANCH   6  12
BRANCH   1  21
ATOM     20  C   UNL     1       0.876   1.987  -0.481  0.00  0.00    +0.196 C 
ATOM     21  O   UNL     1       0.473   0.631  -0.280  0.00  0.00    -0.362 OA
ENDBRANCH   1  21
BRANCH  10  22
ATOM     22  O   UNL     1       1.734   0.956  -5.798  0.00  0.00    -0.392 OA
ATOM     23  H   UNL     1       1.656   1.842  -6.177  0.00  0.00    +0.210 HD
ENDBRANCH  10  22
TORSDOF 4
