REMARK  Name = ZINC39669013
REMARK  7 active torsions:
REMARK  status: ('A' for Active; 'I' for Inactive)
REMARK    1  A    between atoms: C_1  and  C_2
REMARK    2  A    between atoms: C_2  and  C_4
REMARK    3  A    between atoms: C_2  and  O_32
REMARK    4  A    between atoms: C_8  and  C_17
REMARK    5  A    between atoms: N_19  and  C_20
REMARK    6  A    between atoms: C_20  and  C_21
REMARK    7  A    between atoms: O_32  and  C_33
REMARK                            x       y       z     vdW  Elec       q    Type
REMARK                         _______ _______ _______ _____ _____    ______ ____
ROOT
ATOM      1  C   UNL     1      -1.338  -0.406   0.070  0.00  0.00    +0.256 C 
ATOM      2  O   UNL     1      -1.717  -0.847   1.134  0.00  0.00    -0.272 OA
ATOM      3  N   UNL     1      -2.232  -0.106  -0.893  0.00  0.00    -0.297 N 
ATOM      4  C   UNL     1      -1.964   0.432  -2.247  0.00  0.00    +0.121 C 
ATOM      5  C   UNL     1      -2.960  -0.309  -3.166  0.00  0.00    +0.100 C 
ATOM      6  C   UNL     1      -4.103  -0.746  -2.235  0.00  0.00    -0.004 C 
ATOM      7  C   UNL     1      -3.707  -0.246  -0.838  0.00  0.00    +0.115 C 
ATOM      8  C   UNL     1      -4.228  -2.267  -2.228  0.00  0.00    -0.010 C 
ATOM      9  C   UNL     1      -5.407  -2.674  -1.340  0.00  0.00    -0.082 C 
ATOM     10  N   UNL     1      -6.640  -2.064  -1.851  0.00  0.00    +0.379 N 
ATOM     11  C   UNL     1      -6.548  -0.601  -1.767  0.00  0.00    -0.082 C 
ATOM     12  C   UNL     1      -5.417  -0.106  -2.673  0.00  0.00    -0.010 C 
ATOM     13  H   UNL     1      -6.775  -2.336  -2.813  0.00  0.00    -0.086 HD
ATOM     14  H   UNL     1      -7.424  -2.382  -1.301  0.00  0.00    -0.086 HD
ENDROOT
BRANCH   5  15
ATOM     15  C   UNL     1      -3.477   0.618  -4.236  0.00  0.00    +0.218 C 
ATOM     16  O   UNL     1      -3.582   1.805  -4.010  0.00  0.00    -0.275 OA
ATOM     17  N   UNL     1      -3.823   0.129  -5.443  0.00  0.00    -0.312 N 
ATOM     18  H   UNL     1      -3.740  -0.821  -5.623  0.00  0.00    +0.149 HD
BRANCH  17  19
ATOM     19  C   UNL     1      -4.326   1.030  -6.482  0.00  0.00    +0.140 C 
BRANCH  19  20
ATOM     20  C   UNL     1      -4.643   0.227  -7.745  0.00  0.00    +0.165 C 
ATOM     21  C   UNL     1      -5.035   1.171  -8.852  0.00  0.00    -0.014 A 
ATOM     22  C   UNL     1      -4.293   2.327  -9.035  0.00  0.00    +0.006 A 
ATOM     23  C   UNL     1      -4.620   3.213 -10.042  0.00  0.00    +0.000 A 
ATOM     24  C   UNL     1      -5.692   2.946 -10.873  0.00  0.00    +0.000 A 
ATOM     25  C   UNL     1      -6.433   1.795 -10.691  0.00  0.00    +0.004 A 
ATOM     26  C   UNL     1      -6.107   0.907  -9.678  0.00  0.00    -0.040 A 
ATOM     27  C   UNL     1      -6.947  -0.332  -9.502  0.00  0.00    +0.063 C 
ATOM     28  C   UNL     1      -6.194  -1.349  -8.642  0.00  0.00    +0.165 C 
ATOM     29  O   UNL     1      -5.711  -0.680  -7.472  0.00  0.00    -0.370 OA
ENDBRANCH  19  20
ENDBRANCH  17  19
ENDBRANCH   5  15
BRANCH   1  31
ATOM     30  C   UNL     1       0.410   1.303  -0.350  0.00  0.00    +0.062 C 
ATOM     31  C   UNL     1       0.134  -0.192  -0.176  0.00  0.00    +0.256 C 
BRANCH  31  32
ATOM     32  O   UNL     1       0.880  -0.688   0.937  0.00  0.00    -0.480 OA
BRANCH  32  33
ATOM     33  C   UNL     1       2.165  -1.062   0.701  0.00  0.00    +0.122 A 
ATOM     34  C   UNL     1       2.911  -1.658   1.707  0.00  0.00    +0.045 A 
ATOM     35  C   UNL     1       4.217  -2.037   1.465  0.00  0.00    +0.004 A 
ATOM     36  C   UNL     1       4.781  -1.823   0.221  0.00  0.00    +0.000 A 
ATOM     37  C   UNL     1       4.039  -1.229  -0.784  0.00  0.00    +0.004 A 
ATOM     38  C   UNL     1       2.731  -0.853  -0.548  0.00  0.00    +0.045 A 
ENDBRANCH  32  33
ENDBRANCH  31  32
ENDBRANCH   1  31
TORSDOF 6
