REMARK  Name = ZINC57766148
REMARK  5 active torsions:
REMARK  status: ('A' for Active; 'I' for Inactive)
REMARK    1  A    between atoms: C_1  and  C_2
REMARK    2  A    between atoms: C_2  and  C_3
REMARK    3  A    between atoms: N_9  and  C_14
REMARK    4  A    between atoms: C_14  and  C_15
REMARK    5  A    between atoms: C_19  and  C_21
REMARK                            x       y       z     vdW  Elec       q    Type
REMARK                         _______ _______ _______ _____ _____    ______ ____
ROOT
ATOM      1  C   UNL     1       0.707  -0.490  -1.238  0.00  0.00    -0.046 A 
ATOM      2  C   UNL     1      -0.013  -0.718  -2.396  0.00  0.00    +0.007 A 
ATOM      3  C   UNL     1       0.627  -1.163  -3.538  0.00  0.00    +0.048 A 
ATOM      4  C   UNL     1       1.994  -1.382  -3.522  0.00  0.00    +0.143 A 
ATOM      5  C   UNL     1       2.720  -1.153  -2.355  0.00  0.00    +0.079 A 
ATOM      6  C   UNL     1       2.074  -0.702  -1.216  0.00  0.00    +0.030 A 
ATOM      7  N   UNL     1       4.103  -1.381  -2.351  0.00  0.00    -0.261 N 
ATOM      8  C   UNL     1       4.748  -1.508  -3.531  0.00  0.00    +0.258 C 
ATOM      9  O   UNL     1       5.939  -1.737  -3.553  0.00  0.00    -0.271 OA
ATOM     10  C   UNL     1       3.982  -1.364  -4.822  0.00  0.00    +0.325 C 
ATOM     11  O   UNL     1       2.639  -1.819  -4.636  0.00  0.00    -0.481 OA
ENDROOT
BRANCH   1  13
ATOM     12  C   UNL     1      -0.019   1.526   0.010  0.00  0.00    +0.009 C 
ATOM     13  C   UNL     1       0.002  -0.004   0.002  0.00  0.00    +0.032 C 
ENDBRANCH   1  13
BRANCH   7  14
ATOM     14  C   UNL     1       4.838  -1.480  -1.088  0.00  0.00    +0.149 C 
BRANCH  14  15
ATOM     15  C   UNL     1       4.858  -2.915  -0.629  0.00  0.00    -0.029 A 
ATOM     16  C   UNL     1       3.845  -3.395   0.182  0.00  0.00    +0.005 A 
ATOM     17  C   UNL     1       3.856  -4.712   0.608  0.00  0.00    +0.001 A 
ATOM     18  C   UNL     1       4.878  -5.555   0.226  0.00  0.00    +0.015 A 
ATOM     19  C   UNL     1       5.904  -5.077  -0.593  0.00  0.00    +0.063 A 
ATOM     20  C   UNL     1       5.883  -3.748  -1.024  0.00  0.00    +0.020 A 
BRANCH  19  21
ATOM     21  C   UNL     1       7.001  -5.973  -1.007  0.00  0.00    +0.387 C 
ATOM     22  O   UNL     1       7.014  -7.138  -0.632  0.00  0.00    -0.241 OA
ATOM     23  O   UNL     1       7.898  -5.552  -1.724  0.00  0.00    -0.241 OA
ENDBRANCH  19  21
ENDBRANCH  14  15
ENDBRANCH   7  14
TORSDOF 4
