REMARK  Name = ZINC66246527
REMARK  9 active torsions:
REMARK  status: ('A' for Active; 'I' for Inactive)
REMARK    1  A    between atoms: C_1  and  C_2
REMARK    2  A    between atoms: C_2  and  C_3
REMARK    3  A    between atoms: C_2  and  C_4
REMARK    4  A    between atoms: C_2  and  C_13
REMARK    5  A    between atoms: C_4  and  N_5
REMARK    6  A    between atoms: N_7  and  C_8
REMARK    7  A    between atoms: C_8  and  C_9
REMARK    8  A    between atoms: C_9  and  O_10
REMARK    9  A    between atoms: O_10  and  C_11
REMARK                            x       y       z     vdW  Elec       q    Type
REMARK                         _______ _______ _______ _____ _____    ______ ____
ROOT
ATOM      1  N   UNL     1      -2.119  -0.061   1.218  0.00  0.00    -0.357 N 
ATOM      2  C   UNL     1      -3.429  -0.412   1.446  0.00  0.00    +0.169 C 
ATOM      3  N   UNL     1      -4.039   0.008   2.519  0.00  0.00    -0.356 N 
ATOM      4  N   UNL     1      -4.095  -1.207   0.543  0.00  0.00    -0.371 N 
ATOM      5  H   UNL     1      -1.649   0.499   1.855  0.00  0.00    +0.162 HD
ATOM      6  H   UNL     1      -3.640  -1.520  -0.255  0.00  0.00    +0.159 HD
ATOM      7  H   UNL     1      -5.018  -1.455   0.705  0.00  0.00    +0.159 HD
ATOM      8  H   UNL     1      -4.963  -0.240   2.680  0.00  0.00    +0.162 HD
ENDROOT
BRANCH   1   9
ATOM      9  C   UNL     1      -1.433  -0.534   0.013  0.00  0.00    +0.126 C 
BRANCH   9  11
ATOM     10  C   UNL     1      -0.019   1.526   0.010  0.00  0.00    +0.017 C 
ATOM     11  C   UNL     1       0.002  -0.004   0.002  0.00  0.00    +0.008 C 
ATOM     12  C   UNL     1       0.742  -0.511   1.242  0.00  0.00    +0.017 C 
BRANCH  11  13
ATOM     13  C   UNL     1       0.707  -0.490  -1.238  0.00  0.00    -0.039 A 
ATOM     14  C   UNL     1       0.036  -1.284  -2.149  0.00  0.00    +0.004 A 
ATOM     15  C   UNL     1       0.682  -1.730  -3.286  0.00  0.00    +0.001 A 
ATOM     16  C   UNL     1       2.001  -1.383  -3.513  0.00  0.00    +0.015 A 
ATOM     17  C   UNL     1       2.673  -0.588  -2.603  0.00  0.00    +0.018 A 
ATOM     18  C   UNL     1       2.024  -0.137  -1.467  0.00  0.00    +0.019 A 
ATOM     19 BR   UNL     1       4.476  -0.112  -2.913  0.00  0.00    -0.050 Br
ENDBRANCH  11  13
ENDBRANCH   9  11
ENDBRANCH   1   9
BRANCH   3  20
ATOM     20  C   UNL     1      -3.329   0.855   3.481  0.00  0.00    +0.143 C 
BRANCH  20  21
ATOM     21  C   UNL     1      -4.265   1.205   4.639  0.00  0.00    +0.180 C 
BRANCH  21  22
ATOM     22  O   UNL     1      -4.600   0.016   5.357  0.00  0.00    -0.381 OA
ATOM     23  C   UNL     1      -5.475   0.234   6.466  0.00  0.00    +0.194 C 
ENDBRANCH  21  22
ENDBRANCH  20  21
ENDBRANCH   3  20
TORSDOF 6
