REMARK  Name = ZINC66319112
REMARK  6 active torsions:
REMARK  status: ('A' for Active; 'I' for Inactive)
REMARK    1  A    between atoms: C_1  and  C_2
REMARK    2  A    between atoms: C_5  and  C_9
REMARK    3  A    between atoms: C_6  and  O_8
REMARK    4  A    between atoms: N_11  and  N_12
REMARK    5  A    between atoms: C_13  and  C_15
REMARK    6  A    between atoms: C_18  and  C_20
REMARK                            x       y       z     vdW  Elec       q    Type
REMARK                         _______ _______ _______ _____ _____    ______ ____
ROOT
ATOM      1  C   UNL     1       0.060  -4.252  -0.036  0.00  0.00    +0.264 C 
ATOM      2  O   UNL     1       0.074  -4.870   1.011  0.00  0.00    -0.269 OA
ATOM      3  N   UNL     1       0.064  -4.915  -1.209  0.00  0.00    -0.230 N 
ATOM      4  H   UNL     1       0.053  -4.423  -2.045  0.00  0.00    +0.173 HD
ENDROOT
BRANCH   1   9
ATOM      5  C   UNL     1      -0.018   1.503   0.010  0.00  0.00    +0.044 C 
ATOM      6  C   UNL     1       0.002  -0.004   0.002  0.00  0.00    -0.047 A 
ATOM      7  C   UNL     1       0.006  -0.686  -1.204  0.00  0.00    +0.004 A 
ATOM      8  C   UNL     1       0.025  -2.064  -1.224  0.00  0.00    +0.017 A 
ATOM      9  C   UNL     1       0.041  -2.777  -0.022  0.00  0.00    +0.079 A 
ATOM     10  C   UNL     1       0.037  -2.084   1.195  0.00  0.00    +0.129 A 
ATOM     11  C   UNL     1       0.023  -0.697   1.196  0.00  0.00    +0.049 A 
BRANCH  10  12
ATOM     12  O   UNL     1       0.052  -2.766   2.368  0.00  0.00    -0.506 OA
ATOM     13  H   UNL     1       0.940  -2.951   2.704  0.00  0.00    +0.292 HD
ENDBRANCH  10  12
ENDBRANCH   1   9
BRANCH   3  14
ATOM     14  N   UNL     1       0.083  -6.316  -1.222  0.00  0.00    -0.234 N 
ATOM     15  C   UNL     1       0.086  -6.979  -2.396  0.00  0.00    +0.233 C 
ATOM     16  O   UNL     1       0.072  -6.364  -3.440  0.00  0.00    -0.274 OA
ATOM     17  H   UNL     1       0.093  -6.809  -0.387  0.00  0.00    +0.173 HD
BRANCH  15  18
ATOM     18  C   UNL     1       0.106  -8.486  -2.409  0.00  0.00    +0.084 C 
ATOM     19  C   UNL     1      -1.152  -9.205  -2.901  0.00  0.00    +0.022 C 
ATOM     20  C   UNL     1       0.107  -9.180  -3.773  0.00  0.00    +0.032 C 
BRANCH  20  21
ATOM     21  C   UNL     1       0.890 -10.461  -3.901  0.00  0.00    -0.044 A 
ATOM     22  C   UNL     1       0.566 -11.551  -3.114  0.00  0.00    +0.004 A 
ATOM     23  C   UNL     1       1.285 -12.726  -3.232  0.00  0.00    +0.000 A 
ATOM     24  C   UNL     1       2.326 -12.812  -4.137  0.00  0.00    +0.000 A 
ATOM     25  C   UNL     1       2.648 -11.723  -4.925  0.00  0.00    +0.000 A 
ATOM     26  C   UNL     1       1.927 -10.549  -4.810  0.00  0.00    +0.004 A 
ENDBRANCH  20  21
ENDBRANCH  15  18
ENDBRANCH   3  14
TORSDOF 5
