REMARK  Name = ZINC42196739
REMARK  3 active torsions:
REMARK  status: ('A' for Active; 'I' for Inactive)
REMARK    1  A    between atoms: C_6  and  N_7
REMARK    2  A    between atoms: C_9  and  S_11
REMARK    3  A    between atoms: S_11  and  C_13
REMARK                            x       y       z     vdW  Elec       q    Type
REMARK                         _______ _______ _______ _____ _____    ______ ____
ROOT
ATOM      1  C   UNL     1      -0.017   1.389   0.010  0.00  0.00    +0.026 A 
ATOM      2  C   UNL     1       1.163   2.102   0.002  0.00  0.00    +0.050 A 
ATOM      3  C   UNL     1       2.377   1.433  -0.013  0.00  0.00    +0.156 A 
ATOM      4  C   UNL     1       2.404   0.030  -0.021  0.00  0.00    +0.112 A 
ATOM      5  C   UNL     1       1.206  -0.685  -0.013  0.00  0.00    +0.054 A 
ATOM      6  C   UNL     1       0.002  -0.004   0.002  0.00  0.00    +0.027 A 
ATOM      7  N   UNL     1       3.716  -0.331  -0.035  0.00  0.00    -0.201 NA
ATOM      8  C   UNL     1       4.447   0.743  -0.036  0.00  0.00    +0.297 A 
ATOM      9  O   UNL     1       3.668   1.836  -0.023  0.00  0.00    -0.429 OA
ENDROOT
BRANCH   6  10
ATOM     10  N   UNL     1      -1.201  -0.717   0.010  0.00  0.00    -0.358 N 
ATOM     11  H   UNL     1      -2.047  -0.242   0.021  0.00  0.00    +0.142 HD
ATOM     12  H   UNL     1      -1.190  -1.687   0.005  0.00  0.00    +0.142 HD
ENDBRANCH   6  10
BRANCH   8  13
ATOM     13  S   UNL     1       6.208   0.762  -0.053  0.00  0.00    +0.213 S 
ATOM     14  O   UNL     1       6.571  -0.491   0.510  0.00  0.00    -0.239 OA
BRANCH  13  15
ATOM     15  C   UNL     1       6.630   0.776  -1.818  0.00  0.00    +0.481 C 
ATOM     16  F   UNL     1       6.085   1.916  -2.418  0.00  0.00    -0.158 F 
ATOM     17  F   UNL     1       8.021   0.792  -1.965  0.00  0.00    -0.158 F 
ATOM     18  F   UNL     1       6.109  -0.368  -2.431  0.00  0.00    -0.158 F 
ENDBRANCH  13  15
ENDBRANCH   8  13
TORSDOF 3
