REMARK  Name = ZINC27376335
REMARK  6 active torsions:
REMARK  status: ('A' for Active; 'I' for Inactive)
REMARK    1  A    between atoms: C_7  and  C_9
REMARK    2  A    between atoms: C_9  and  N_10
REMARK    3  A    between atoms: N_13  and  C_16
REMARK    4  A    between atoms: C_16  and  C_17
REMARK    5  A    between atoms: N_19  and  C_20
REMARK    6  A    between atoms: C_21  and  C_29
REMARK                            x       y       z     vdW  Elec       q    Type
REMARK                         _______ _______ _______ _____ _____    ______ ____
ROOT
ATOM      1  C   UNL     1      -0.723   1.951   1.250  0.00  0.00    +0.232 C 
ATOM      2  O   UNL     1      -1.166   1.152   2.048  0.00  0.00    -0.274 OA
ATOM      3  N   UNL     1      -0.862   3.273   1.472  0.00  0.00    -0.278 N 
ATOM      4  H   UNL     1      -0.461   3.997   0.748  0.00  0.00    +0.155 HD
ENDROOT
BRANCH   3   5
ATOM      5  C   UNL     1      -1.511   3.720   2.612  0.00  0.00    +0.084 A 
ATOM      6  C   UNL     1      -1.746   5.027   3.015  0.00  0.00    +0.068 A 
ATOM      7  C   UNL     1      -2.460   5.228   4.264  0.00  0.00    -0.023 A 
ATOM      8  C   UNL     1      -2.814   4.097   4.912  0.00  0.00    -0.004 A 
ATOM      9  S   UNL     1      -2.220   2.782   3.886  0.00  0.00    -0.077 S 
ATOM     10  C   UNL     1      -3.547   3.993   6.214  0.00  0.00    +0.043 C 
ATOM     11  C   UNL     1      -3.514   5.368   6.898  0.00  0.00    +0.005 C 
ATOM     12  C   UNL     1      -3.909   6.437   5.876  0.00  0.00    +0.005 C 
ATOM     13  C   UNL     1      -2.799   6.599   4.836  0.00  0.00    +0.037 C 
BRANCH   6  14
ATOM     14  C   UNL     1      -1.293   6.164   2.207  0.00  0.00    +0.244 C 
ATOM     15  O   UNL     1      -2.022   6.632   1.352  0.00  0.00    -0.270 OA
ATOM     16  N   UNL     1      -0.069   6.691   2.411  0.00  0.00    -0.325 N 
ATOM     17  H   UNL     1       0.270   7.544   1.805  0.00  0.00    +0.145 HD
ATOM     18  H   UNL     1       0.590   6.268   3.184  0.00  0.00    +0.145 HD
ENDBRANCH   6  14
ENDBRANCH   3   5
BRANCH   1  19
ATOM     19  C   UNL     1      -0.018   1.465   0.010  0.00  0.00    +0.180 C 
BRANCH  19  23
ATOM     20  N   UNL     1       1.225  -2.568  -0.193  0.00  0.00    +0.387 N 
ATOM     21  C   UNL     1       0.397  -2.046  -1.289  0.00  0.00    -0.063 C 
ATOM     22  C   UNL     1       0.466  -0.517  -1.294  0.00  0.00    +0.066 C 
ATOM     23  N   UNL     1       0.002  -0.004   0.002  0.00  0.00    -0.298 NA
ATOM     24  C   UNL     1       0.830  -0.526   1.099  0.00  0.00    +0.066 C 
ATOM     25  C   UNL     1       0.761  -2.054   1.104  0.00  0.00    -0.063 C 
ATOM     26  H   UNL     1       2.255  -2.216  -0.348  0.00  0.00    -0.081 HD
BRANCH  20  27
ATOM     27  C   UNL     1       1.245  -4.037  -0.201  0.00  0.00    +0.019 C 
BRANCH  27  34
ATOM     28  C   UNL     1       3.600  -8.410   0.466  0.00  0.00    +0.003 C 
ATOM     29  C   UNL     1       4.430  -7.311   1.133  0.00  0.00    +0.019 C 
ATOM     30  C   UNL     1       3.495  -6.350   1.874  0.00  0.00    +0.107 C 
ATOM     31  N   UNL     1       2.483  -5.854   0.931  0.00  0.00    -0.303 N 
ATOM     32  C   UNL     1       1.687  -6.827   0.173  0.00  0.00    +0.107 C 
ATOM     33  C   UNL     1       2.646  -7.783  -0.553  0.00  0.00    +0.019 C 
ATOM     34  C   UNL     1       2.286  -4.530   0.770  0.00  0.00    +0.199 C 
ATOM     35  O   UNL     1       2.947  -3.737   1.406  0.00  0.00    -0.278 OA
ENDBRANCH  27  34
ENDBRANCH  20  27
ENDBRANCH  19  23
ENDBRANCH   1  19
TORSDOF 6
