REMARK  Name = ZINC39661738
REMARK  7 active torsions:
REMARK  status: ('A' for Active; 'I' for Inactive)
REMARK    1  A    between atoms: C_3  and  O_34
REMARK    2  A    between atoms: C_4  and  O_33
REMARK    3  A    between atoms: C_6  and  C_7
REMARK    4  A    between atoms: C_7  and  C_8
REMARK    5  A    between atoms: C_8  and  N_9
REMARK    6  A    between atoms: C_10  and  C_12
REMARK    7  A    between atoms: C_23  and  C_25
REMARK                            x       y       z     vdW  Elec       q    Type
REMARK                         _______ _______ _______ _____ _____    ______ ____
ROOT
ATOM      1  C   UNL     1      -4.291  -3.213  -2.723  0.00  0.00    +0.100 C 
ATOM      2  C   UNL     1      -4.388  -4.592  -2.032  0.00  0.00    +0.121 C 
ATOM      3  N   UNL     1      -5.337  -5.364  -2.869  0.00  0.00    -0.296 N 
ATOM      4  C   UNL     1      -4.993  -4.984  -4.261  0.00  0.00    +0.115 C 
ATOM      5  C   UNL     1      -4.688  -3.475  -4.185  0.00  0.00    -0.004 C 
ATOM      6  C   UNL     1      -3.533  -3.124  -5.117  0.00  0.00    -0.010 C 
ATOM      7  C   UNL     1      -3.971  -3.337  -6.569  0.00  0.00    -0.082 C 
ATOM      8  N   UNL     1      -5.135  -2.491  -6.860  0.00  0.00    +0.379 N 
ATOM      9  C   UNL     1      -6.271  -2.898  -6.023  0.00  0.00    -0.082 C 
ATOM     10  C   UNL     1      -5.929  -2.666  -4.549  0.00  0.00    -0.010 C 
ATOM     11  C   UNL     1      -6.295  -6.218  -2.459  0.00  0.00    +0.247 C 
ATOM     12  O   UNL     1      -6.543  -6.330  -1.274  0.00  0.00    -0.270 OA
ATOM     13  H   UNL     1      -4.905  -1.528  -6.668  0.00  0.00    -0.086 HD
ATOM     14  H   UNL     1      -5.384  -2.587  -7.833  0.00  0.00    -0.086 HD
ENDROOT
BRANCH  11  15
ATOM     15  C   UNL     1      -7.045  -7.019  -3.449  0.00  0.00    +0.042 A 
ATOM     16  C   UNL     1      -6.514  -7.236  -4.721  0.00  0.00    +0.051 A 
ATOM     17  C   UNL     1      -7.220  -7.986  -5.643  0.00  0.00    +0.127 A 
ATOM     18  C   UNL     1      -8.453  -8.521  -5.307  0.00  0.00    +0.076 A 
ATOM     19  C   UNL     1      -8.985  -8.308  -4.046  0.00  0.00    +0.127 A 
ATOM     20  C   UNL     1      -8.285  -7.565  -3.114  0.00  0.00    +0.051 A 
ATOM     21  F   UNL     1     -10.187  -8.833  -3.724  0.00  0.00    -0.205 F 
ATOM     22  F   UNL     1      -6.707  -8.197  -6.875  0.00  0.00    -0.205 F 
ENDBRANCH  11  15
BRANCH   1  24
ATOM     23  N   UNL     1      -2.658  -1.359  -2.609  0.00  0.00    -0.315 N 
ATOM     24  C   UNL     1      -2.881  -2.687  -2.648  0.00  0.00    +0.218 C 
ATOM     25  O   UNL     1      -1.946  -3.460  -2.623  0.00  0.00    -0.275 OA
ATOM     26  H   UNL     1      -3.406  -0.741  -2.628  0.00  0.00    +0.149 HD
BRANCH  23  27
ATOM     27  C   UNL     1      -1.287  -0.847  -2.536  0.00  0.00    +0.109 C 
BRANCH  27  28
ATOM     28  C   UNL     1      -1.314   0.682  -2.503  0.00  0.00    +0.054 C 
BRANCH  28  34
ATOM     29  C   UNL     1       0.795   1.475  -3.591  0.00  0.00    +0.007 A 
ATOM     30  C   UNL     1       2.089   1.958  -3.527  0.00  0.00    +0.049 A 
ATOM     31  C   UNL     1       2.688   2.175  -2.297  0.00  0.00    +0.158 A 
ATOM     32  C   UNL     1       1.984   1.906  -1.127  0.00  0.00    +0.158 A 
ATOM     33  C   UNL     1       0.688   1.422  -1.197  0.00  0.00    +0.052 A 
ATOM     34  C   UNL     1       0.096   1.208  -2.428  0.00  0.00    -0.042 A 
BRANCH  32  35
ATOM     35  O   UNL     1       2.568   2.117   0.083  0.00  0.00    -0.503 OA
ATOM     36  H   UNL     1       2.428   3.005   0.438  0.00  0.00    +0.292 HD
ENDBRANCH  32  35
BRANCH  31  37
ATOM     37  O   UNL     1       3.961   2.649  -2.233  0.00  0.00    -0.503 OA
ATOM     38  H   UNL     1       4.020   3.614  -2.210  0.00  0.00    +0.292 HD
ENDBRANCH  31  37
ENDBRANCH  28  34
ENDBRANCH  27  28
ENDBRANCH  23  27
ENDBRANCH   1  24
TORSDOF 7
