REMARK  Name = ZINC51332423
REMARK  13 active torsions:
REMARK  status: ('A' for Active; 'I' for Inactive)
REMARK    1  A    between atoms: C_1  and  C_2
REMARK    2  A    between atoms: C_6  and  S_8
REMARK    3  A    between atoms: S_8  and  C_9
REMARK    4  A    between atoms: C_9  and  C_10
REMARK    5  A    between atoms: C_10  and  C_11
REMARK    6  A    between atoms: C_11  and  C_12
REMARK    7  A    between atoms: C_12  and  C_13
REMARK    8  A    between atoms: C_13  and  C_14
REMARK    9  A    between atoms: C_13  and  C_15
REMARK   10  A    between atoms: C_13  and  N_18
REMARK   11  A    between atoms: N_18  and  C_19
REMARK   12  A    between atoms: C_19  and  C_20
REMARK   13  A    between atoms: C_19  and  C_21
REMARK                            x       y       z     vdW  Elec       q    Type
REMARK                         _______ _______ _______ _____ _____    ______ ____
ROOT
ATOM      1  C   UNL     1       0.334  -8.984   4.257  0.00  0.00    +0.007 C 
ATOM      2  C   UNL     1      -0.687  -9.254   3.150  0.00  0.00    -0.001 C 
ENDROOT
BRANCH   1   3
ATOM      3  C   UNL     1       1.723  -8.986   3.672  0.00  0.00    +0.199 C 
ATOM      4  O   UNL     1       1.878  -8.831   2.480  0.00  0.00    -0.278 OA
ATOM      5  N   UNL     1       2.792  -9.160   4.474  0.00  0.00    -0.330 N 
ATOM      6  H   UNL     1       2.667  -9.284   5.428  0.00  0.00    +0.145 HD
ATOM      7  H   UNL     1       3.686  -9.161   4.098  0.00  0.00    +0.145 HD
ENDBRANCH   1   3
BRANCH   1   8
ATOM      8  N   UNL     1       0.233 -10.032   5.282  0.00  0.00    +0.390 N 
ATOM      9  H   UNL     1       0.984  -9.926   5.947  0.00  0.00    -0.084 HD
ATOM     10  H   UNL     1      -0.653  -9.952   5.759  0.00  0.00    -0.084 HD
BRANCH   8  11
ATOM     11  C   UNL     1       0.327 -11.352   4.644  0.00  0.00    -0.077 C 
ATOM     12  C   UNL     1       1.737 -11.547   4.082  0.00  0.00    -0.014 C 
ATOM     13  C   UNL     1       0.035 -12.441   5.678  0.00  0.00    -0.014 C 
ENDBRANCH   8  11
ENDBRANCH   1   8
BRANCH   1  14
ATOM     14  C   UNL     1       0.050  -7.621   4.892  0.00  0.00    -0.004 C 
BRANCH  14  15
ATOM     15  C   UNL     1       0.155  -6.530   3.825  0.00  0.00    -0.000 C 
BRANCH  15  16
ATOM     16  C   UNL     1      -0.130  -5.167   4.459  0.00  0.00    +0.011 C 
BRANCH  16  17
ATOM     17  C   UNL     1      -0.024  -4.076   3.392  0.00  0.00    +0.077 C 
BRANCH  17  18
ATOM     18  S   UNL     1      -0.361  -2.460   4.145  0.00  0.00    -0.086 S 
BRANCH  18  24
ATOM     19  C   UNL     1      -0.498   2.314   2.306  0.00  0.00    +0.066 C 
ATOM     20  C   UNL     1      -0.282   0.846   2.045  0.00  0.00    +0.043 A 
ATOM     21  C   UNL     1       0.036   0.399   0.772  0.00  0.00    +0.043 A 
ATOM     22  C   UNL     1       0.228  -0.959   0.575  0.00  0.00    +0.115 A 
ATOM     23  N   UNL     1       0.102  -1.784   1.601  0.00  0.00    -0.230 NA
ATOM     24  C   UNL     1      -0.203  -1.325   2.806  0.00  0.00    +0.188 A 
ATOM     25  N   UNL     1      -0.388  -0.031   3.029  0.00  0.00    -0.227 NA
ENDBRANCH  18  24
ENDBRANCH  17  18
ENDBRANCH  16  17
ENDBRANCH  15  16
ENDBRANCH  14  15
ENDBRANCH   1  14
TORSDOF 9
