REMARK  Name = ZINC36121624
REMARK  13 active torsions:
REMARK  status: ('A' for Active; 'I' for Inactive)
REMARK    1  A    between atoms: C_1  and  C_2
REMARK    2  A    between atoms: C_2  and  O_3
REMARK    3  A    between atoms: O_3  and  C_4
REMARK    4  A    between atoms: C_4  and  C_6
REMARK    5  A    between atoms: C_7  and  C_25
REMARK    6  A    between atoms: C_12  and  C_14
REMARK    7  A    between atoms: C_17  and  O_23
REMARK    8  A    between atoms: C_18  and  C_20
REMARK    9  A    between atoms: C_20  and  O_21
REMARK   10  A    between atoms: O_21  and  C_22
REMARK   11  A    between atoms: O_23  and  C_24
REMARK   12  A    between atoms: C_25  and  N_26
REMARK   13  A    between atoms: C_31  and  C_33
REMARK                            x       y       z     vdW  Elec       q    Type
REMARK                         _______ _______ _______ _____ _____    ______ ____
ROOT
ATOM      1  C   UNL     1      -2.700  -2.356   0.012  0.00  0.00    +0.076 C 
ATOM      2  C   UNL     1      -2.940  -3.667  -0.204  0.00  0.00    +0.008 C 
ATOM      3  N   UNL     1      -4.208  -4.125  -0.417  0.00  0.00    -0.274 N 
ATOM      4  C   UNL     1      -5.290  -3.336  -0.431  0.00  0.00    +0.304 C 
ATOM      5  O   UNL     1      -6.380  -3.837  -0.630  0.00  0.00    -0.252 OA
ATOM      6  N   UNL     1      -5.211  -2.006  -0.231  0.00  0.00    -0.288 N 
ATOM      7  C   UNL     1      -3.886  -1.413   0.015  0.00  0.00    +0.143 C 
ATOM      8  H   UNL     1      -4.333  -5.075  -0.568  0.00  0.00    +0.156 HD
ATOM      9  H   UNL     1      -6.008  -1.453  -0.245  0.00  0.00    +0.151 HD
ENDROOT
BRANCH   7  10
ATOM     10  C   UNL     1      -3.923  -0.718   1.352  0.00  0.00    -0.022 A 
ATOM     11  C   UNL     1      -4.450  -1.368   2.453  0.00  0.00    +0.009 A 
ATOM     12  C   UNL     1      -4.486  -0.734   3.680  0.00  0.00    +0.046 A 
ATOM     13  C   UNL     1      -3.993   0.557   3.806  0.00  0.00    +0.125 A 
ATOM     14  C   UNL     1      -3.465   1.207   2.700  0.00  0.00    +0.020 A 
ATOM     15  C   UNL     1      -3.426   0.566   1.477  0.00  0.00    +0.015 A 
BRANCH  13  16
ATOM     16  O   UNL     1      -4.028   1.184   5.012  0.00  0.00    -0.495 OA
ATOM     17  C   UNL     1      -4.586   0.454   6.106  0.00  0.00    +0.277 C 
ENDBRANCH  13  16
BRANCH  14  18
ATOM     18  C   UNL     1      -2.929   2.609   2.834  0.00  0.00    +0.198 C 
BRANCH  18  19
ATOM     19  O   UNL     1      -2.444   3.057   1.567  0.00  0.00    -0.378 OA
ATOM     20  C   UNL     1      -1.911   4.383   1.584  0.00  0.00    +0.194 C 
ENDBRANCH  18  19
ENDBRANCH  14  18
ENDBRANCH   7  10
BRANCH   1  21
ATOM     21  C   UNL     1      -1.386  -1.880   0.234  0.00  0.00    +0.339 C 
ATOM     22  O   UNL     1      -0.466  -2.667   0.354  0.00  0.00    -0.245 OA
BRANCH  21  23
ATOM     23  O   UNL     1      -1.154  -0.553   0.313  0.00  0.00    -0.462 OA
BRANCH  23  25
ATOM     24  C   UNL     1       0.263   1.384   0.598  0.00  0.00    +0.048 C 
ATOM     25  C   UNL     1       0.197  -0.143   0.539  0.00  0.00    +0.229 C 
ENDBRANCH  23  25
ENDBRANCH  21  23
ENDBRANCH   1  21
BRANCH   2  26
ATOM     26  C   UNL     1      -1.789  -4.640  -0.210  0.00  0.00    -0.026 C 
BRANCH  26  27
ATOM     27  N   UNL     1      -2.159  -5.831  -0.986  0.00  0.00    +0.388 N 
ATOM     28  C   UNL     1      -2.384  -5.450  -2.386  0.00  0.00    -0.077 C 
ATOM     29  C   UNL     1      -2.849  -6.672  -3.182  0.00  0.00    -0.019 C 
ATOM     30  C   UNL     1      -1.772  -7.758  -3.114  0.00  0.00    -0.003 C 
ATOM     31  C   UNL     1      -1.492  -8.095  -1.646  0.00  0.00    -0.011 C 
ATOM     32  C   UNL     1      -1.078  -6.821  -0.907  0.00  0.00    -0.037 C 
ATOM     33  H   UNL     1      -3.006  -6.228  -0.608  0.00  0.00    -0.080 HD
BRANCH  32  34
ATOM     34  C   UNL     1      -0.802  -7.147   0.538  0.00  0.00    -0.061 A 
ATOM     35  C   UNL     1      -1.850  -7.285   1.429  0.00  0.00    +0.002 A 
ATOM     36  C   UNL     1      -1.597  -7.584   2.754  0.00  0.00    +0.000 A 
ATOM     37  C   UNL     1      -0.294  -7.745   3.189  0.00  0.00    +0.000 A 
ATOM     38  C   UNL     1       0.754  -7.608   2.299  0.00  0.00    +0.000 A 
ATOM     39  C   UNL     1       0.500  -7.313   0.972  0.00  0.00    +0.002 A 
ENDBRANCH  32  34
ENDBRANCH  26  27
ENDBRANCH   2  26
TORSDOF 10
