REMARK  Name = ZINC64002240
REMARK  5 active torsions:
REMARK  status: ('A' for Active; 'I' for Inactive)
REMARK    1  A    between atoms: C_7  and  C_10
REMARK    2  A    between atoms: C_10  and  N_11
REMARK    3  A    between atoms: C_17  and  C_20
REMARK    4  A    between atoms: C_20  and  N_21
REMARK    5  A    between atoms: C_22  and  C_24
REMARK                            x       y       z     vdW  Elec       q    Type
REMARK                         _______ _______ _______ _____ _____    ______ ____
ROOT
ATOM      1  N   UNL     1       0.466  -3.635  -1.404  0.00  0.00    +0.382 N 
ATOM      2  C   UNL     1      -0.220  -2.577  -2.156  0.00  0.00    -0.076 C 
ATOM      3  C   UNL     1      -0.378  -3.005  -3.617  0.00  0.00    +0.016 C 
ATOM      4  C   UNL     1      -1.189  -4.299  -3.678  0.00  0.00    +0.067 C 
ATOM      5  C   UNL     1      -1.290  -4.782  -5.135  0.00  0.00    +0.037 C 
ATOM      6  C   UNL     1      -2.813  -4.838  -5.409  0.00  0.00    +0.036 C 
ATOM      7  C   UNL     1      -3.398  -4.917  -3.975  0.00  0.00    +0.136 C 
ATOM      8  O   UNL     1      -2.523  -4.063  -3.206  0.00  0.00    -0.369 OA
ATOM      9  C   UNL     1      -0.517  -5.374  -2.824  0.00  0.00    +0.016 C 
ATOM     10  C   UNL     1      -0.354  -4.852  -1.393  0.00  0.00    -0.076 C 
ATOM     11  H   UNL     1       1.354  -3.832  -1.841  0.00  0.00    -0.081 HD
ENDROOT
BRANCH   1  12
ATOM     12  C   UNL     1       0.691  -3.186  -0.024  0.00  0.00    -0.045 C 
BRANCH  12  19
ATOM     13  C   UNL     1      -0.016   1.348   0.009  0.00  0.00    +0.001 A 
ATOM     14  C   UNL     1       1.166   2.101   0.002  0.00  0.00    +0.002 A 
ATOM     15  C   UNL     1       2.391   1.535  -0.013  0.00  0.00    +0.026 A 
ATOM     16  C   UNL     1       2.529   0.120  -0.022  0.00  0.00    +0.043 A 
ATOM     17  N   UNL     1       3.587  -0.654  -0.037  0.00  0.00    -0.380 N 
ATOM     18  C   UNL     1       3.143  -2.053  -0.041  0.00  0.00    +0.142 C 
ATOM     19  C   UNL     1       1.631  -2.008  -0.025  0.00  0.00    -0.058 C 
ATOM     20  C   UNL     1       1.295  -0.698  -0.014  0.00  0.00    -0.003 A 
ATOM     21  C   UNL     1       0.002  -0.004   0.002  0.00  0.00    +0.010 A 
ATOM     22  H   UNL     1       4.509  -0.353  -0.045  0.00  0.00    +0.160 HD
ENDBRANCH  12  19
ENDBRANCH   1  12
BRANCH   7  23
ATOM     23  C   UNL     1      -4.833  -4.386  -3.949  0.00  0.00    +0.135 C 
BRANCH  23  24
ATOM     24  N   UNL     1      -5.361  -4.472  -2.585  0.00  0.00    -0.313 N 
ATOM     25  C   UNL     1      -6.616  -4.059  -2.320  0.00  0.00    +0.216 C 
ATOM     26  O   UNL     1      -7.308  -3.615  -3.212  0.00  0.00    -0.276 OA
ATOM     27  H   UNL     1      -4.807  -4.827  -1.872  0.00  0.00    +0.149 HD
BRANCH  25  28
ATOM     28  C   UNL     1      -7.158  -4.147  -0.917  0.00  0.00    +0.079 C 
ATOM     29  C   UNL     1      -7.156  -5.608  -0.458  0.00  0.00    +0.041 C 
ATOM     30  C   UNL     1      -7.782  -5.698   0.936  0.00  0.00    +0.160 C 
ATOM     31  O   UNL     1      -9.105  -5.160   0.899  0.00  0.00    -0.380 OA
ATOM     32  C   UNL     1      -9.165  -3.783   0.522  0.00  0.00    +0.160 C 
ATOM     33  C   UNL     1      -8.595  -3.616  -0.889  0.00  0.00    +0.041 C 
ENDBRANCH  25  28
ENDBRANCH  23  24
ENDBRANCH   7  23
TORSDOF 5
