REMARK  Name = ZINC34677891
REMARK  13 active torsions:
REMARK  status: ('A' for Active; 'I' for Inactive)
REMARK    1  A    between atoms: C_1  and  C_2
REMARK    2  A    between atoms: C_2  and  N_3
REMARK    3  A    between atoms: N_3  and  C_4
REMARK    4  A    between atoms: C_4  and  C_5
REMARK    5  A    between atoms: C_6  and  C_8
REMARK    6  A    between atoms: C_15  and  C_17
REMARK    7  A    between atoms: C_20  and  C_22
REMARK    8  A    between atoms: C_22  and  N_23
REMARK    9  A    between atoms: N_26  and  C_29
REMARK   10  A    between atoms: C_29  and  C_30
REMARK   11  A    between atoms: C_30  and  C_31
REMARK   12  A    between atoms: C_30  and  C_32
REMARK   13  A    between atoms: C_30  and  O_34
REMARK                            x       y       z     vdW  Elec       q    Type
REMARK                         _______ _______ _______ _____ _____    ______ ____
ROOT
ATOM      1  C   UNL     1       3.019   0.041   4.664  0.00  0.00    +0.164 A 
ATOM      2  C   UNL     1       4.169   0.394   5.300  0.00  0.00    +0.230 A 
ATOM      3  O   UNL     1       4.294  -0.417   6.363  0.00  0.00    -0.449 OA
ATOM      4  C   UNL     1       3.244  -1.250   6.380  0.00  0.00    +0.179 A 
ATOM      5  N   UNL     1       2.469  -0.984   5.371  0.00  0.00    -0.210 NA
ENDROOT
BRANCH   1  12
ATOM      6  C   UNL     1       0.282  -0.357   0.863  0.00  0.00    +0.092 C 
ATOM      7  C   UNL     1      -0.718  -1.213   1.645  0.00  0.00    +0.016 C 
ATOM      8  C   UNL     1      -0.044  -1.765   2.904  0.00  0.00    +0.020 C 
ATOM      9  C   UNL     1       0.396  -0.599   3.795  0.00  0.00    +0.108 C 
ATOM     10  N   UNL     1       1.242   0.306   3.006  0.00  0.00    -0.295 N 
ATOM     11  C   UNL     1       0.727   0.824   1.731  0.00  0.00    +0.121 C 
ATOM     12  C   UNL     1       2.468   0.656   3.443  0.00  0.00    +0.268 C 
ATOM     13  O   UNL     1       3.121   1.479   2.829  0.00  0.00    -0.268 OA
BRANCH   6  15
ATOM     14  N   UNL     1       0.382   0.487  -1.460  0.00  0.00    -0.302 N 
ATOM     15  C   UNL     1      -0.372   0.160  -0.392  0.00  0.00    +0.220 C 
ATOM     16  O   UNL     1      -1.578   0.281  -0.442  0.00  0.00    -0.275 OA
BRANCH  14  18
ATOM     17  C   UNL     1      -0.610  -0.351  -3.533  0.00  0.00    +0.024 C 
ATOM     18  C   UNL     1      -0.259   0.892  -2.713  0.00  0.00    +0.104 C 
ENDBRANCH  14  18
BRANCH  14  19
ATOM     19  C   UNL     1       1.843   0.436  -1.367  0.00  0.00    +0.104 C 
ATOM     20  C   UNL     1       2.390   1.849  -1.150  0.00  0.00    +0.024 C 
ENDBRANCH  14  19
ENDBRANCH   6  15
ENDBRANCH   1  12
BRANCH   4  21
ATOM     21  C   UNL     1       2.998  -2.322   7.410  0.00  0.00    +0.019 C 
BRANCH  21  22
ATOM     22  N   UNL     1       3.624  -3.576   6.971  0.00  0.00    +0.387 N 
ATOM     23  C   UNL     1       5.082  -3.405   6.926  0.00  0.00    -0.063 C 
ATOM     24  C   UNL     1       5.734  -4.705   6.450  0.00  0.00    +0.066 C 
ATOM     25  N   UNL     1       5.379  -5.794   7.372  0.00  0.00    -0.303 NA
ATOM     26  C   UNL     1       3.921  -5.960   7.446  0.00  0.00    +0.066 C 
ATOM     27  C   UNL     1       3.284  -4.650   7.913  0.00  0.00    -0.063 C 
ATOM     28  H   UNL     1       3.286  -3.817   6.051  0.00  0.00    -0.081 HD
BRANCH  25  29
ATOM     29  C   UNL     1       6.033  -7.050   6.980  0.00  0.00    +0.123 C 
BRANCH  29  30
ATOM     30  C   UNL     1       6.022  -8.021   8.162  0.00  0.00    +0.094 C 
ATOM     31  C   UNL     1       6.643  -7.343   9.385  0.00  0.00    +0.047 C 
BRANCH  30  32
ATOM     32  C   UNL     1       6.820  -9.250   7.810  0.00  0.00    +0.000 C 
ATOM     33  C   UNL     1       6.245 -10.427   7.812  0.00  0.00    +0.007 C 
ENDBRANCH  30  32
BRANCH  30  34
ATOM     34  O   UNL     1       4.675  -8.396   8.458  0.00  0.00    -0.384 OA
ATOM     35  H   UNL     1       4.219  -8.832   7.726  0.00  0.00    +0.211 HD
ENDBRANCH  30  34
ENDBRANCH  29  30
ENDBRANCH  25  29
ENDBRANCH  21  22
ENDBRANCH   4  21
TORSDOF 10
