REMARK  Name = ZINC44550526
REMARK  6 active torsions:
REMARK  status: ('A' for Active; 'I' for Inactive)
REMARK    1  A    between atoms: C_1  and  C_2
REMARK    2  A    between atoms: C_5  and  S_8
REMARK    3  A    between atoms: S_8  and  N_11
REMARK    4  A    between atoms: N_14  and  N_15
REMARK    5  A    between atoms: N_15  and  C_16
REMARK    6  A    between atoms: N_15  and  C_17
REMARK                            x       y       z     vdW  Elec       q    Type
REMARK                         _______ _______ _______ _____ _____    ______ ____
ROOT
ATOM      1  S   UNL     1       0.063  -4.530  -0.023  0.00  0.00    +0.079 S 
ATOM      2  O   UNL     1      -0.476  -4.950   1.223  0.00  0.00    -0.148 OA
ATOM      3  O   UNL     1      -0.490  -4.937  -1.267  0.00  0.00    -0.148 OA
ENDROOT
BRANCH   1   8
ATOM      4  C   UNL     1      -0.018   1.503   0.010  0.00  0.00    +0.044 C 
ATOM      5  C   UNL     1       0.002  -0.004   0.002  0.00  0.00    -0.050 A 
ATOM      6  C   UNL     1       0.006  -0.689  -1.199  0.00  0.00    +0.005 A 
ATOM      7  C   UNL     1       0.025  -2.071  -1.206  0.00  0.00    +0.029 A 
ATOM      8  C   UNL     1       0.040  -2.768  -0.013  0.00  0.00    +0.110 A 
ATOM      9  C   UNL     1       0.037  -2.084   1.188  0.00  0.00    +0.029 A 
ATOM     10  C   UNL     1       0.023  -0.702   1.195  0.00  0.00    +0.005 A 
ENDBRANCH   1   8
BRANCH   1  11
ATOM     11  N   UNL     1       1.651  -4.999  -0.034  0.00  0.00    -0.236 N 
ATOM     12  C   UNL     1       2.454  -4.719   1.035  0.00  0.00    +0.173 C 
ATOM     13  S   UNL     1       1.837  -3.909   2.346  0.00  0.00    -0.014 SA
ATOM     14  N   UNL     1       3.764  -5.106   1.026  0.00  0.00    -0.257 N 
ATOM     15  H   UNL     1       4.124  -5.580   0.260  0.00  0.00    +0.168 HD
ATOM     16  H   UNL     1       2.011  -5.473  -0.800  0.00  0.00    +0.190 HD
BRANCH  14  17
ATOM     17  N   UNL     1       4.566  -4.826   2.095  0.00  0.00    -0.234 NA
ATOM     18  C   UNL     1       5.100  -6.059   2.690  0.00  0.00    +0.127 C 
ATOM     19  C   UNL     1       5.652  -3.913   1.714  0.00  0.00    +0.127 C 
ENDBRANCH  14  17
ENDBRANCH   1  11
TORSDOF 3
