REMARK  Name = ZINC39617617
REMARK  11 active torsions:
REMARK  status: ('A' for Active; 'I' for Inactive)
REMARK    1  A    between atoms: C_1  and  C_2
REMARK    2  A    between atoms: C_4  and  C_35
REMARK    3  A    between atoms: C_8  and  C_12
REMARK    4  A    between atoms: C_12  and  S_13
REMARK    5  A    between atoms: S_13  and  C_14
REMARK    6  A    between atoms: C_14  and  C_16
REMARK    7  A    between atoms: C_14  and  C_17
REMARK    8  A    between atoms: C_17  and  O_19
REMARK    9  A    between atoms: O_19  and  C_20
REMARK   10  A    between atoms: C_20  and  C_21
REMARK   11  A    between atoms: C_21  and  C_23
REMARK                            x       y       z     vdW  Elec       q    Type
REMARK                         _______ _______ _______ _____ _____    ______ ____
ROOT
ATOM      1  C   UNL     1       8.299  -5.724  -1.707  0.00  0.00    +0.320 C 
ATOM      2  O   UNL     1       8.243  -5.261  -2.822  0.00  0.00    -0.250 OA
ENDROOT
BRANCH   1   3
ATOM      3  C   UNL     1       7.552  -5.063  -0.578  0.00  0.00    +0.152 C 
ATOM      4  C   UNL     1       8.490  -4.110   0.166  0.00  0.00    +0.031 C 
BRANCH   3   5
ATOM      5  S   UNL     1       6.148  -4.130  -1.246  0.00  0.00    -0.139 S 
BRANCH   5   6
ATOM      6  C   UNL     1       5.277  -3.531   0.228  0.00  0.00    +0.143 C 
BRANCH   6  13
ATOM      7  C   UNL     1      -0.019   1.526   0.010  0.00  0.00    +0.024 C 
ATOM      8  C   UNL     1       0.002  -0.004   0.002  0.00  0.00    +0.076 C 
ATOM      9  C   UNL     1       0.769  -0.528  -1.190  0.00  0.00    -0.045 C 
ATOM     10  C   UNL     1       1.868  -1.261  -0.953  0.00  0.00    +0.071 C 
ATOM     11  C   UNL     1       2.243  -1.498   0.457  0.00  0.00    +0.111 C 
ATOM     12  N   UNL     1       3.306  -2.207   0.754  0.00  0.00    -0.227 NA
ATOM     13  C   UNL     1       4.072  -2.729  -0.191  0.00  0.00    +0.133 C 
ATOM     14  N   UNL     1       3.837  -2.585  -1.473  0.00  0.00    -0.161 NA
ATOM     15  C   UNL     1       2.796  -1.891  -1.945  0.00  0.00    +0.271 C 
ATOM     16  O   UNL     1       2.607  -1.777  -3.144  0.00  0.00    -0.268 OA
ATOM     17  S   UNL     1       0.997  -0.657   1.404  0.00  0.00    -0.098 S 
ATOM     18  C   UNL     1       0.315  -0.239  -2.598  0.00  0.00    +0.041 C 
ENDBRANCH   6  13
ENDBRANCH   5   6
ENDBRANCH   3   5
ENDBRANCH   1   3
BRANCH   1  19
ATOM     19  O   UNL     1       9.027  -6.828  -1.475  0.00  0.00    -0.456 OA
BRANCH  19  20
ATOM     20  C   UNL     1       9.710  -7.401  -2.592  0.00  0.00    +0.311 C 
BRANCH  20  21
ATOM     21  C   UNL     1      10.469  -8.623  -2.143  0.00  0.00    +0.200 C 
ATOM     22  O   UNL     1      10.430  -8.969  -0.981  0.00  0.00    -0.288 OA
BRANCH  21  23
ATOM     23  C   UNL     1      11.256  -9.396  -3.113  0.00  0.00    +0.023 A 
ATOM     24  C   UNL     1      11.308  -8.995  -4.454  0.00  0.00    +0.015 A 
ATOM     25  C   UNL     1      12.046  -9.719  -5.363  0.00  0.00    +0.048 A 
ATOM     26  C   UNL     1      12.742 -10.848  -4.953  0.00  0.00    +0.142 A 
ATOM     27  C   UNL     1      12.696 -11.254  -3.617  0.00  0.00    +0.076 A 
ATOM     28  C   UNL     1      11.963 -10.532  -2.698  0.00  0.00    +0.038 A 
ATOM     29  N   UNL     1      13.406 -12.398  -3.224  0.00  0.00    -0.280 N 
ATOM     30  C   UNL     1      14.356 -12.893  -4.046  0.00  0.00    +0.255 C 
ATOM     31  O   UNL     1      14.963 -13.899  -3.741  0.00  0.00    -0.272 OA
ATOM     32  C   UNL     1      14.660 -12.191  -5.345  0.00  0.00    +0.325 C 
ATOM     33  O   UNL     1      13.474 -11.567  -5.843  0.00  0.00    -0.481 OA
ATOM     34  H   UNL     1      13.218 -12.827  -2.374  0.00  0.00    +0.155 HD
ENDBRANCH  21  23
ENDBRANCH  20  21
ENDBRANCH  19  20
ENDBRANCH   1  19
TORSDOF 8
