REMARK  Name = ZINC51144956
REMARK  6 active torsions:
REMARK  status: ('A' for Active; 'I' for Inactive)
REMARK    1  A    between atoms: C_1  and  C_2
REMARK    2  A    between atoms: C_3  and  C_10
REMARK    3  A    between atoms: C_4  and  N_8
REMARK    4  A    between atoms: N_5  and  C_7
REMARK    5  A    between atoms: N_8  and  N_9
REMARK    6  A    between atoms: C_10  and  N_11
REMARK                            x       y       z     vdW  Elec       q    Type
REMARK                         _______ _______ _______ _____ _____    ______ ____
ROOT
ATOM      1  C   UNL     1      -0.908   1.211   0.352  0.00  0.00    +0.068 C 
ATOM      2  C   UNL     1      -0.565  -0.251   0.219  0.00  0.00    +0.066 A 
ATOM      3  C   UNL     1      -0.165  -0.893  -0.956  0.00  0.00    +0.030 A 
ATOM      4  C   UNL     1       0.051  -2.205  -0.661  0.00  0.00    +0.135 A 
ATOM      5  N   UNL     1      -0.207  -2.374   0.656  0.00  0.00    -0.252 N 
ATOM      6  N   UNL     1      -0.585  -1.133   1.184  0.00  0.00    -0.175 NA
ATOM      7  C   UNL     1      -0.104  -3.632   1.400  0.00  0.00    +0.174 C 
ENDROOT
BRANCH   4   8
ATOM      8  N   UNL     1       0.461  -3.192  -1.552  0.00  0.00    -0.267 N 
ATOM      9  H   UNL     1       0.155  -3.172  -2.473  0.00  0.00    +0.167 HD
BRANCH   8  10
ATOM     10  N   UNL     1       1.294  -4.190  -1.131  0.00  0.00    -0.255 NA
ATOM     11  H   UNL     1       1.437  -4.873  -1.859  0.00  0.00    +0.140 HD
ATOM     12  H   UNL     1       2.174  -3.815  -0.810  0.00  0.00    +0.140 HD
ENDBRANCH   8  10
ENDBRANCH   4   8
BRANCH   3  13
ATOM     13  C   UNL     1      -0.001  -0.249  -2.309  0.00  0.00    +0.125 C 
BRANCH  13  14
ATOM     14  N   UNL     1       1.376   0.243  -2.453  0.00  0.00    -0.290 NA
ATOM     15  C   UNL     1       2.331  -0.880  -2.564  0.00  0.00    +0.113 C 
ATOM     16  C   UNL     1       3.758  -0.381  -2.778  0.00  0.00    +0.175 C 
ATOM     17  O   UNL     1       3.830   0.573  -3.852  0.00  0.00    -0.374 OA
ATOM     18  C   UNL     1       2.950   1.658  -3.621  0.00  0.00    +0.135 C 
ATOM     19  C   UNL     1       1.511   1.073  -3.641  0.00  0.00    +0.086 C 
ATOM     20  C   UNL     1       0.629   2.315  -3.722  0.00  0.00    +0.021 C 
ATOM     21  C   UNL     1       1.478   3.373  -4.470  0.00  0.00    +0.004 C 
ATOM     22  C   UNL     1       2.879   2.732  -4.711  0.00  0.00    +0.033 C 
ENDBRANCH  13  14
ENDBRANCH   3  13
TORSDOF 4
