REMARK  Name = ZINC04475094
REMARK  15 active torsions:
REMARK  status: ('A' for Active; 'I' for Inactive)
REMARK    1  A    between atoms: C_1  and  C_2
REMARK    2  A    between atoms: C_2  and  N_17
REMARK    3  A    between atoms: C_6  and  C_9
REMARK    4  A    between atoms: C_9  and  C_10
REMARK    5  A    between atoms: C_9  and  C_11
REMARK    6  A    between atoms: C_9  and  N_12
REMARK    7  A    between atoms: C_13  and  C_15
REMARK    8  A    between atoms: N_17  and  C_18
REMARK    9  A    between atoms: C_18  and  C_19
REMARK   10  A    between atoms: C_19  and  C_21
REMARK   11  A    between atoms: C_19  and  O_32
REMARK   12  A    between atoms: C_21  and  O_22
REMARK   13  A    between atoms: O_22  and  C_23
REMARK   14  A    between atoms: C_28  and  C_29
REMARK   15  A    between atoms: C_29  and  C_30
REMARK                            x       y       z     vdW  Elec       q    Type
REMARK                         _______ _______ _______ _____ _____    ______ ____
ROOT
ATOM      1  N   UNL     1      -1.376  -0.512   0.012  0.00  0.00    +0.384 N 
ATOM      2  H   UNL     1      -1.362  -1.521   0.007  0.00  0.00    -0.085 HD
ATOM      3  H   UNL     1      -1.848  -0.187   0.843  0.00  0.00    -0.085 HD
ENDROOT
BRANCH   1   5
ATOM      4  C   UNL     1      -0.019   1.526   0.010  0.00  0.00    -0.010 C 
ATOM      5  C   UNL     1       0.002  -0.004   0.002  0.00  0.00    -0.071 C 
ATOM      6  C   UNL     1       0.718  -0.497  -1.257  0.00  0.00    -0.013 C 
ATOM      7  C   UNL     1       2.154   0.032  -1.268  0.00  0.00    -0.001 C 
ATOM      8  C   UNL     1       2.894  -0.475  -0.028  0.00  0.00    +0.005 C 
ATOM      9  C   UNL     1       2.178   0.019   1.231  0.00  0.00    +0.011 C 
ATOM     10  C   UNL     1       0.742  -0.511   1.242  0.00  0.00    -0.007 C 
BRANCH   9  11
ATOM     11  C   UNL     1       2.917  -0.488   2.470  0.00  0.00    +0.032 C 
ATOM     12  C   UNL     1       2.134  -0.101   3.726  0.00  0.00    +0.031 C 
ATOM     13  C   UNL     1       3.047  -2.011   2.400  0.00  0.00    +0.031 C 
BRANCH  11  14
ATOM     14  N   UNL     1       4.252   0.114   2.522  0.00  0.00    -0.309 N 
ATOM     15  C   UNL     1       5.089  -0.189   3.535  0.00  0.00    +0.224 C 
ATOM     16  O   UNL     1       4.737  -0.960   4.402  0.00  0.00    -0.275 OA
ATOM     17  H   UNL     1       4.534   0.730   1.828  0.00  0.00    +0.149 HD
BRANCH  15  18
ATOM     18  C   UNL     1       6.462   0.430   3.588  0.00  0.00    +0.175 C 
ATOM     19 BR   UNL     1       7.412  -0.221   5.181  0.00  0.00    -0.082 Br
ENDBRANCH  15  18
ENDBRANCH  11  14
ENDBRANCH   9  11
ENDBRANCH   1   5
BRANCH   1  20
ATOM     20  C   UNL     1      -2.087  -0.026  -1.178  0.00  0.00    -0.047 C 
BRANCH  20  21
ATOM     21  C   UNL     1      -3.522  -0.555  -1.167  0.00  0.00    +0.135 C 
BRANCH  21  22
ATOM     22  O   UNL     1      -4.226  -0.001  -0.053  0.00  0.00    -0.390 OA
ATOM     23  H   UNL     1      -4.278   0.964  -0.062  0.00  0.00    +0.210 HD
ENDBRANCH  21  22
BRANCH  21  24
ATOM     24  C   UNL     1      -4.224  -0.153  -2.465  0.00  0.00    +0.258 C 
BRANCH  24  25
ATOM     25  O   UNL     1      -5.524  -0.745  -2.507  0.00  0.00    -0.489 OA
BRANCH  25  26
ATOM     26  C   UNL     1      -6.285  -0.485  -3.603  0.00  0.00    +0.124 A 
ATOM     27  C   UNL     1      -5.788   0.318  -4.620  0.00  0.00    +0.046 A 
ATOM     28  C   UNL     1      -6.564   0.580  -5.732  0.00  0.00    +0.004 A 
ATOM     29  C   UNL     1      -7.834   0.042  -5.834  0.00  0.00    +0.001 A 
ATOM     30  C   UNL     1      -8.331  -0.758  -4.822  0.00  0.00    +0.007 A 
ATOM     31  C   UNL     1      -7.557  -1.028  -3.709  0.00  0.00    -0.002 A 
BRANCH  31  32
ATOM     32  C   UNL     1      -8.098  -1.905  -2.610  0.00  0.00    +0.065 C 
BRANCH  32  33
ATOM     33  C   UNL     1      -8.711  -1.044  -1.536  0.00  0.00    -0.030 C 
ATOM     34  C   UNL     1      -9.952  -1.244  -1.165  0.00  0.00    +0.004 C 
ENDBRANCH  32  33
ENDBRANCH  31  32
ENDBRANCH  25  26
ENDBRANCH  24  25
ENDBRANCH  21  24
ENDBRANCH  20  21
ENDBRANCH   1  20
TORSDOF 12
