REMARK  Name = ZINC58090159
REMARK  9 active torsions:
REMARK  status: ('A' for Active; 'I' for Inactive)
REMARK    1  A    between atoms: C_1  and  C_2
REMARK    2  A    between atoms: C_7  and  N_8
REMARK    3  A    between atoms: N_8  and  S_9
REMARK    4  A    between atoms: S_9  and  C_12
REMARK    5  A    between atoms: C_15  and  C_18
REMARK    6  A    between atoms: N_20  and  N_21
REMARK    7  A    between atoms: N_21  and  C_22
REMARK    8  A    between atoms: C_22  and  N_24
REMARK    9  A    between atoms: N_24  and  C_25
REMARK                            x       y       z     vdW  Elec       q    Type
REMARK                         _______ _______ _______ _____ _____    ______ ____
ROOT
ATOM      1  C   UNL     1       2.500  -0.640   3.443  0.00  0.00    +0.109 A 
ATOM      2  C   UNL     1       3.114  -1.710   2.816  0.00  0.00    +0.029 A 
ATOM      3  C   UNL     1       4.473  -1.687   2.579  0.00  0.00    +0.015 A 
ATOM      4  C   UNL     1       5.229  -0.582   2.975  0.00  0.00    +0.038 A 
ATOM      5  C   UNL     1       4.603   0.493   3.608  0.00  0.00    +0.015 A 
ATOM      6  C   UNL     1       3.242   0.460   3.833  0.00  0.00    +0.029 A 
ENDROOT
BRANCH   4   7
ATOM      7  C   UNL     1       6.686  -0.551   2.726  0.00  0.00    +0.260 C 
ATOM      8  O   UNL     1       7.228  -1.489   2.175  0.00  0.00    -0.269 OA
ATOM      9  N   UNL     1       7.412   0.518   3.109  0.00  0.00    -0.231 N 
ATOM     10  H   UNL     1       6.980   1.266   3.549  0.00  0.00    +0.173 HD
BRANCH   9  11
ATOM     11  N   UNL     1       8.793   0.547   2.873  0.00  0.00    -0.246 N 
ATOM     12  H   UNL     1       9.226  -0.201   2.433  0.00  0.00    +0.172 HD
BRANCH  11  13
ATOM     13  C   UNL     1       9.520   1.615   3.256  0.00  0.00    +0.147 C 
ATOM     14  S   UNL     1      11.207   1.651   2.967  0.00  0.00    -0.017 S 
BRANCH  13  15
ATOM     15  N   UNL     1       8.918   2.655   3.867  0.00  0.00    -0.329 N 
ATOM     16  C   UNL     1       9.708   3.817   4.284  0.00  0.00    +0.127 C 
ATOM     17  H   UNL     1       7.963   2.635   4.031  0.00  0.00    +0.147 HD
ENDBRANCH  13  15
ENDBRANCH  11  13
ENDBRANCH   9  11
ENDBRANCH   4   7
BRANCH   1  18
ATOM     18  S   UNL     1       0.764  -0.678   3.741  0.00  0.00    +0.072 S 
ATOM     19  O   UNL     1       0.519   0.207   4.826  0.00  0.00    -0.150 OA
ATOM     20  O   UNL     1       0.387  -2.047   3.775  0.00  0.00    -0.150 OA
BRANCH  18  21
ATOM     21  N   UNL     1       0.025  -0.016   2.415  0.00  0.00    -0.216 N 
ATOM     22  H   UNL     1      -0.522   0.779   2.511  0.00  0.00    +0.174 HD
BRANCH  21  29
ATOM     23  C   UNL     1       0.153   1.691   0.143  0.00  0.00    +0.046 C 
ATOM     24  C   UNL     1       0.258   0.193   0.022  0.00  0.00    -0.028 A 
ATOM     25  C   UNL     1       0.426  -0.391  -1.218  0.00  0.00    +0.005 A 
ATOM     26  C   UNL     1       0.522  -1.765  -1.331  0.00  0.00    +0.000 A 
ATOM     27  C   UNL     1       0.450  -2.561  -0.202  0.00  0.00    +0.002 A 
ATOM     28  C   UNL     1       0.282  -1.984   1.042  0.00  0.00    +0.025 A 
ATOM     29  C   UNL     1       0.190  -0.603   1.159  0.00  0.00    +0.051 A 
ENDBRANCH  21  29
ENDBRANCH  18  21
ENDBRANCH   1  18
TORSDOF 7
