REMARK  Name = ZINC19894197
REMARK  7 active torsions:
REMARK  status: ('A' for Active; 'I' for Inactive)
REMARK    1  A    between atoms: C_4  and  C_7
REMARK    2  A    between atoms: N_9  and  C_10
REMARK    3  A    between atoms: C_10  and  C_26
REMARK    4  A    between atoms: C_11  and  C_12
REMARK    5  A    between atoms: N_28  and  C_29
REMARK    6  A    between atoms: C_29  and  C_30
REMARK    7  A    between atoms: C_30  and  C_31
REMARK                            x       y       z     vdW  Elec       q    Type
REMARK                         _______ _______ _______ _____ _____    ______ ____
ROOT
ATOM      1  C   UNL     1      -1.052  -2.085  -0.062  0.00  0.00    +0.097 C 
ATOM      2  C   UNL     1      -2.176  -2.847  -0.150  0.00  0.00    +0.037 C 
ENDROOT
BRANCH   2   3
ATOM      3  C   UNL     1      -3.451  -2.230  -0.159  0.00  0.00    -0.008 A 
ATOM      4  C   UNL     1      -3.791  -1.277   0.826  0.00  0.00    -0.010 A 
ATOM      5  C   UNL     1      -2.875  -0.909   1.826  0.00  0.00    +0.009 A 
ATOM      6  C   UNL     1      -3.232   0.018   2.756  0.00  0.00    +0.001 A 
ATOM      7  C   UNL     1      -4.487   0.622   2.743  0.00  0.00    +0.001 A 
ATOM      8  C   UNL     1      -5.416   0.315   1.800  0.00  0.00    +0.008 A 
ATOM      9  C   UNL     1      -5.109  -0.639   0.806  0.00  0.00    -0.017 A 
ATOM     10  C   UNL     1      -6.040  -0.977  -0.177  0.00  0.00    +0.017 A 
ATOM     11  C   UNL     1      -5.716  -1.922  -1.152  0.00  0.00    -0.017 A 
ATOM     12  C   UNL     1      -4.401  -2.564  -1.150  0.00  0.00    -0.010 A 
ATOM     13  C   UNL     1      -4.107  -3.510  -2.146  0.00  0.00    +0.009 A 
ATOM     14  C   UNL     1      -5.043  -3.810  -3.087  0.00  0.00    +0.001 A 
ATOM     15  C   UNL     1      -6.296  -3.200  -3.091  0.00  0.00    +0.001 A 
ATOM     16  C   UNL     1      -6.643  -2.277  -2.155  0.00  0.00    +0.008 A 
ENDBRANCH   2   3
BRANCH   1  19
ATOM     17  C   UNL     1      -0.483  -0.023   0.975  0.00  0.00    +0.248 C 
ATOM     18  O   UNL     1       0.134  -0.634   1.826  0.00  0.00    -0.270 OA
ATOM     19  N   UNL     1      -1.156  -0.694   0.019  0.00  0.00    -0.277 N 
ATOM     20  H   UNL     1      -1.787  -0.147  -0.697  0.00  0.00    +0.155 HD
BRANCH  17  24
ATOM     21  C   UNL     1      -0.521   4.224   1.015  0.00  0.00    +0.000 A 
ATOM     22  C   UNL     1       0.183   3.532   1.985  0.00  0.00    +0.001 A 
ATOM     23  C   UNL     1       0.199   2.152   1.978  0.00  0.00    +0.013 A 
ATOM     24  C   UNL     1      -0.496   1.454   0.989  0.00  0.00    +0.037 A 
ATOM     25  C   UNL     1      -1.200   2.159   0.011  0.00  0.00    +0.013 A 
ATOM     26  C   UNL     1      -1.212   3.538   0.032  0.00  0.00    +0.001 A 
ENDBRANCH  17  24
ENDBRANCH   1  19
BRANCH   1  27
ATOM     27  C   UNL     1       0.268  -2.724  -0.053  0.00  0.00    +0.258 C 
ATOM     28  O   UNL     1       1.269  -2.050   0.108  0.00  0.00    -0.269 OA
ATOM     29  N   UNL     1       0.373  -4.057  -0.223  0.00  0.00    -0.310 N 
ATOM     30  H   UNL     1      -0.534  -4.677  -0.285  0.00  0.00    +0.149 HD
BRANCH  29  31
ATOM     31  C   UNL     1       1.695  -4.681  -0.324  0.00  0.00    +0.116 C 
BRANCH  31  32
ATOM     32  C   UNL     1       1.533  -6.191  -0.511  0.00  0.00    +0.144 C 
BRANCH  32  33
ATOM     33  C   UNL     1       2.893  -6.832  -0.616  0.00  0.00    +0.357 C 
ATOM     34  O   UNL     1       3.889  -6.152  -0.547  0.00  0.00    -0.246 OA
ATOM     35  O   UNL     1       2.997  -8.160  -0.785  0.00  0.00    -0.246 OA
ENDBRANCH  32  33
ENDBRANCH  31  32
ENDBRANCH  29  31
ENDBRANCH   1  27
TORSDOF 7
