REMARK  Name = ZINC04517132
REMARK  9 active torsions:
REMARK  status: ('A' for Active; 'I' for Inactive)
REMARK    1  A    between atoms: C_1  and  C_2
REMARK    2  A    between atoms: C_2  and  O_3
REMARK    3  A    between atoms: O_3  and  C_4
REMARK    4  A    between atoms: C_4  and  C_6
REMARK    5  A    between atoms: C_7  and  C_28
REMARK    6  A    between atoms: N_8  and  C_24
REMARK    7  A    between atoms: C_19  and  N_23
REMARK    8  A    between atoms: C_20  and  C_21
REMARK    9  A    between atoms: C_24  and  C_25
REMARK                            x       y       z     vdW  Elec       q    Type
REMARK                         _______ _______ _______ _____ _____    ______ ____
ROOT
ATOM      1  C   UNL     1      -5.203   3.115   0.901  0.00  0.00    +0.078 C 
ATOM      2  C   UNL     1      -4.191   2.266   1.166  0.00  0.00    +0.023 C 
ATOM      3  N   UNL     1      -3.608   1.789   0.029  0.00  0.00    -0.265 N 
ATOM      4  C   UNL     1      -4.192   2.276  -1.084  0.00  0.00    +0.241 C 
ATOM      5  O   UNL     1      -3.894   2.029  -2.233  0.00  0.00    -0.274 OA
ATOM      6  C   UNL     1      -5.295   3.192  -0.606  0.00  0.00    +0.148 C 
ATOM      7  C   UNL     1      -6.631   2.692  -1.074  0.00  0.00    +0.020 A 
ATOM      8  C   UNL     1      -6.907   1.337  -1.047  0.00  0.00    +0.009 A 
ATOM      9  C   UNL     1      -8.133   0.868  -1.477  0.00  0.00    +0.001 A 
ATOM     10  C   UNL     1      -9.091   1.754  -1.935  0.00  0.00    +0.004 A 
ATOM     11  C   UNL     1      -8.823   3.108  -1.963  0.00  0.00    +0.046 A 
ATOM     12  C   UNL     1      -7.590   3.583  -1.533  0.00  0.00    +0.135 A 
ATOM     13  O   UNL     1      -7.339   4.914  -1.567  0.00  0.00    -0.441 OA
ATOM     14  C   UNL     1      -6.075   5.367  -1.524  0.00  0.00    +0.199 C 
ATOM     15  C   UNL     1      -5.054   4.596  -1.075  0.00  0.00    +0.110 C 
ATOM     16  C   UNL     1      -3.752   1.889   2.557  0.00  0.00    +0.061 C 
ENDROOT
BRANCH  14  17
ATOM     17  N   UNL     1      -5.809   6.645  -1.947  0.00  0.00    -0.328 N 
ATOM     18  H   UNL     1      -6.529   7.208  -2.271  0.00  0.00    +0.145 HD
ATOM     19  H   UNL     1      -4.901   6.986  -1.921  0.00  0.00    +0.145 HD
ENDBRANCH  14  17
BRANCH   1  20
ATOM     20  C   UNL     1      -6.017   3.791   1.841  0.00  0.00    +0.338 C 
ATOM     21  O   UNL     1      -5.829   3.634   3.033  0.00  0.00    -0.245 OA
BRANCH  20  22
ATOM     22  O   UNL     1      -7.002   4.610   1.415  0.00  0.00    -0.462 OA
BRANCH  22  24
ATOM     23  C   UNL     1      -8.842   6.140   1.750  0.00  0.00    +0.048 C 
ATOM     24  C   UNL     1      -7.784   5.260   2.419  0.00  0.00    +0.229 C 
ENDBRANCH  22  24
ENDBRANCH  20  22
ENDBRANCH   1  20
BRANCH  15  25
ATOM     25  C   UNL     1      -3.725   5.130  -1.049  0.00  0.00    +0.102 C 
ATOM     26  N   UNL     1      -2.671   5.553  -1.028  0.00  0.00    -0.191 NA
ENDBRANCH  15  25
BRANCH   3  27
ATOM     27  C   UNL     1      -2.482   0.853   0.018  0.00  0.00    +0.208 C 
BRANCH  27  28
ATOM     28  C   UNL     1      -1.187   1.624   0.017  0.00  0.00    +0.228 C 
ATOM     29  O   UNL     1      -1.204   2.837   0.023  0.00  0.00    -0.274 OA
ATOM     30  N   UNL     1      -0.011   0.966   0.007  0.00  0.00    -0.328 N 
ATOM     31  H   UNL     1       0.002  -0.004   0.002  0.00  0.00    +0.145 HD
ATOM     32  H   UNL     1       0.822   1.462   0.002  0.00  0.00    +0.145 HD
ENDBRANCH  27  28
ENDBRANCH   3  27
TORSDOF 7
