REMARK  Name = ZINC16892202
REMARK  5 active torsions:
REMARK  status: ('A' for Active; 'I' for Inactive)
REMARK    1  A    between atoms: C_1  and  C_2
REMARK    2  A    between atoms: C_2  and  C_6
REMARK    3  A    between atoms: N_3  and  O_4
REMARK    4  A    between atoms: O_4  and  C_5
REMARK    5  A    between atoms: C_6  and  C_8
REMARK                            x       y       z     vdW  Elec       q    Type
REMARK                         _______ _______ _______ _____ _____    ______ ____
ROOT
ATOM      1  C   UNL     1      -1.320   3.726   0.029  0.00  0.00    +0.073 C 
ATOM      2  C   UNL     1      -1.300   2.220   0.020  0.00  0.00    +0.119 C 
ATOM      3  N   UNL     1      -2.413   1.557   0.022  0.00  0.00    -0.087 NA
ENDROOT
BRANCH   2   4
ATOM      4  C   UNL     1      -0.018   1.503   0.010  0.00  0.00    +0.177 C 
ATOM      5  O   UNL     1       1.023   2.123   0.004  0.00  0.00    -0.291 OA
ATOM      6  C   UNL     1       0.002  -0.004   0.002  0.00  0.00    +0.093 C 
ENDBRANCH   2   4
BRANCH   3   7
ATOM      7  O   UNL     1      -3.648   2.248   0.032  0.00  0.00    -0.397 OA
ATOM      8  C   UNL     1      -4.793   1.393   0.032  0.00  0.00    +0.313 C 
ENDBRANCH   3   7
TORSDOF 2
