REMARK  Name = ZINC20566269
REMARK  6 active torsions:
REMARK  status: ('A' for Active; 'I' for Inactive)
REMARK    1  A    between atoms: C_1  and  C_2
REMARK    2  A    between atoms: C_2  and  C_3
REMARK    3  A    between atoms: C_3  and  C_4
REMARK    4  A    between atoms: C_4  and  N_5
REMARK    5  A    between atoms: C_10  and  C_28
REMARK    6  A    between atoms: C_28  and  C_29
REMARK                            x       y       z     vdW  Elec       q    Type
REMARK                         _______ _______ _______ _____ _____    ______ ____
ROOT
ATOM      1  N   UNL     1      -2.787  -2.571   0.015  0.00  0.00    -0.242 N 
ATOM      2  C   UNL     1      -3.457  -2.822   1.146  0.00  0.00    +0.227 C 
ATOM      3  O   UNL     1      -3.022  -2.668   2.267  0.00  0.00    -0.275 OA
ATOM      4  C   UNL     1      -4.841  -3.327   0.807  0.00  0.00    +0.107 C 
ATOM      5  C   UNL     1      -4.961  -4.807   1.226  0.00  0.00    +0.076 C 
ATOM      6  N   UNL     1      -4.451  -5.577   0.060  0.00  0.00    -0.295 NA
ATOM      7  C   UNL     1      -4.958  -4.835  -1.109  0.00  0.00    +0.136 C 
ATOM      8  C   UNL     1      -4.851  -3.333  -0.747  0.00  0.00    +0.122 C 
ATOM      9  C   UNL     1      -3.476  -2.815  -1.105  0.00  0.00    +0.228 C 
ATOM     10  O   UNL     1      -3.062  -2.649  -2.233  0.00  0.00    -0.275 OA
ATOM     11  C   UNL     1      -4.181  -5.163  -2.352  0.00  0.00    +0.005 A 
ATOM     12  C   UNL     1      -2.852  -5.047  -2.698  0.00  0.00    +0.008 A 
ATOM     13  C   UNL     1      -2.425  -5.446  -3.952  0.00  0.00    +0.002 A 
ATOM     14  C   UNL     1      -3.335  -5.960  -4.858  0.00  0.00    +0.022 A 
ATOM     15  C   UNL     1      -4.667  -6.078  -4.516  0.00  0.00    +0.062 A 
ATOM     16  C   UNL     1      -5.105  -5.678  -3.255  0.00  0.00    +0.057 A 
ATOM     17  N   UNL     1      -6.380  -5.697  -2.683  0.00  0.00    -0.282 N 
ATOM     18  C   UNL     1      -6.379  -5.217  -1.424  0.00  0.00    +0.243 C 
ATOM     19  O   UNL     1      -7.338  -5.113  -0.688  0.00  0.00    -0.273 OA
ATOM     20 CL   UNL     1      -5.800  -6.725  -5.661  0.00  0.00    -0.082 Cl
ATOM     21  H   UNL     1      -3.442  -5.606   0.060  0.00  0.00    +0.124 HD
ATOM     22  H   UNL     1      -7.174  -6.018  -3.140  0.00  0.00    +0.155 HD
ENDROOT
BRANCH   1  23
ATOM     23  C   UNL     1      -1.413  -2.063   0.004  0.00  0.00    +0.116 C 
BRANCH  23  24
ATOM     24  C   UNL     1      -1.433  -0.534   0.013  0.00  0.00    +0.019 C 
BRANCH  24  26
ATOM     25  C   UNL     1      -0.019   1.526   0.010  0.00  0.00    +0.004 C 
ATOM     26  C   UNL     1       0.002  -0.004   0.002  0.00  0.00    -0.002 C 
ENDBRANCH  24  26
ENDBRANCH  23  24
ENDBRANCH   1  23
BRANCH   5  27
ATOM     27  C   UNL     1      -4.104  -5.081   2.464  0.00  0.00    +0.115 C 
BRANCH  27  28
ATOM     28  C   UNL     1      -4.330  -6.497   2.928  0.00  0.00    +0.212 C 
ATOM     29  O   UNL     1      -5.100  -7.216   2.328  0.00  0.00    -0.276 OA
ATOM     30  N   UNL     1      -3.675  -6.964   4.010  0.00  0.00    -0.329 N 
ATOM     31  H   UNL     1      -3.059  -6.389   4.490  0.00  0.00    +0.145 HD
ATOM     32  H   UNL     1      -3.821  -7.875   4.309  0.00  0.00    +0.145 HD
ENDBRANCH  27  28
ENDBRANCH   5  27
TORSDOF 5
