REMARK  Name = ZINC41019483
REMARK  12 active torsions:
REMARK  status: ('A' for Active; 'I' for Inactive)
REMARK    1  A    between atoms: C_1  and  C_2
REMARK    2  A    between atoms: C_2  and  C_3
REMARK    3  A    between atoms: C_3  and  C_4
REMARK    4  A    between atoms: C_4  and  S_5
REMARK    5  A    between atoms: S_5  and  C_6
REMARK    6  A    between atoms: C_11  and  C_28
REMARK    7  A    between atoms: C_13  and  C_17
REMARK    8  A    between atoms: C_14  and  C_16
REMARK    9  A    between atoms: N_19  and  C_20
REMARK   10  A    between atoms: C_24  and  C_27
REMARK   11  A    between atoms: C_25  and  C_26
REMARK   12  A    between atoms: C_31  and  O_34
REMARK                            x       y       z     vdW  Elec       q    Type
REMARK                         _______ _______ _______ _____ _____    ______ ____
ROOT
ATOM      1  C   UNL     1       1.303  -4.380  -2.692  0.00  0.00    +0.210 A 
ATOM      2  N   UNL     1       0.791  -5.080  -1.669  0.00  0.00    -0.187 NA
ATOM      3  C   UNL     1       0.974  -6.356  -1.879  0.00  0.00    +0.219 A 
ATOM      4  N   UNL     1       1.623  -6.500  -3.061  0.00  0.00    -0.220 N 
ATOM      5  N   UNL     1       1.816  -5.216  -3.570  0.00  0.00    -0.141 NA
ATOM      6  C   UNL     1       2.007  -7.793  -3.620  0.00  0.00    +0.177 C 
ATOM      7  C   UNL     1       1.322  -8.893  -2.854  0.00  0.00    +0.060 C 
ATOM      8  C   UNL     1       0.691  -8.691  -1.688  0.00  0.00    +0.018 C 
ATOM      9  N   UNL     1       0.611  -7.449  -1.105  0.00  0.00    -0.287 N 
ATOM     10  C   UNL     1       0.046  -9.863  -0.995  0.00  0.00    +0.061 C 
ATOM     11  H   UNL     1       0.314  -7.341  -0.188  0.00  0.00    +0.155 HD
ENDROOT
BRANCH   6  12
ATOM     12  C   UNL     1       3.500  -7.963  -3.514  0.00  0.00    -0.018 A 
ATOM     13  C   UNL     1       4.112  -7.944  -2.274  0.00  0.00    +0.009 A 
ATOM     14  C   UNL     1       5.481  -8.099  -2.175  0.00  0.00    +0.046 A 
ATOM     15  C   UNL     1       6.243  -8.273  -3.322  0.00  0.00    +0.117 A 
ATOM     16  C   UNL     1       5.627  -8.291  -4.565  0.00  0.00    +0.046 A 
ATOM     17  C   UNL     1       4.257  -8.142  -4.658  0.00  0.00    +0.009 A 
BRANCH  15  18
ATOM     18  O   UNL     1       7.590  -8.425  -3.227  0.00  0.00    -0.507 OA
ATOM     19  H   UNL     1       7.877  -9.344  -3.135  0.00  0.00    +0.292 HD
ENDBRANCH  15  18
ENDBRANCH   6  12
BRANCH   7  20
ATOM     20  C   UNL     1       1.344 -10.203  -3.389  0.00  0.00    +0.248 C 
ATOM     21  O   UNL     1       0.569 -10.512  -4.276  0.00  0.00    -0.270 OA
ATOM     22  N   UNL     1       2.224 -11.108  -2.917  0.00  0.00    -0.281 N 
ATOM     23  H   UNL     1       2.797 -10.883  -2.168  0.00  0.00    +0.155 HD
BRANCH  22  24
ATOM     24  C   UNL     1       2.311 -12.373  -3.509  0.00  0.00    +0.037 A 
ATOM     25  C   UNL     1       1.169 -12.986  -4.010  0.00  0.00    +0.023 A 
ATOM     26  C   UNL     1       1.258 -14.235  -4.593  0.00  0.00    +0.002 A 
ATOM     27  C   UNL     1       2.481 -14.875  -4.678  0.00  0.00    +0.004 A 
ATOM     28  C   UNL     1       3.619 -14.267  -4.180  0.00  0.00    -0.046 A 
ATOM     29  C   UNL     1       3.538 -13.016  -3.600  0.00  0.00    -0.026 A 
ATOM     30  C   UNL     1       4.779 -12.351  -3.063  0.00  0.00    +0.046 C 
ATOM     31  C   UNL     1       4.950 -14.968  -4.274  0.00  0.00    +0.044 C 
ENDBRANCH  22  24
ENDBRANCH   7  20
BRANCH   1  32
ATOM     32  S   UNL     1       1.284  -2.625  -2.842  0.00  0.00    -0.084 S 
BRANCH  32  33
ATOM     33  C   UNL     1       0.450  -2.065  -1.331  0.00  0.00    +0.077 C 
BRANCH  33  34
ATOM     34  C   UNL     1       0.364  -0.537  -1.332  0.00  0.00    +0.011 C 
BRANCH  34  36
ATOM     35  C   UNL     1      -0.424   1.463  -0.059  0.00  0.00    +0.004 C 
ATOM     36  C   UNL     1      -0.339  -0.065  -0.058  0.00  0.00    -0.003 C 
ENDBRANCH  34  36
ENDBRANCH  33  34
ENDBRANCH  32  33
ENDBRANCH   1  32
TORSDOF 8
