REMARK  Name = ZINC63985128
REMARK  7 active torsions:
REMARK  status: ('A' for Active; 'I' for Inactive)
REMARK    1  A    between atoms: C_1  and  C_2
REMARK    2  A    between atoms: N_5  and  C_6
REMARK    3  A    between atoms: C_6  and  N_8
REMARK    4  A    between atoms: C_9  and  C_11
REMARK    5  A    between atoms: C_21  and  C_23
REMARK    6  A    between atoms: C_23  and  O_25
REMARK    7  A    between atoms: O_25  and  C_26
REMARK                            x       y       z     vdW  Elec       q    Type
REMARK                         _______ _______ _______ _____ _____    ______ ____
ROOT
ATOM      1  C   UNL     1       0.152  -4.130  -2.086  0.00  0.00    +0.163 C 
ATOM      2  S   UNL     1       0.169  -4.838  -0.527  0.00  0.00    -0.016 S 
ENDROOT
BRANCH   1   7
ATOM      3  C   UNL     1       0.005   1.504   0.008  0.00  0.00    +0.062 C 
ATOM      4  C   UNL     1       0.020  -0.003   0.001  0.00  0.00    +0.043 C 
ATOM      5  N   UNL     1       0.018  -0.668  -1.080  0.00  0.00    -0.232 NA
ATOM      6  C   UNL     1       0.031  -2.027  -1.143  0.00  0.00    +0.181 C 
ATOM      7  N   UNL     1       0.031  -2.802  -2.217  0.00  0.00    -0.167 NA
ATOM      8  S   UNL     1       0.050  -2.514   0.579  0.00  0.00    -0.068 S 
ATOM      9  C   UNL     1       0.044  -0.814   1.290  0.00  0.00    +0.206 C 
BRANCH   9  10
ATOM     10  C   UNL     1       1.295  -0.544   2.086  0.00  0.00    +0.326 C 
ATOM     11  O   UNL     1       2.319  -0.245   1.518  0.00  0.00    -0.249 OA
BRANCH  10  12
ATOM     12  O   UNL     1       1.272  -0.637   3.425  0.00  0.00    -0.467 OA
ATOM     13  C   UNL     1       2.494  -0.368   4.115  0.00  0.00    +0.280 C 
ENDBRANCH  10  12
ENDBRANCH   9  10
ENDBRANCH   1   7
BRANCH   1  14
ATOM     14  N   UNL     1       0.259  -4.908  -3.180  0.00  0.00    -0.260 N 
ATOM     15  C   UNL     1       0.381  -6.244  -3.048  0.00  0.00    +0.285 C 
ATOM     16  O   UNL     1       0.393  -6.747  -1.941  0.00  0.00    -0.266 OA
ATOM     17  H   UNL     1       0.249  -4.507  -4.064  0.00  0.00    +0.157 HD
BRANCH  15  18
ATOM     18  C   UNL     1       0.498  -7.092  -4.242  0.00  0.00    +0.191 A 
ATOM     19  C   UNL     1       0.619  -8.446  -4.230  0.00  0.00    +0.063 A 
ATOM     20  C   UNL     1       0.704  -8.857  -5.631  0.00  0.00    +0.021 A 
ATOM     21  C   UNL     1       0.837 -10.088  -6.278  0.00  0.00    +0.011 A 
ATOM     22  C   UNL     1       0.887 -10.133  -7.643  0.00  0.00    +0.001 A 
ATOM     23  C   UNL     1       0.807  -8.965  -8.389  0.00  0.00    +0.004 A 
ATOM     24  C   UNL     1       0.676  -7.741  -7.770  0.00  0.00    +0.047 A 
ATOM     25  C   UNL     1       0.623  -7.669  -6.382  0.00  0.00    +0.136 A 
ATOM     26  O   UNL     1       0.496  -6.646  -5.515  0.00  0.00    -0.450 OA
ENDBRANCH  15  18
ENDBRANCH   1  14
TORSDOF 5
