REMARK  Name = ZINC47534670
REMARK  6 active torsions:
REMARK  status: ('A' for Active; 'I' for Inactive)
REMARK    1  A    between atoms: C_1  and  C_2
REMARK    2  A    between atoms: C_6  and  C_9
REMARK    3  A    between atoms: C_7  and  C_8
REMARK    4  A    between atoms: N_11  and  C_12
REMARK    5  A    between atoms: C_12  and  C_14
REMARK    6  A    between atoms: C_12  and  C_15
REMARK                            x       y       z     vdW  Elec       q    Type
REMARK                         _______ _______ _______ _____ _____    ______ ____
ROOT
ATOM      1  C   UNL     1      -0.169  -4.819   3.812  0.00  0.00    +0.100 C 
ATOM      2  C   UNL     1       1.265  -5.081   4.277  0.00  0.00    +0.033 C 
ENDROOT
BRANCH   1   3
ATOM      3  C   UNL     1      -0.893  -6.130   3.650  0.00  0.00    -0.025 A 
ATOM      4  C   UNL     1      -0.693  -6.892   2.512  0.00  0.00    +0.007 A 
ATOM      5  C   UNL     1      -1.351  -8.096   2.354  0.00  0.00    +0.028 A 
ATOM      6  C   UNL     1      -2.217  -8.543   3.341  0.00  0.00    +0.067 A 
ATOM      7  C   UNL     1      -2.419  -7.775   4.489  0.00  0.00    +0.067 A 
ATOM      8  C   UNL     1      -1.749  -6.570   4.641  0.00  0.00    +0.033 A 
ATOM      9  N   UNL     1      -3.325  -8.471   5.285  0.00  0.00    -0.306 N 
ATOM     10  H   UNL     1      -3.659  -8.184   6.149  0.00  0.00    +0.170 HD
ATOM     11  C   UNL     1      -3.660  -9.610   4.650  0.00  0.00    +0.325 A 
ATOM     12  O   UNL     1      -4.434 -10.447   5.074  0.00  0.00    -0.247 OA
ATOM     13  N   UNL     1      -3.007  -9.682   3.475  0.00  0.00    -0.306 N 
ATOM     14  H   UNL     1      -3.076 -10.404   2.830  0.00  0.00    +0.170 HD
ENDBRANCH   1   3
BRANCH   1  17
ATOM     15  C   UNL     1      -0.026  -2.770   2.500  0.00  0.00    +0.245 C 
ATOM     16  O   UNL     1       0.059  -2.145   3.539  0.00  0.00    -0.270 OA
ATOM     17  N   UNL     1      -0.144  -4.113   2.529  0.00  0.00    -0.305 N 
ATOM     18  H   UNL     1      -0.213  -4.611   1.700  0.00  0.00    +0.150 HD
BRANCH  15  24
ATOM     19  C   UNL     1       0.539   1.455  -0.093  0.00  0.00    +0.044 C 
ATOM     20  C   UNL     1       0.269  -0.027  -0.047  0.00  0.00    -0.047 A 
ATOM     21  C   UNL     1       0.043  -0.724  -1.221  0.00  0.00    +0.003 A 
ATOM     22  C   UNL     1      -0.205  -2.084  -1.188  0.00  0.00    +0.001 A 
ATOM     23  C   UNL     1      -0.229  -2.755   0.017  0.00  0.00    +0.013 A 
ATOM     24  C   UNL     1      -0.002  -2.058   1.205  0.00  0.00    +0.040 A 
ATOM     25  C   UNL     1       0.254  -0.686   1.164  0.00  0.00    -0.035 A 
ATOM     26  C   UNL     1       0.506   0.073   2.441  0.00  0.00    +0.045 C 
ENDBRANCH  15  24
ENDBRANCH   1  17
TORSDOF 3
