REMARK  Name = ZINC03831087
REMARK  8 active torsions:
REMARK  status: ('A' for Active; 'I' for Inactive)
REMARK    1  A    between atoms: C_1  and  C_2
REMARK    2  A    between atoms: C_11  and  C_28
REMARK    3  A    between atoms: C_11  and  O_32
REMARK    4  A    between atoms: C_12  and  C_27
REMARK    5  A    between atoms: C_14  and  O_26
REMARK    6  A    between atoms: C_18  and  C_25
REMARK    7  A    between atoms: C_28  and  C_30
REMARK    8  A    between atoms: C_30  and  O_31
REMARK                            x       y       z     vdW  Elec       q    Type
REMARK                         _______ _______ _______ _____ _____    ______ ____
ROOT
ATOM      1  C   UNL     1       0.206   1.327   0.404  0.00  0.00    +0.012 C 
ATOM      2  C   UNL     1       0.197  -0.202   0.294  0.00  0.00    +0.013 C 
ATOM      3  C   UNL     1       0.822  -0.600  -1.042  0.00  0.00    +0.012 C 
ATOM      4  C   UNL     1       2.316  -0.823  -0.868  0.00  0.00    -0.000 C 
ATOM      5  C   UNL     1       3.071  -0.895  -2.178  0.00  0.00    +0.002 C 
ATOM      6  C   UNL     1       2.425   0.093  -3.185  0.00  0.00    +0.008 C 
ATOM      7  C   UNL     1       1.360  -0.750  -3.917  0.00  0.00    +0.043 C 
ATOM      8  C   UNL     1       1.938  -2.181  -3.965  0.00  0.00    +0.131 C 
ATOM      9  C   UNL     1       3.019  -2.252  -2.889  0.00  0.00    +0.009 C 
ATOM     10  C   UNL     1       3.001  -3.449  -1.984  0.00  0.00    +0.041 C 
ATOM     11  C   UNL     1       2.193  -3.314  -0.696  0.00  0.00    +0.120 C 
ATOM     12  C   UNL     1       2.578  -2.033   0.022  0.00  0.00    +0.035 C 
ATOM     13  C   UNL     1       1.966  -1.841   1.383  0.00  0.00    +0.013 C 
ATOM     14  C   UNL     1       0.917  -0.786   1.476  0.00  0.00    -0.053 C 
ATOM     15  C   UNL     1       0.534  -0.354   2.694  0.00  0.00    +0.051 C 
ATOM     16  C   UNL     1       1.280  -0.820   3.884  0.00  0.00    +0.179 C 
ATOM     17  O   UNL     1       0.784  -0.815   5.001  0.00  0.00    -0.288 OA
ATOM     18  C   UNL     1       2.678  -1.258   3.662  0.00  0.00    +0.047 C 
ATOM     19  C   UNL     1       3.019  -1.714   2.452  0.00  0.00    -0.012 C 
ATOM     20  C   UNL     1       1.243  -3.134   1.759  0.00  0.00    +0.020 C 
ATOM     21  C   UNL     1       4.363  -2.360  -3.672  0.00  0.00    +0.015 C 
ENDROOT
BRANCH  11  22
ATOM     22  O   UNL     1       0.802  -3.418  -0.958  0.00  0.00    -0.391 OA
ATOM     23  H   UNL     1       0.525  -4.289  -1.273  0.00  0.00    +0.210 HD
ENDBRANCH  11  22
BRANCH   8  24
ATOM     24  C   UNL     1       0.838  -3.188  -3.799  0.00  0.00    +0.190 C 
ATOM     25  O   UNL     1      -0.168  -2.890  -3.201  0.00  0.00    -0.292 OA
BRANCH  24  26
ATOM     26  C   UNL     1       0.988  -4.571  -4.379  0.00  0.00    +0.233 C 
BRANCH  26  27
ATOM     27  O   UNL     1      -0.182  -5.338  -4.090  0.00  0.00    -0.387 OA
ATOM     28  H   UNL     1      -0.155  -6.241  -4.434  0.00  0.00    +0.210 HD
ENDBRANCH  26  27
ENDBRANCH  24  26
ENDBRANCH   8  24
BRANCH   8  29
ATOM     29  O   UNL     1       2.550  -2.382  -5.255  0.00  0.00    -0.380 OA
ATOM     30  H   UNL     1       1.935  -2.306  -5.998  0.00  0.00    +0.211 HD
ENDBRANCH   8  29
TORSDOF 5
