REMARK  Name = ZINC41710209
REMARK  6 active torsions:
REMARK  status: ('A' for Active; 'I' for Inactive)
REMARK    1  A    between atoms: C_1  and  C_2
REMARK    2  A    between atoms: N_6  and  C_7
REMARK    3  A    between atoms: C_12  and  C_13
REMARK    4  A    between atoms: C_13  and  O_14
REMARK    5  A    between atoms: O_14  and  C_15
REMARK    6  A    between atoms: C_19  and  O_21
REMARK                            x       y       z     vdW  Elec       q    Type
REMARK                         _______ _______ _______ _____ _____    ______ ____
ROOT
ATOM      1  C   UNL     1      -0.018   1.503   0.010  0.00  0.00    +0.064 C 
ATOM      2  C   UNL     1       0.002  -0.004   0.002  0.00  0.00    +0.021 A 
ATOM      3  C   UNL     1       0.008  -0.789  -1.097  0.00  0.00    +0.029 A 
ATOM      4  C   UNL     1       0.028  -2.122  -0.658  0.00  0.00    +0.002 A 
ATOM      5  C   UNL     1       0.033  -2.108   0.695  0.00  0.00    +0.030 A 
ATOM      6  N   UNL     1       0.024  -0.811   1.106  0.00  0.00    -0.317 N 
ATOM      7  C   UNL     1       0.049  -3.350   1.551  0.00  0.00    +0.054 C 
ATOM      8  C   UNL     1      -0.355  -4.545   0.680  0.00  0.00    +0.009 C 
ATOM      9  C   UNL     1       0.478  -4.546  -0.605  0.00  0.00    +0.036 C 
ATOM     10  C   UNL     1       0.045  -3.375  -1.496  0.00  0.00    +0.146 C 
ENDROOT
BRANCH   6  11
ATOM     11  C   UNL     1       0.031  -0.376   2.438  0.00  0.00    +0.052 A 
ATOM     12  C   UNL     1      -1.167  -0.181   3.114  0.00  0.00    +0.026 A 
ATOM     13  C   UNL     1      -1.156   0.248   4.426  0.00  0.00    +0.002 A 
ATOM     14  C   UNL     1       0.046   0.484   5.068  0.00  0.00    +0.000 A 
ATOM     15  C   UNL     1       1.240   0.291   4.399  0.00  0.00    +0.008 A 
ATOM     16  C   UNL     1       1.236  -0.143   3.087  0.00  0.00    +0.002 A 
BRANCH  16  17
ATOM     17  C   UNL     1       2.538  -0.359   2.360  0.00  0.00    +0.196 C 
BRANCH  17  18
ATOM     18  O   UNL     1       3.628  -0.056   3.233  0.00  0.00    -0.378 OA
ATOM     19  C   UNL     1       4.915  -0.229   2.639  0.00  0.00    +0.194 C 
ENDBRANCH  17  18
ENDBRANCH  16  17
ENDBRANCH   6  11
BRANCH  10  20
ATOM     20  O   UNL     1       0.972  -3.222  -2.573  0.00  0.00    -0.387 OA
ATOM     21  H   UNL     1       1.032  -3.994  -3.152  0.00  0.00    +0.210 HD
ENDBRANCH  10  20
TORSDOF 4
