REMARK  Name = ZINC43746795
REMARK  4 active torsions:
REMARK  status: ('A' for Active; 'I' for Inactive)
REMARK    1  A    between atoms: C_1  and  C_2
REMARK    2  A    between atoms: C_6  and  O_37
REMARK    3  A    between atoms: C_12  and  C_13
REMARK    4  A    between atoms: C_13  and  C_14
REMARK                            x       y       z     vdW  Elec       q    Type
REMARK                         _______ _______ _______ _____ _____    ______ ____
ROOT
ATOM      1  C   UNL     1      -1.387   0.129   2.999  0.00  0.00    +0.221 C 
ATOM      2  O   UNL     1      -2.223  -0.603   2.513  0.00  0.00    -0.275 OA
ATOM      3  N   UNL     1      -1.630   0.743   4.174  0.00  0.00    -0.294 N 
ATOM      4  C   UNL     1      -0.526   1.219   5.021  0.00  0.00    +0.109 C 
ATOM      5  C   UNL     1      -0.703   2.714   5.298  0.00  0.00    +0.023 C 
ATOM      6  C   UNL     1      -2.060   2.961   5.965  0.00  0.00    +0.034 C 
ATOM      7  C   UNL     1      -3.142   2.395   5.062  0.00  0.00    -0.053 C 
ATOM      8  C   UNL     1      -4.122   3.163   4.692  0.00  0.00    -0.024 C 
ATOM      9  C   UNL     1      -5.219   2.706   3.770  0.00  0.00    -0.002 C 
ATOM     10  C   UNL     1      -5.392   1.189   3.912  0.00  0.00    +0.010 C 
ATOM     11  C   UNL     1      -4.036   0.538   3.623  0.00  0.00    -0.002 C 
ATOM     12  C   UNL     1      -3.005   0.962   4.642  0.00  0.00    +0.103 C 
ATOM     13  C   UNL     1      -3.562   0.973   2.236  0.00  0.00    -0.073 C 
ATOM     14  N   UNL     1      -4.603   1.780   1.584  0.00  0.00    +0.382 N 
ATOM     15  C   UNL     1      -4.828   3.050   2.327  0.00  0.00    -0.062 C 
ATOM     16  C   UNL     1      -5.966   3.852   1.689  0.00  0.00    -0.015 C 
ATOM     17  C   UNL     1      -5.601   4.195   0.243  0.00  0.00    -0.003 C 
ATOM     18  C   UNL     1      -5.313   2.898  -0.518  0.00  0.00    -0.019 C 
ATOM     19  C   UNL     1      -4.179   2.079   0.209  0.00  0.00    -0.078 C 
ATOM     20  H   UNL     1      -5.466   1.257   1.562  0.00  0.00    -0.081 HD
ENDROOT
BRANCH   1  21
ATOM     21  C   UNL     1      -0.077   0.352   2.289  0.00  0.00    +0.138 C 
BRANCH  21  33
ATOM     22  C   UNL     1      -0.844   1.589  -0.205  0.00  0.00    +0.045 C 
ATOM     23  C   UNL     1      -0.420   0.143  -0.162  0.00  0.00    -0.029 A 
ATOM     24  C   UNL     1      -0.380  -0.665  -1.382  0.00  0.00    +0.021 A 
ATOM     25  C   UNL     1      -0.736  -0.119  -2.621  0.00  0.00    +0.015 A 
ATOM     26  C   UNL     1      -0.690  -0.895  -3.743  0.00  0.00    +0.046 A 
ATOM     27  C   UNL     1      -0.291  -2.228  -3.663  0.00  0.00    +0.120 A 
ATOM     28  C   UNL     1       0.064  -2.785  -2.445  0.00  0.00    +0.092 A 
ATOM     29  C   UNL     1       0.023  -2.011  -1.295  0.00  0.00    +0.143 A 
ATOM     30  O   UNL     1       0.365  -2.534  -0.099  0.00  0.00    -0.422 OA
ATOM     31  C   UNL     1       0.331  -1.798   1.023  0.00  0.00    +0.341 A 
ATOM     32  O   UNL     1       0.649  -2.313   2.080  0.00  0.00    -0.245 OA
ATOM     33  C   UNL     1      -0.058  -0.443   1.008  0.00  0.00    +0.049 A 
BRANCH  27  34
ATOM     34  O   UNL     1      -0.251  -2.987  -4.787  0.00  0.00    -0.507 OA
ATOM     35  H   UNL     1       0.600  -2.964  -5.247  0.00  0.00    +0.292 HD
ENDBRANCH  27  34
ENDBRANCH  21  33
ENDBRANCH   1  21
TORSDOF 3
