REMARK  Name = ZINC37180574
REMARK  7 active torsions:
REMARK  status: ('A' for Active; 'I' for Inactive)
REMARK    1  A    between atoms: C_1  and  C_2
REMARK    2  A    between atoms: C_6  and  C_15
REMARK    3  A    between atoms: C_8  and  C_10
REMARK    4  A    between atoms: C_8  and  N_13
REMARK    5  A    between atoms: N_13  and  C_14
REMARK    6  A    between atoms: C_15  and  C_16
REMARK    7  A    between atoms: C_15  and  C_17
REMARK                            x       y       z     vdW  Elec       q    Type
REMARK                         _______ _______ _______ _____ _____    ______ ____
ROOT
ATOM      1  C   UNL     1      -1.601   1.520   1.357  0.00  0.00    +0.007 C 
ATOM      2  C   UNL     1      -1.269   0.107   0.872  0.00  0.00    -0.015 C 
ATOM      3  C   UNL     1      -2.559  -0.706   0.751  0.00  0.00    +0.003 C 
ATOM      4  C   UNL     1      -2.228  -2.119   0.267  0.00  0.00    +0.003 C 
ATOM      5  C   UNL     1      -1.291  -2.796   1.269  0.00  0.00    -0.009 C 
ATOM      6  C   UNL     1      -0.001  -1.982   1.390  0.00  0.00    +0.038 C 
ATOM      7  C   UNL     1      -0.332  -0.569   1.875  0.00  0.00    +0.002 C 
ENDROOT
BRANCH   6   8
ATOM      8  N   UNL     1       0.656  -1.909   0.079  0.00  0.00    +0.388 N 
ATOM      9  C   UNL     1       1.812  -1.005   0.160  0.00  0.00    -0.099 C 
ATOM     10  H   UNL     1       0.968  -2.829  -0.194  0.00  0.00    -0.085 HD
ATOM     11  H   UNL     1       0.003  -1.558  -0.606  0.00  0.00    -0.085 HD
ENDBRANCH   6   8
BRANCH   6  12
ATOM     12  C   UNL     1       0.922  -2.648   2.378  0.00  0.00    +0.346 C 
ATOM     13  O   UNL     1       2.034  -3.006   2.028  0.00  0.00    -0.248 OA
ATOM     14  O   UNL     1       0.557  -2.830   3.527  0.00  0.00    -0.248 OA
ENDBRANCH   6  12
BRANCH   5  15
ATOM     15  C   UNL     1      -0.960  -4.209   0.785  0.00  0.00    -0.015 C 
ATOM     16  C   UNL     1      -0.172  -4.947   1.868  0.00  0.00    +0.007 C 
ATOM     17  C   UNL     1      -2.257  -4.965   0.492  0.00  0.00    +0.007 C 
ENDBRANCH   5  15
TORSDOF 3
