REMARK  Name = ZINC08844387
REMARK  8 active torsions:
REMARK  status: ('A' for Active; 'I' for Inactive)
REMARK    1  A    between atoms: C_6  and  C_7
REMARK    2  A    between atoms: C_15  and  O_19
REMARK    3  A    between atoms: O_19  and  C_20
REMARK    4  A    between atoms: C_22  and  O_35
REMARK    5  A    between atoms: C_24  and  O_34
REMARK    6  A    between atoms: C_26  and  O_33
REMARK    7  A    between atoms: C_28  and  C_31
REMARK    8  A    between atoms: C_31  and  O_32
REMARK                            x       y       z     vdW  Elec       q    Type
REMARK                         _______ _______ _______ _____ _____    ______ ____
ROOT
ATOM      1  C   UNL     1       8.603   1.227  -4.067  0.00  0.00    +0.211 C 
ATOM      2  C   UNL     1       8.097   0.940  -5.488  0.00  0.00    +0.129 C 
ATOM      3  C   UNL     1       6.814   0.139  -5.354  0.00  0.00    +0.170 C 
ATOM      4  O   UNL     1       6.561  -0.789  -6.094  0.00  0.00    -0.292 OA
ATOM      5  C   UNL     1       5.894   0.545  -4.281  0.00  0.00    +0.059 A 
ATOM      6  C   UNL     1       4.590   0.045  -4.232  0.00  0.00    +0.018 A 
ATOM      7  C   UNL     1       3.755   0.425  -3.220  0.00  0.00    +0.046 A 
ATOM      8  C   UNL     1       4.195   1.315  -2.244  0.00  0.00    +0.128 A 
ATOM      9  C   UNL     1       5.486   1.822  -2.281  0.00  0.00    +0.092 A 
ATOM     10  C   UNL     1       6.347   1.445  -3.300  0.00  0.00    +0.135 A 
ATOM     11  O   UNL     1       7.603   1.947  -3.345  0.00  0.00    -0.483 OA
ENDROOT
BRANCH   1  17
ATOM     12  C   UNL     1       9.782   3.426  -4.251  0.00  0.00    +0.011 A 
ATOM     13  C   UNL     1      10.935   4.186  -4.312  0.00  0.00    +0.050 A 
ATOM     14  C   UNL     1      12.177   3.569  -4.272  0.00  0.00    +0.162 A 
ATOM     15  C   UNL     1      12.258   2.185  -4.162  0.00  0.00    +0.162 A 
ATOM     16  C   UNL     1      11.097   1.430  -4.097  0.00  0.00    +0.056 A 
ATOM     17  C   UNL     1       9.863   2.051  -4.138  0.00  0.00    -0.003 A 
ATOM     18  O   UNL     1      13.466   1.560  -4.112  0.00  0.00    -0.485 OA
ATOM     19  C   UNL     1      14.599   2.314  -4.554  0.00  0.00    +0.270 C 
ATOM     20  C   UNL     1      14.524   3.711  -3.922  0.00  0.00    +0.270 C 
ATOM     21  O   UNL     1      13.303   4.329  -4.344  0.00  0.00    -0.485 OA
ENDBRANCH   1  17
BRANCH   8  22
ATOM     22  O   UNL     1       3.356   1.687  -1.245  0.00  0.00    -0.461 OA
BRANCH  22  23
ATOM     23  C   UNL     1       2.040   1.130  -1.263  0.00  0.00    +0.339 C 
ATOM     24  C   UNL     1       1.286   1.562  -0.002  0.00  0.00    +0.214 C 
ATOM     25  C   UNL     1       1.146   3.087   0.004  0.00  0.00    +0.180 C 
ATOM     26  C   UNL     1       0.433   3.529  -1.277  0.00  0.00    +0.177 C 
ATOM     27  C   UNL     1       1.219   3.022  -2.490  0.00  0.00    +0.179 C 
ATOM     28  O   UNL     1       1.339   1.600  -2.418  0.00  0.00    -0.331 OA
BRANCH  26  29
ATOM     29  O   UNL     1      -0.888   2.983  -1.301  0.00  0.00    -0.386 OA
ATOM     30  H   UNL     1      -1.441   3.259  -0.558  0.00  0.00    +0.210 HD
ENDBRANCH  26  29
BRANCH  25  31
ATOM     31  O   UNL     1       0.381   3.492   1.141  0.00  0.00    -0.386 OA
ATOM     32  H   UNL     1       0.771   3.239   1.989  0.00  0.00    +0.210 HD
ENDBRANCH  25  31
BRANCH  24  33
ATOM     33  O   UNL     1      -0.011   0.963   0.007  0.00  0.00    -0.383 OA
ATOM     34  H   UNL     1       0.002  -0.004   0.002  0.00  0.00    +0.210 HD
ENDBRANCH  24  33
BRANCH  27  35
ATOM     35  C   UNL     1       0.481   3.408  -3.773  0.00  0.00    +0.190 C 
BRANCH  35  36
ATOM     36  O   UNL     1       1.271   3.039  -4.906  0.00  0.00    -0.392 OA
ATOM     37  H   UNL     1       0.864   3.254  -5.756  0.00  0.00    +0.210 HD
ENDBRANCH  35  36
ENDBRANCH  27  35
ENDBRANCH  22  23
ENDBRANCH   8  22
TORSDOF 8
