REMARK  Name = ZINC48180736
REMARK  8 active torsions:
REMARK  status: ('A' for Active; 'I' for Inactive)
REMARK    1  A    between atoms: C_1  and  C_2
REMARK    2  A    between atoms: C_4  and  C_26
REMARK    3  A    between atoms: C_7  and  N_8
REMARK    4  A    between atoms: N_11  and  C_12
REMARK    5  A    between atoms: C_12  and  C_13
REMARK    6  A    between atoms: C_13  and  C_15
REMARK    7  A    between atoms: C_13  and  N_20
REMARK    8  A    between atoms: N_28  and  C_29
REMARK                            x       y       z     vdW  Elec       q    Type
REMARK                         _______ _______ _______ _____ _____    ______ ____
ROOT
ATOM      1  N   UNL     1       0.255   0.066   2.440  0.00  0.00    -0.269 N 
ATOM      2  C   UNL     1       0.064  -0.629   3.578  0.00  0.00    +0.304 C 
ATOM      3  O   UNL     1      -0.006  -1.842   3.545  0.00  0.00    -0.253 OA
ATOM      4  N   UNL     1      -0.049   0.020   4.754  0.00  0.00    -0.300 N 
ATOM      5  H   UNL     1       0.380   1.028   2.474  0.00  0.00    +0.156 HD
ATOM      6  H   UNL     1       0.007   0.989   4.780  0.00  0.00    +0.150 HD
ENDROOT
BRANCH   1  13
ATOM      7  C   UNL     1      -0.817   1.416   0.181  0.00  0.00    +0.045 C 
ATOM      8  C   UNL     1      -0.241   0.027   0.080  0.00  0.00    -0.028 A 
ATOM      9  C   UNL     1      -0.220  -0.622  -1.134  0.00  0.00    +0.018 A 
ATOM     10  C   UNL     1       0.314  -1.910  -1.226  0.00  0.00    +0.037 A 
ATOM     11  C   UNL     1       0.825  -2.535  -0.085  0.00  0.00    +0.015 A 
ATOM     12  C   UNL     1       0.800  -1.881   1.125  0.00  0.00    +0.024 A 
ATOM     13  C   UNL     1       0.273  -0.596   1.213  0.00  0.00    +0.038 A 
BRANCH  10  14
ATOM     14  C   UNL     1       0.338  -2.609  -2.526  0.00  0.00    +0.244 C 
ATOM     15  O   UNL     1      -0.107  -2.064  -3.518  0.00  0.00    -0.270 OA
ATOM     16  N   UNL     1       0.853  -3.852  -2.614  0.00  0.00    -0.314 N 
ATOM     17  C   UNL     1       0.877  -4.545  -3.904  0.00  0.00    +0.128 C 
ATOM     18  H   UNL     1       1.208  -4.286  -1.823  0.00  0.00    +0.149 HD
ENDBRANCH  10  14
ENDBRANCH   1  13
BRANCH   4  19
ATOM     19  C   UNL     1      -0.256  -0.736   5.991  0.00  0.00    +0.098 C 
BRANCH  19  20
ATOM     20  C   UNL     1      -0.473   0.237   7.152  0.00  0.00    +0.016 C 
BRANCH  20  21
ATOM     21  N   UNL     1       0.647   1.185   7.214  0.00  0.00    +0.387 N 
ATOM     22  C   UNL     1       1.909   0.442   7.313  0.00  0.00    -0.078 C 
ATOM     23  C   UNL     1       3.084   1.422   7.296  0.00  0.00    -0.019 C 
ATOM     24  C   UNL     1       2.960   2.381   8.483  0.00  0.00    -0.004 C 
ATOM     25  C   UNL     1       1.607   3.095   8.410  0.00  0.00    -0.019 C 
ATOM     26  C   UNL     1       0.487   2.054   8.386  0.00  0.00    -0.078 C 
ATOM     27  H   UNL     1       0.656   1.748   6.377  0.00  0.00    -0.081 HD
ENDBRANCH  20  21
BRANCH  20  28
ATOM     28  C   UNL     1      -1.760   0.993   6.940  0.00  0.00    +0.093 A 
ATOM     29  C   UNL     1      -2.937   0.723   7.532  0.00  0.00    +0.043 A 
ATOM     30  C   UNL     1      -3.866   1.673   7.048  0.00  0.00    +0.041 A 
ATOM     31  C   UNL     1      -3.200   2.466   6.189  0.00  0.00    +0.195 A 
ATOM     32  O   UNL     1      -1.924   2.053   6.132  0.00  0.00    -0.469 OA
ENDBRANCH  20  28
ENDBRANCH  19  20
ENDBRANCH   4  19
TORSDOF 6
