REMARK  Name = ZINC58197089
REMARK  6 active torsions:
REMARK  status: ('A' for Active; 'I' for Inactive)
REMARK    1  A    between atoms: C_1  and  C_2
REMARK    2  A    between atoms: C_2  and  C_3
REMARK    3  A    between atoms: C_2  and  C_4
REMARK    4  A    between atoms: C_4  and  C_6
REMARK    5  A    between atoms: C_4  and  N_18
REMARK    6  A    between atoms: C_6  and  N_8
REMARK                            x       y       z     vdW  Elec       q    Type
REMARK                         _______ _______ _______ _____ _____    ______ ____
ROOT
ATOM      1  C   UNL     1      -1.433  -0.534   0.013  0.00  0.00    +0.175 C 
ENDROOT
BRANCH   1   2
ATOM      2  N   UNL     1      -1.413  -1.998   0.005  0.00  0.00    -0.222 N 
ATOM      3  C   UNL     1      -0.853  -2.747  -0.962  0.00  0.00    +0.255 C 
ATOM      4  O   UNL     1      -0.292  -2.322  -1.952  0.00  0.00    -0.270 OA
ATOM      5  C   UNL     1      -1.033  -4.173  -0.619  0.00  0.00    +0.049 A 
ATOM      6  C   UNL     1      -0.675  -5.367  -1.223  0.00  0.00    +0.014 A 
ATOM      7  C   UNL     1      -1.006  -6.570  -0.619  0.00  0.00    +0.001 A 
ATOM      8  C   UNL     1      -1.692  -6.586   0.581  0.00  0.00    +0.001 A 
ATOM      9  C   UNL     1      -2.057  -5.399   1.197  0.00  0.00    +0.014 A 
ATOM     10  C   UNL     1      -1.732  -4.189   0.605  0.00  0.00    +0.049 A 
ATOM     11  C   UNL     1      -1.948  -2.772   0.966  0.00  0.00    +0.255 C 
ATOM     12  O   UNL     1      -2.516  -2.373   1.963  0.00  0.00    -0.270 OA
ENDBRANCH   1   2
BRANCH   1  14
ATOM     13  C   UNL     1      -0.019   1.526   0.010  0.00  0.00    +0.009 C 
ATOM     14  C   UNL     1       0.002  -0.004   0.002  0.00  0.00    +0.013 C 
ATOM     15  C   UNL     1       0.742  -0.511   1.242  0.00  0.00    +0.009 C 
ENDBRANCH   1  14
BRANCH   1  16
ATOM     16  C   UNL     1      -2.162  -0.034  -1.208  0.00  0.00    +0.260 C 
ATOM     17  O   UNL     1      -2.622  -0.827  -2.009  0.00  0.00    -0.272 OA
BRANCH  16  18
ATOM     18  N   UNL     1      -2.303   1.268  -1.409  0.00  0.00    -0.144 NA
ATOM     19  C   UNL     1      -2.950   1.711  -2.492  0.00  0.00    +0.222 A 
ATOM     20  N   UNL     1      -3.509   0.949  -3.451  0.00  0.00    -0.246 N 
ATOM     21  N   UNL     1      -4.080   1.808  -4.399  0.00  0.00    -0.153 NA
ATOM     22  C   UNL     1      -3.865   3.045  -4.013  0.00  0.00    +0.160 A 
ATOM     23  N   UNL     1      -3.166   3.016  -2.822  0.00  0.00    -0.271 N 
ATOM     24  C   UNL     1      -2.818   4.189  -2.200  0.00  0.00    +0.096 A 
ATOM     25  C   UNL     1      -3.155   5.376  -2.736  0.00  0.00    +0.018 A 
ATOM     26  C   UNL     1      -3.871   5.438  -3.948  0.00  0.00    +0.005 A 
ATOM     27  C   UNL     1      -4.217   4.292  -4.586  0.00  0.00    +0.048 A 
ATOM     28  H   UNL     1      -3.515  -0.021  -3.480  0.00  0.00    +0.192 HD
ENDBRANCH  16  18
ENDBRANCH   1  16
TORSDOF 4
