REMARK  Name = ZINC46705061
REMARK  7 active torsions:
REMARK  status: ('A' for Active; 'I' for Inactive)
REMARK    1  A    between atoms: C_1  and  C_2
REMARK    2  A    between atoms: C_5  and  N_9
REMARK    3  A    between atoms: N_12  and  N_13
REMARK    4  A    between atoms: C_14  and  C_16
REMARK    5  A    between atoms: C_16  and  C_18
REMARK    6  A    between atoms: C_16  and  O_19
REMARK    7  A    between atoms: O_19  and  C_20
REMARK                            x       y       z     vdW  Elec       q    Type
REMARK                         _______ _______ _______ _____ _____    ______ ____
ROOT
ATOM      1  N   UNL     1      -0.282  -4.231   0.066  0.00  0.00    -0.268 N 
ATOM      2  C   UNL     1      -0.353  -4.952   1.202  0.00  0.00    +0.320 C 
ATOM      3  O   UNL     1      -0.554  -4.396   2.264  0.00  0.00    -0.251 OA
ATOM      4  N   UNL     1      -0.202  -6.291   1.161  0.00  0.00    -0.218 N 
ATOM      5  H   UNL     1      -0.195  -4.681  -0.789  0.00  0.00    +0.156 HD
ATOM      6  H   UNL     1      -0.254  -6.810   1.979  0.00  0.00    +0.174 HD
ENDROOT
BRANCH   1  11
ATOM      7  C   UNL     1      -0.483   1.435   0.286  0.00  0.00    +0.045 C 
ATOM      8  C   UNL     1      -0.430  -0.070   0.227  0.00  0.00    -0.032 A 
ATOM      9  C   UNL     1       0.167  -0.780   1.253  0.00  0.00    +0.006 A 
ATOM     10  C   UNL     1       0.218  -2.159   1.202  0.00  0.00    +0.024 A 
ATOM     11  C   UNL     1      -0.332  -2.834   0.120  0.00  0.00    +0.036 A 
ATOM     12  C   UNL     1      -0.932  -2.119  -0.908  0.00  0.00    +0.043 A 
ATOM     13  C   UNL     1      -0.984  -0.739  -0.850  0.00  0.00    +0.046 A 
ATOM     14 CL   UNL     1      -1.740   0.156  -2.131  0.00  0.00    -0.083 Cl
ENDBRANCH   1  11
BRANCH   4  15
ATOM     15  N   UNL     1       0.029  -6.933  -0.062  0.00  0.00    -0.230 N 
ATOM     16  C   UNL     1       0.180  -8.271  -0.103  0.00  0.00    +0.270 C 
ATOM     17  O   UNL     1       0.116  -8.921   0.919  0.00  0.00    -0.270 OA
ATOM     18  H   UNL     1       0.081  -6.414  -0.880  0.00  0.00    +0.173 HD
BRANCH  16  19
ATOM     19  C   UNL     1       0.429  -8.962  -1.419  0.00  0.00    +0.257 C 
ATOM     20  C   UNL     1      -0.796  -8.798  -2.321  0.00  0.00    +0.062 C 
BRANCH  19  21
ATOM     21  O   UNL     1       0.669 -10.352  -1.190  0.00  0.00    -0.477 OA
BRANCH  21  22
ATOM     22  C   UNL     1       1.401 -11.014  -2.126  0.00  0.00    +0.157 A 
ATOM     23  C   UNL     1       1.777 -10.372  -3.296  0.00  0.00    +0.048 A 
ATOM     24  C   UNL     1       2.521 -11.047  -4.245  0.00  0.00    +0.004 A 
ATOM     25  C   UNL     1       2.890 -12.362  -4.030  0.00  0.00    +0.003 A 
ATOM     26  C   UNL     1       2.516 -13.006  -2.865  0.00  0.00    +0.042 A 
ATOM     27  C   UNL     1       1.778 -12.333  -1.908  0.00  0.00    +0.165 A 
ATOM     28  F   UNL     1       1.418 -12.960  -0.767  0.00  0.00    -0.202 F 
ENDBRANCH  21  22
ENDBRANCH  19  21
ENDBRANCH  16  19
ENDBRANCH   4  15
TORSDOF 5
