REMARK  Name = ZINC48841336
REMARK  7 active torsions:
REMARK  status: ('A' for Active; 'I' for Inactive)
REMARK    1  A    between atoms: C_3  and  C_19
REMARK    2  A    between atoms: C_4  and  N_8
REMARK    3  A    between atoms: N_11  and  C_12
REMARK    4  A    between atoms: C_12  and  C_13
REMARK    5  A    between atoms: C_13  and  C_14
REMARK    6  A    between atoms: C_14  and  N_15
REMARK    7  A    between atoms: N_15  and  C_16
REMARK                            x       y       z     vdW  Elec       q    Type
REMARK                         _______ _______ _______ _____ _____    ______ ____
ROOT
ATOM      1  N   UNL     1       3.562  -0.665  -0.025  0.00  0.00    -0.269 N 
ATOM      2  C   UNL     1       3.550  -2.009  -0.117  0.00  0.00    +0.304 C 
ATOM      3  O   UNL     1       2.498  -2.597  -0.282  0.00  0.00    -0.253 OA
ATOM      4  N   UNL     1       4.702  -2.702  -0.027  0.00  0.00    -0.299 N 
ATOM      5  H   UNL     1       4.407  -0.190   0.029  0.00  0.00    +0.156 HD
ATOM      6  H   UNL     1       5.541  -2.233   0.104  0.00  0.00    +0.150 HD
ENDROOT
BRANCH   1  10
ATOM      7  C   UNL     1      -0.029   1.456   0.029  0.00  0.00    +0.016 A 
ATOM      8  C   UNL     1       1.069   2.005  -0.595  0.00  0.00    +0.018 A 
ATOM      9  C   UNL     1       2.280   1.304  -0.620  0.00  0.00    +0.084 A 
ATOM     10  C   UNL     1       2.364   0.043  -0.007  0.00  0.00    +0.050 A 
ATOM     11  C   UNL     1       1.247  -0.494   0.617  0.00  0.00    +0.039 A 
ATOM     12  C   UNL     1       0.058   0.211   0.633  0.00  0.00    +0.020 A 
ATOM     13 BR   UNL     1      -1.460  -0.528   1.486  0.00  0.00    -0.050 Br
BRANCH   9  14
ATOM     14  C   UNL     1       3.457   1.884  -1.285  0.00  0.00    +0.388 C 
ATOM     15  O   UNL     1       3.356   2.939  -1.896  0.00  0.00    -0.241 OA
ATOM     16  O   UNL     1       4.536   1.311  -1.227  0.00  0.00    -0.241 OA
ENDBRANCH   9  14
ENDBRANCH   1  10
BRANCH   4  17
ATOM     17  C   UNL     1       4.688  -4.163  -0.128  0.00  0.00    +0.104 C 
BRANCH  17  18
ATOM     18  C   UNL     1       6.116  -4.697   0.006  0.00  0.00    -0.000 C 
BRANCH  18  19
ATOM     19  C   UNL     1       6.101  -6.224  -0.099  0.00  0.00    -0.081 C 
BRANCH  19  20
ATOM     20  N   UNL     1       7.472  -6.737   0.029  0.00  0.00    +0.381 N 
ATOM     21  H   UNL     1       8.044  -6.354  -0.708  0.00  0.00    -0.086 HD
ATOM     22  H   UNL     1       7.850  -6.465   0.924  0.00  0.00    -0.086 HD
BRANCH  20  23
ATOM     23  C   UNL     1       7.458  -8.202  -0.072  0.00  0.00    -0.072 C 
ATOM     24  C   UNL     1       7.906  -8.999   1.155  0.00  0.00    -0.017 C 
ATOM     25  C   UNL     1       8.807  -8.923  -0.080  0.00  0.00    -0.017 C 
ENDBRANCH  20  23
ENDBRANCH  19  20
ENDBRANCH  18  19
ENDBRANCH  17  18
ENDBRANCH   4  17
TORSDOF 7
