REMARK  Name = ZINC46501358
REMARK  7 active torsions:
REMARK  status: ('A' for Active; 'I' for Inactive)
REMARK    1  A    between atoms: C_1  and  C_2
REMARK    2  A    between atoms: C_5  and  C_8
REMARK    3  A    between atoms: C_10  and  C_13
REMARK    4  A    between atoms: C_13  and  N_14
REMARK    5  A    between atoms: N_14  and  C_15
REMARK    6  A    between atoms: C_18  and  C_26
REMARK    7  A    between atoms: C_19  and  N_21
REMARK                            x       y       z     vdW  Elec       q    Type
REMARK                         _______ _______ _______ _____ _____    ______ ____
ROOT
ATOM      1  N   UNL     1      -1.358  -7.951   1.842  0.00  0.00    -0.335 N 
ATOM      2  H   UNL     1      -2.111  -7.414   1.549  0.00  0.00    +0.147 HD
ENDROOT
BRANCH   1   3
ATOM      3  C   UNL     1      -1.557  -8.998   2.745  0.00  0.00    +0.030 A 
ATOM      4  C   UNL     1      -0.478  -9.764   3.170  0.00  0.00    +0.023 A 
ATOM      5  C   UNL     1      -0.674 -10.799   4.064  0.00  0.00    +0.007 A 
ATOM      6  C   UNL     1      -1.942 -11.077   4.537  0.00  0.00    -0.025 A 
ATOM      7  C   UNL     1      -3.024 -10.315   4.116  0.00  0.00    +0.073 A 
ATOM      8  C   UNL     1      -2.831  -9.271   3.223  0.00  0.00    +0.051 A 
ATOM      9  C   UNL     1      -2.151 -12.208   5.511  0.00  0.00    +0.046 C 
BRANCH   7  10
ATOM     10  N   UNL     1      -4.311 -10.598   4.597  0.00  0.00    -0.200 N 
ATOM     11  C   UNL     1      -5.448 -10.717   3.877  0.00  0.00    +0.250 A 
ATOM     12  N   UNL     1      -6.413 -10.984   4.718  0.00  0.00    -0.116 NA
ATOM     13  N   UNL     1      -5.964 -11.042   5.919  0.00  0.00    -0.023 NA
ATOM     14  N   UNL     1      -4.693 -10.825   5.931  0.00  0.00    -0.039 NA
ENDBRANCH   7  10
ENDBRANCH   1   3
BRANCH   1  15
ATOM     15  C   UNL     1      -0.013  -7.663   1.338  0.00  0.00    +0.200 C 
BRANCH  15  18
ATOM     16  C   UNL     1      -0.047  -4.468  -0.383  0.00  0.00    +0.202 A 
ATOM     17  N   UNL     1       0.058  -5.242   0.713  0.00  0.00    -0.190 NA
ATOM     18  C   UNL     1      -0.072  -6.496   0.387  0.00  0.00    +0.245 A 
ATOM     19  O   UNL     1      -0.267  -6.573  -0.936  0.00  0.00    -0.336 OA
ATOM     20  N   UNL     1      -0.252  -5.239  -1.422  0.00  0.00    -0.056 NA
BRANCH  16  25
ATOM     21  C   UNL     1       0.317   1.279  -0.485  0.00  0.00    +0.044 C 
ATOM     22  C   UNL     1       0.222  -0.225  -0.458  0.00  0.00    -0.050 A 
ATOM     23  C   UNL     1       0.003  -0.922  -1.632  0.00  0.00    +0.004 A 
ATOM     24  C   UNL     1      -0.085  -2.299  -1.614  0.00  0.00    +0.012 A 
ATOM     25  C   UNL     1       0.047  -2.987  -0.409  0.00  0.00    +0.022 A 
ATOM     26  C   UNL     1       0.268  -2.280   0.771  0.00  0.00    +0.012 A 
ATOM     27  C   UNL     1       0.359  -0.903   0.740  0.00  0.00    +0.004 A 
ENDBRANCH  16  25
ENDBRANCH  15  18
ENDBRANCH   1  15
TORSDOF 5
