REMARK  Name = ZINC00443301
REMARK  4 active torsions:
REMARK  status: ('A' for Active; 'I' for Inactive)
REMARK    1  A    between atoms: C_1  and  C_2
REMARK    2  A    between atoms: C_5  and  C_7
REMARK    3  A    between atoms: C_8  and  C_9
REMARK    4  A    between atoms: N_11  and  C_12
REMARK                            x       y       z     vdW  Elec       q    Type
REMARK                         _______ _______ _______ _____ _____    ______ ____
ROOT
ATOM      1  C   UNL     1      -5.956   2.873   2.772  0.00  0.00    +0.241 C 
ATOM      2  O   UNL     1      -6.085   3.237   3.927  0.00  0.00    -0.270 OA
ATOM      3  N   UNL     1      -7.033   2.796   1.965  0.00  0.00    -0.281 N 
ATOM      4  H   UNL     1      -6.922   2.569   1.029  0.00  0.00    +0.155 HD
ENDROOT
BRANCH   3   5
ATOM      5  C   UNL     1      -8.310   3.043   2.478  0.00  0.00    +0.054 A 
ATOM      6  C   UNL     1      -8.489   3.996   3.473  0.00  0.00    +0.025 A 
ATOM      7  C   UNL     1      -9.751   4.238   3.978  0.00  0.00    +0.003 A 
ATOM      8  C   UNL     1     -10.838   3.533   3.495  0.00  0.00    +0.021 A 
ATOM      9  C   UNL     1     -10.666   2.583   2.504  0.00  0.00    +0.061 A 
ATOM     10  C   UNL     1      -9.405   2.340   1.990  0.00  0.00    +0.080 A 
ATOM     11 CL   UNL     1      -9.189   1.152   0.742  0.00  0.00    -0.080 Cl
ATOM     12 CL   UNL     1     -12.034   1.701   1.900  0.00  0.00    -0.082 Cl
ENDBRANCH   3   5
BRANCH   1  14
ATOM     13  C   UNL     1      -3.592   2.609   3.089  0.00  0.00    +0.051 C 
ATOM     14  C   UNL     1      -4.675   2.531   2.277  0.00  0.00    +0.071 C 
BRANCH  13  19
ATOM     15  C   UNL     1      -0.003   1.141  -0.006  0.00  0.00    +0.086 C 
ATOM     16  C   UNL     1      -0.711   1.618   1.236  0.00  0.00    +0.103 A 
ATOM     17  C   UNL     1      -0.120   1.883   2.423  0.00  0.00    +0.045 A 
ATOM     18  C   UNL     1      -1.128   2.299   3.305  0.00  0.00    +0.049 A 
ATOM     19  C   UNL     1      -2.310   2.266   2.594  0.00  0.00    +0.128 A 
ATOM     20  O   UNL     1      -2.026   1.855   1.340  0.00  0.00    -0.461 OA
ENDBRANCH  13  19
ENDBRANCH   1  14
TORSDOF 3
