REMARK  Name = ZINC39916056
REMARK  3 active torsions:
REMARK  status: ('A' for Active; 'I' for Inactive)
REMARK    1  A    between atoms: C_1  and  S_2
REMARK    2  A    between atoms: S_2  and  C_3
REMARK    3  A    between atoms: C_11  and  C_15
REMARK                            x       y       z     vdW  Elec       q    Type
REMARK                         _______ _______ _______ _____ _____    ______ ____
ROOT
ATOM      1  C   UNL     1       0.902  -0.439   1.516  0.00  0.00    +0.198 C 
ATOM      2  N   UNL     1       2.267   0.150   1.485  0.00  0.00    -0.260 NA
ATOM      3  C   UNL     1       2.300   1.109   2.595  0.00  0.00    +0.231 C 
ATOM      4  N   UNL     1       3.577   1.190   3.299  0.00  0.00    -0.318 N 
ATOM      5  C   UNL     1       3.545   1.788   4.540  0.00  0.00    +0.014 C 
ATOM      6  C   UNL     1       2.375   1.979   5.191  0.00  0.00    +0.034 C 
ATOM      7  C   UNL     1       1.055   1.528   4.591  0.00  0.00    +0.139 C 
ATOM      8  N   UNL     1       1.325   0.531   3.569  0.00  0.00    -0.196 NA
ATOM      9  N   UNL     1       0.219   0.145   2.703  0.00  0.00    -0.224 NA
ATOM     10  C   UNL     1       2.340   2.598   6.449  0.00  0.00    +0.163 C 
ATOM     11  O   UNL     1       1.272   2.763   7.005  0.00  0.00    -0.292 OA
ATOM     12  C   UNL     1       3.603   3.060   7.124  0.00  0.00    +0.080 C 
ATOM     13  C   UNL     1       4.764   2.169   6.670  0.00  0.00    +0.014 C 
ATOM     14  C   UNL     1       4.854   2.229   5.144  0.00  0.00    +0.051 C 
ATOM     15  H   UNL     1       2.971  -0.563   1.602  0.00  0.00    +0.127 HD
ATOM     16  H   UNL     1       4.398   0.844   2.916  0.00  0.00    +0.149 HD
ATOM     17  H   UNL     1      -0.334   0.948   2.443  0.00  0.00    +0.143 HD
ENDROOT
BRANCH   7  18
ATOM     18  C   UNL     1       0.184   0.933   5.668  0.00  0.00    -0.026 C 
ATOM     19  C   UNL     1      -0.981   1.404   6.109  0.00  0.00    +0.020 C 
ATOM     20  C   UNL     1      -1.495   0.527   7.161  0.00  0.00    +0.078 C 
ATOM     21  N   UNL     1      -0.690  -0.460   7.378  0.00  0.00    -0.386 N 
ATOM     22  C   UNL     1       0.452  -0.325   6.465  0.00  0.00    +0.145 C 
ATOM     23  H   UNL     1      -0.819  -1.168   8.028  0.00  0.00    +0.159 HD
ENDBRANCH   7  18
BRANCH   1  25
ATOM     24  C   UNL     1      -0.022   1.810   0.012  0.00  0.00    +0.087 C 
ATOM     25  S   UNL     1       0.002  -0.004   0.002  0.00  0.00    -0.129 S 
ENDBRANCH   1  25
TORSDOF 2
