REMARK  Name = ZINC37205399
REMARK  8 active torsions:
REMARK  status: ('A' for Active; 'I' for Inactive)
REMARK    1  A    between atoms: C_1  and  C_2
REMARK    2  A    between atoms: C_2  and  C_3
REMARK    3  A    between atoms: C_2  and  C_4
REMARK    4  A    between atoms: C_4  and  C_5
REMARK    5  A    between atoms: C_7  and  C_10
REMARK    6  A    between atoms: C_10  and  S_11
REMARK    7  A    between atoms: S_11  and  C_12
REMARK    8  A    between atoms: C_17  and  N_18
REMARK                            x       y       z     vdW  Elec       q    Type
REMARK                         _______ _______ _______ _____ _____    ______ ____
ROOT
ATOM      1  S   UNL     1       4.959   3.451  -0.524  0.00  0.00    -0.114 S 
ENDROOT
BRANCH   1   2
ATOM      2  C   UNL     1       6.046   4.696  -1.134  0.00  0.00    +0.029 A 
ATOM      3  C   UNL     1       6.588   4.583  -2.406  0.00  0.00    +0.017 A 
ATOM      4  C   UNL     1       7.441   5.561  -2.884  0.00  0.00    +0.016 A 
ATOM      5  C   UNL     1       7.757   6.654  -2.096  0.00  0.00    +0.020 A 
ATOM      6  C   UNL     1       7.220   6.774  -0.826  0.00  0.00    +0.039 A 
ATOM      7  C   UNL     1       6.360   5.800  -0.342  0.00  0.00    +0.039 A 
ATOM      8 BR   UNL     1       8.925   7.986  -2.756  0.00  0.00    -0.050 Br
BRANCH   7   9
ATOM      9  N   UNL     1       5.813   5.923   0.941  0.00  0.00    -0.357 N 
ATOM     10  H   UNL     1       5.214   5.239   1.280  0.00  0.00    +0.142 HD
ATOM     11  H   UNL     1       6.032   6.691   1.490  0.00  0.00    +0.142 HD
ENDBRANCH   7   9
ENDBRANCH   1   2
BRANCH   1  12
ATOM     12  C   UNL     1       4.859   2.251  -1.881  0.00  0.00    +0.173 C 
BRANCH  12  15
ATOM     13  C   UNL     1       2.165  -0.079  -1.208  0.00  0.00    +0.172 A 
ATOM     14  N   UNL     1       2.660   1.068  -1.685  0.00  0.00    -0.195 NA
ATOM     15  C   UNL     1       3.947   1.119  -1.484  0.00  0.00    +0.238 A 
ATOM     16  O   UNL     1       4.319  -0.008  -0.864  0.00  0.00    -0.337 OA
ATOM     17  N   UNL     1       3.137  -0.774  -0.689  0.00  0.00    -0.061 NA
BRANCH  13  18
ATOM     18  C   UNL     1       0.718  -0.497  -1.257  0.00  0.00    +0.082 C 
BRANCH  18  20
ATOM     19  C   UNL     1      -0.019   1.526   0.010  0.00  0.00    +0.007 C 
ATOM     20  C   UNL     1       0.002  -0.004   0.002  0.00  0.00    -0.010 C 
ATOM     21  C   UNL     1      -1.433  -0.534   0.013  0.00  0.00    +0.007 C 
ENDBRANCH  18  20
ENDBRANCH  13  18
ENDBRANCH  12  15
ENDBRANCH   1  12
TORSDOF 6
