REMARK  Name = ZINC51580866
REMARK  5 active torsions:
REMARK  status: ('A' for Active; 'I' for Inactive)
REMARK    1  A    between atoms: C_1  and  C_2
REMARK    2  A    between atoms: C_5  and  C_17
REMARK    3  A    between atoms: C_6  and  O_8
REMARK    4  A    between atoms: O_8  and  C_9
REMARK    5  A    between atoms: N_18  and  O_19
REMARK                            x       y       z     vdW  Elec       q    Type
REMARK                         _______ _______ _______ _____ _____    ______ ____
ROOT
ATOM      1  C   UNL     1       0.080   1.500   0.004  0.00  0.00    +0.044 C 
ATOM      2  C   UNL     1      -0.042  -0.002   0.005  0.00  0.00    -0.047 A 
ATOM      3  C   UNL     1      -0.256  -0.677  -1.185  0.00  0.00    +0.004 A 
ATOM      4  C   UNL     1      -0.369  -2.051  -1.194  0.00  0.00    +0.015 A 
ATOM      5  C   UNL     1      -0.266  -2.766  -0.001  0.00  0.00    +0.060 A 
ATOM      6  C   UNL     1      -0.049  -2.081   1.201  0.00  0.00    +0.139 A 
ATOM      7  C   UNL     1       0.067  -0.699   1.193  0.00  0.00    +0.050 A 
ENDROOT
BRANCH   5   8
ATOM      8  C   UNL     1      -0.386  -4.240  -0.004  0.00  0.00    +0.166 C 
ATOM      9  N   UNL     1      -0.290  -4.904   1.111  0.00  0.00    -0.071 NA
ATOM     10  N   UNL     1      -0.601  -4.914  -1.194  0.00  0.00    -0.340 N 
ATOM     11  H   UNL     1      -0.673  -4.420  -2.026  0.00  0.00    +0.144 HD
ATOM     12  H   UNL     1      -0.680  -5.881  -1.197  0.00  0.00    +0.144 HD
BRANCH   9  13
ATOM     13  O   UNL     1      -0.405  -6.315   1.108  0.00  0.00    -0.408 OA
ATOM     14  H   UNL     1      -0.321  -6.719   1.982  0.00  0.00    +0.328 HD
ENDBRANCH   9  13
ENDBRANCH   5   8
BRANCH   6  15
ATOM     15  O   UNL     1       0.052  -2.767   2.368  0.00  0.00    -0.454 OA
BRANCH  15  16
ATOM     16  C   UNL     1       0.157  -2.053   3.520  0.00  0.00    +0.147 A 
ATOM     17  C   UNL     1       1.407  -1.767   4.048  0.00  0.00    +0.049 A 
ATOM     18  C   UNL     1       1.512  -1.042   5.219  0.00  0.00    +0.019 A 
ATOM     19  C   UNL     1       0.371  -0.600   5.866  0.00  0.00    +0.019 A 
ATOM     20  C   UNL     1      -0.877  -0.884   5.342  0.00  0.00    +0.039 A 
ATOM     21  C   UNL     1      -0.987  -1.605   4.167  0.00  0.00    +0.084 A 
ATOM     22 CL   UNL     1      -2.553  -1.956   3.506  0.00  0.00    -0.080 Cl
ATOM     23 BR   UNL     1       0.518   0.392   7.469  0.00  0.00    -0.050 Br
ENDBRANCH  15  16
ENDBRANCH   6  15
TORSDOF 4
