REMARK  Name = ZINC00521366
REMARK  8 active torsions:
REMARK  status: ('A' for Active; 'I' for Inactive)
REMARK    1  A    between atoms: C_1  and  C_2
REMARK    2  A    between atoms: C_3  and  C_17
REMARK    3  A    between atoms: C_4  and  C_10
REMARK    4  A    between atoms: C_17  and  O_19
REMARK    5  A    between atoms: O_19  and  C_20
REMARK    6  A    between atoms: C_20  and  C_21
REMARK    7  A    between atoms: C_20  and  C_22
REMARK    8  A    between atoms: C_20  and  C_23
REMARK                            x       y       z     vdW  Elec       q    Type
REMARK                         _______ _______ _______ _____ _____    ______ ____
ROOT
ATOM      1  C   UNL     1      -0.982   2.553  -3.407  0.00  0.00    +0.061 C 
ATOM      2  C   UNL     1      -0.228   2.224  -2.145  0.00  0.00    +0.019 C 
ATOM      3  C   UNL     1      -0.869   1.602  -1.131  0.00  0.00    +0.078 C 
ATOM      4  C   UNL     1      -0.073   1.290   0.120  0.00  0.00    +0.144 C 
ATOM      5  N   UNL     1       1.344   1.692   0.128  0.00  0.00    -0.315 N 
ATOM      6  C   UNL     1       1.842   2.305  -0.964  0.00  0.00    +0.135 C 
ATOM      7  S   UNL     1       3.487   2.777  -0.970  0.00  0.00    -0.019 S 
ATOM      8  N   UNL     1       1.092   2.557  -2.045  0.00  0.00    -0.300 N 
ATOM      9  H   UNL     1       1.905   1.519   0.900  0.00  0.00    +0.149 HD
ATOM     10  H   UNL     1       1.510   3.002  -2.798  0.00  0.00    +0.154 HD
ENDROOT
BRANCH   4  11
ATOM     11  C   UNL     1      -0.753   1.965   1.283  0.00  0.00    +0.013 A 
ATOM     12  C   UNL     1      -1.547   3.076   1.070  0.00  0.00    +0.008 A 
ATOM     13  C   UNL     1      -2.175   3.692   2.136  0.00  0.00    +0.001 A 
ATOM     14  C   UNL     1      -2.002   3.204   3.418  0.00  0.00    +0.003 A 
ATOM     15  C   UNL     1      -1.205   2.097   3.634  0.00  0.00    +0.039 A 
ATOM     16  C   UNL     1      -0.579   1.476   2.567  0.00  0.00    +0.129 A 
ATOM     17  F   UNL     1       0.200   0.392   2.777  0.00  0.00    -0.205 F 
ENDBRANCH   4  11
BRANCH   3  18
ATOM     18  C   UNL     1      -2.236   1.256  -1.234  0.00  0.00    +0.339 C 
ATOM     19  O   UNL     1      -2.881   1.606  -2.204  0.00  0.00    -0.245 OA
BRANCH  18  20
ATOM     20  O   UNL     1      -2.825   0.535  -0.256  0.00  0.00    -0.456 OA
BRANCH  20  21
ATOM     21  C   UNL     1      -4.208   0.221  -0.425  0.00  0.00    +0.106 C 
ATOM     22  C   UNL     1      -4.392  -0.597  -1.706  0.00  0.00    +0.055 C 
ATOM     23  C   UNL     1      -4.697  -0.594   0.774  0.00  0.00    +0.055 C 
ATOM     24  C   UNL     1      -5.017   1.516  -0.526  0.00  0.00    +0.055 C 
ENDBRANCH  20  21
ENDBRANCH  18  20
ENDBRANCH   3  18
TORSDOF 4
