REMARK  Name = ZINC39607261
REMARK  11 active torsions:
REMARK  status: ('A' for Active; 'I' for Inactive)
REMARK    1  A    between atoms: C_1  and  C_2
REMARK    2  A    between atoms: C_5  and  C_9
REMARK    3  A    between atoms: C_6  and  C_8
REMARK    4  A    between atoms: C_9  and  N_10
REMARK    5  A    between atoms: C_11  and  C_13
REMARK    6  A    between atoms: C_24  and  C_26
REMARK    7  A    between atoms: C_26  and  C_28
REMARK    8  A    between atoms: C_26  and  O_31
REMARK    9  A    between atoms: C_28  and  C_29
REMARK   10  A    between atoms: C_28  and  C_30
REMARK   11  A    between atoms: O_31  and  C_32
REMARK                            x       y       z     vdW  Elec       q    Type
REMARK                         _______ _______ _______ _____ _____    ______ ____
ROOT
ATOM      1  C   UNL     1      -3.196  -6.611   0.179  0.00  0.00    +0.100 C 
ATOM      2  C   UNL     1      -3.524  -6.253   1.646  0.00  0.00    +0.121 C 
ATOM      3  N   UNL     1      -4.217  -7.450   2.178  0.00  0.00    -0.297 N 
ATOM      4  C   UNL     1      -3.483  -8.594   1.587  0.00  0.00    +0.115 C 
ATOM      5  C   UNL     1      -3.170  -8.149   0.145  0.00  0.00    -0.004 C 
ATOM      6  C   UNL     1      -1.788  -8.644  -0.271  0.00  0.00    -0.010 C 
ATOM      7  C   UNL     1      -1.803 -10.173  -0.355  0.00  0.00    -0.082 C 
ATOM      8  N   UNL     1      -2.812 -10.602  -1.330  0.00  0.00    +0.379 N 
ATOM      9  C   UNL     1      -4.150 -10.202  -0.875  0.00  0.00    -0.082 C 
ATOM     10  C   UNL     1      -4.234  -8.674  -0.813  0.00  0.00    -0.010 C 
ATOM     11  C   UNL     1      -5.276  -7.489   3.011  0.00  0.00    +0.257 C 
ATOM     12  O   UNL     1      -5.682  -8.554   3.427  0.00  0.00    -0.272 OA
ATOM     13  H   UNL     1      -2.620 -10.172  -2.223  0.00  0.00    -0.086 HD
ATOM     14  H   UNL     1      -2.778 -11.605  -1.428  0.00  0.00    -0.086 HD
ENDROOT
BRANCH   1  16
ATOM     15  N   UNL     1      -1.550  -5.867  -1.509  0.00  0.00    -0.311 N 
ATOM     16  C   UNL     1      -1.851  -6.054  -0.209  0.00  0.00    +0.218 C 
ATOM     17  O   UNL     1      -1.040  -5.775   0.648  0.00  0.00    -0.275 OA
ATOM     18  H   UNL     1      -2.198  -6.090  -2.195  0.00  0.00    +0.149 HD
BRANCH  15  19
ATOM     19  C   UNL     1      -0.242  -5.325  -1.887  0.00  0.00    +0.139 C 
BRANCH  19  24
ATOM     20  C   UNL     1       0.075  -4.902  -7.641  0.00  0.00    +0.044 C 
ATOM     21  C   UNL     1      -0.007  -5.012  -6.141  0.00  0.00    -0.050 A 
ATOM     22  C   UNL     1       0.585  -6.080  -5.492  0.00  0.00    +0.004 A 
ATOM     23  C   UNL     1       0.509  -6.181  -4.116  0.00  0.00    +0.006 A 
ATOM     24  C   UNL     1      -0.158  -5.214  -3.388  0.00  0.00    -0.027 A 
ATOM     25  C   UNL     1      -0.750  -4.146  -4.035  0.00  0.00    -0.046 A 
ATOM     26  C   UNL     1      -0.670  -4.043  -5.412  0.00  0.00    +0.007 A 
ATOM     27  C   UNL     1      -1.478  -3.092  -3.241  0.00  0.00    +0.044 C 
ENDBRANCH  19  24
ENDBRANCH  15  19
ENDBRANCH   1  16
BRANCH  11  28
ATOM     28  C   UNL     1      -5.956  -6.210   3.426  0.00  0.00    +0.261 C 
BRANCH  28  29
ATOM     29  C   UNL     1      -5.266  -5.644   4.669  0.00  0.00    +0.033 C 
ATOM     30  C   UNL     1      -3.772  -5.472   4.388  0.00  0.00    +0.011 C 
ATOM     31  C   UNL     1      -5.878  -4.287   5.020  0.00  0.00    +0.011 C 
ENDBRANCH  28  29
BRANCH  28  32
ATOM     32  O   UNL     1      -7.329  -6.475   3.723  0.00  0.00    -0.479 OA
BRANCH  32  33
ATOM     33  C   UNL     1      -8.224  -5.495   3.430  0.00  0.00    +0.122 A 
ATOM     34  C   UNL     1      -7.804  -4.342   2.783  0.00  0.00    +0.045 A 
ATOM     35  C   UNL     1      -8.716  -3.347   2.485  0.00  0.00    +0.004 A 
ATOM     36  C   UNL     1     -10.046  -3.501   2.832  0.00  0.00    +0.000 A 
ATOM     37  C   UNL     1     -10.466  -4.649   3.478  0.00  0.00    +0.004 A 
ATOM     38  C   UNL     1      -9.559  -5.649   3.772  0.00  0.00    +0.045 A 
ENDBRANCH  32  33
ENDBRANCH  28  32
ENDBRANCH  11  28
TORSDOF 7
