REMARK  Name = ZINC29695193
REMARK  8 active torsions:
REMARK  status: ('A' for Active; 'I' for Inactive)
REMARK    1  A    between atoms: C_1  and  C_2
REMARK    2  A    between atoms: C_2  and  C_3
REMARK    3  A    between atoms: C_2  and  C_4
REMARK    4  A    between atoms: C_2  and  C_10
REMARK    5  A    between atoms: N_15  and  C_18
REMARK    6  A    between atoms: C_18  and  C_19
REMARK    7  A    between atoms: C_22  and  C_28
REMARK    8  A    between atoms: C_24  and  N_25
REMARK                            x       y       z     vdW  Elec       q    Type
REMARK                         _______ _______ _______ _____ _____    ______ ____
ROOT
ATOM      1  C   UNL     1      -1.893  -0.364   0.360  0.00  0.00    +0.226 C 
ATOM      2  O   UNL     1      -2.896   0.247   0.058  0.00  0.00    -0.275 OA
ATOM      3  N   UNL     1      -1.894  -1.712   0.343  0.00  0.00    -0.298 N 
ATOM      4  C   UNL     1      -0.727  -2.473   0.814  0.00  0.00    +0.123 C 
ATOM      5  C   UNL     1      -1.211  -3.517   1.832  0.00  0.00    +0.103 C 
ATOM      6  N   UNL     1      -2.277  -4.327   1.226  0.00  0.00    -0.295 NA
ATOM      7  C   UNL     1      -3.450  -3.504   0.898  0.00  0.00    +0.103 C 
ATOM      8  C   UNL     1      -3.059  -2.459  -0.153  0.00  0.00    +0.123 C 
ENDROOT
BRANCH   1  10
ATOM      9  C   UNL     1      -0.884   1.888   0.607  0.00  0.00    +0.025 C 
ATOM     10  C   UNL     1      -0.646   0.384   0.755  0.00  0.00    +0.066 C 
ATOM     11  C   UNL     1       0.512  -0.040  -0.151  0.00  0.00    +0.025 C 
BRANCH  10  12
ATOM     12  C   UNL     1      -0.304   0.069   2.189  0.00  0.00    -0.033 A 
ATOM     13  C   UNL     1      -1.186  -0.658   2.966  0.00  0.00    +0.004 A 
ATOM     14  C   UNL     1      -0.870  -0.951   4.279  0.00  0.00    +0.000 A 
ATOM     15  C   UNL     1       0.324  -0.510   4.818  0.00  0.00    +0.000 A 
ATOM     16  C   UNL     1       1.204   0.221   4.043  0.00  0.00    +0.000 A 
ATOM     17  C   UNL     1       0.890   0.510   2.728  0.00  0.00    +0.004 A 
ENDBRANCH  10  12
ENDBRANCH   1  10
BRANCH   6  18
ATOM     18  C   UNL     1      -2.648  -5.448   2.099  0.00  0.00    +0.122 C 
BRANCH  18  19
ATOM     19  C   UNL     1      -1.409  -6.214   2.486  0.00  0.00    -0.003 A 
ATOM     20  C   UNL     1      -0.878  -6.069   3.756  0.00  0.00    +0.008 A 
ATOM     21  C   UNL     1       0.255  -6.768   4.117  0.00  0.00    +0.013 A 
ATOM     22  C   UNL     1       0.866  -7.623   3.198  0.00  0.00    +0.039 A 
ATOM     23  C   UNL     1       0.325  -7.765   1.919  0.00  0.00    +0.046 A 
ATOM     24  C   UNL     1      -0.812  -7.064   1.573  0.00  0.00    +0.131 A 
BRANCH  22  25
ATOM     25  C   UNL     1       2.081  -8.375   3.578  0.00  0.00    +0.242 C 
ATOM     26  O   UNL     1       2.611  -9.119   2.776  0.00  0.00    -0.270 OA
ATOM     27  N   UNL     1       2.600  -8.236   4.814  0.00  0.00    -0.325 N 
ATOM     28  H   UNL     1       3.504  -8.796   5.096  0.00  0.00    +0.145 HD
ATOM     29  H   UNL     1       2.121  -7.563   5.540  0.00  0.00    +0.145 HD
ENDBRANCH  22  25
BRANCH  24  30
ATOM     30  N   UNL     1      -1.390  -7.217   0.219  0.00  0.00    +0.057 N 
ATOM     31  O   UNL     1      -0.937  -8.050  -0.546  0.00  0.00    -0.126 OA
ATOM     32  O   UNL     1      -2.318  -6.510  -0.130  0.00  0.00    -0.126 OA
ENDBRANCH  24  30
ENDBRANCH  18  19
ENDBRANCH   6  18
TORSDOF 6
