REMARK  Name = ZINC04648847
REMARK  4 active torsions:
REMARK  status: ('A' for Active; 'I' for Inactive)
REMARK    1  A    between atoms: C_1  and  C_2
REMARK    2  A    between atoms: C_3  and  C_15
REMARK    3  A    between atoms: C_8  and  N_14
REMARK    4  A    between atoms: C_9  and  C_11
REMARK                            x       y       z     vdW  Elec       q    Type
REMARK                         _______ _______ _______ _____ _____    ______ ____
ROOT
ATOM      1  C   UNL     1       3.803   1.785   1.296  0.00  0.00    +0.046 C 
ATOM      2  C   UNL     1       2.519   1.006   1.169  0.00  0.00    -0.016 A 
ATOM      3  C   UNL     1       1.343   1.495   1.690  0.00  0.00    +0.064 A 
ATOM      4  N   UNL     1       0.213   0.819   1.583  0.00  0.00    -0.153 NA
ATOM      5  N   UNL     1       0.156  -0.323   0.991  0.00  0.00    -0.142 NA
ATOM      6  C   UNL     1       1.224  -0.876   0.460  0.00  0.00    +0.133 A 
ATOM      7  C   UNL     1       2.491  -0.248   0.511  0.00  0.00    +0.035 A 
ATOM      8  C   UNL     1       3.573  -0.985  -0.120  0.00  0.00    +0.054 A 
ATOM      9  C   UNL     1       3.283  -2.201  -0.699  0.00  0.00    +0.097 A 
ATOM     10  S   UNL     1       1.535  -2.390  -0.411  0.00  0.00    -0.060 S 
ATOM     11  C   UNL     1       1.344   2.827   2.396  0.00  0.00    +0.068 C 
ENDROOT
BRANCH   9  12
ATOM     12  C   UNL     1       4.193  -3.117  -1.385  0.00  0.00    +0.250 C 
ATOM     13  O   UNL     1       5.372  -2.834  -1.497  0.00  0.00    -0.270 OA
ATOM     14  N   UNL     1       3.727  -4.274  -1.894  0.00  0.00    -0.325 N 
ATOM     15  H   UNL     1       2.787  -4.500  -1.806  0.00  0.00    +0.145 HD
ATOM     16  H   UNL     1       4.330  -4.882  -2.350  0.00  0.00    +0.145 HD
ENDBRANCH   9  12
BRANCH   8  17
ATOM     17  N   UNL     1       4.865  -0.478  -0.137  0.00  0.00    -0.356 N 
ATOM     18  H   UNL     1       5.013   0.477  -0.045  0.00  0.00    +0.142 HD
ATOM     19  H   UNL     1       5.620  -1.077  -0.242  0.00  0.00    +0.142 HD
ENDBRANCH   8  17
TORSDOF 2
