REMARK  Name = ZINC63186964
REMARK  6 active torsions:
REMARK  status: ('A' for Active; 'I' for Inactive)
REMARK    1  A    between atoms: C_1  and  C_2
REMARK    2  A    between atoms: C_5  and  S_11
REMARK    3  A    between atoms: C_7  and  N_8
REMARK    4  A    between atoms: S_11  and  N_14
REMARK    5  A    between atoms: N_14  and  C_15
REMARK    6  A    between atoms: C_17  and  C_18
REMARK                            x       y       z     vdW  Elec       q    Type
REMARK                         _______ _______ _______ _____ _____    ______ ____
ROOT
ATOM      1  S   UNL     1       0.627  -4.470  -0.108  0.00  0.00    +0.059 S 
ATOM      2  O   UNL     1       0.420  -4.968   1.207  0.00  0.00    -0.153 OA
ATOM      3  O   UNL     1      -0.069  -4.983  -1.235  0.00  0.00    -0.153 OA
ENDROOT
BRANCH   1   8
ATOM      4  C   UNL     1      -0.537   1.447   0.088  0.00  0.00    +0.046 C 
ATOM      5  C   UNL     1      -0.246  -0.031   0.039  0.00  0.00    -0.020 A 
ATOM      6  C   UNL     1      -0.347  -0.716  -1.157  0.00  0.00    +0.007 A 
ATOM      7  C   UNL     1      -0.080  -2.071  -1.202  0.00  0.00    +0.029 A 
ATOM      8  C   UNL     1       0.288  -2.742  -0.051  0.00  0.00    +0.107 A 
ATOM      9  C   UNL     1       0.390  -2.057   1.145  0.00  0.00    +0.061 A 
ATOM     10  C   UNL     1       0.127  -0.700   1.190  0.00  0.00    +0.131 A 
BRANCH  10  11
ATOM     11  N   UNL     1       0.241   0.035   2.470  0.00  0.00    +0.057 N 
ATOM     12  O   UNL     1       0.674   1.163   2.482  0.00  0.00    -0.126 OA
ATOM     13  O   UNL     1      -0.099  -0.494   3.502  0.00  0.00    -0.126 OA
ENDBRANCH  10  11
ENDBRANCH   1   8
BRANCH   1  14
ATOM     14  N   UNL     1       2.242  -4.642  -0.430  0.00  0.00    -0.186 NA
ATOM     15  H   UNL     1       2.530  -5.050  -1.262  0.00  0.00    +0.148 HD
BRANCH  14  16
ATOM     16  C   UNL     1       3.236  -4.177   0.540  0.00  0.00    +0.085 C 
ATOM     17  C   UNL     1       4.552  -3.620  -0.007  0.00  0.00    +0.030 C 
ATOM     18  C   UNL     1       4.526  -4.990   0.674  0.00  0.00    +0.039 C 
BRANCH  18  19
ATOM     19  C   UNL     1       5.142  -5.096   2.046  0.00  0.00    -0.043 A 
ATOM     20  C   UNL     1       5.535  -3.954   2.717  0.00  0.00    +0.004 A 
ATOM     21  C   UNL     1       6.101  -4.051   3.975  0.00  0.00    +0.000 A 
ATOM     22  C   UNL     1       6.272  -5.291   4.561  0.00  0.00    +0.000 A 
ATOM     23  C   UNL     1       5.878  -6.434   3.890  0.00  0.00    +0.000 A 
ATOM     24  C   UNL     1       5.309  -6.336   2.634  0.00  0.00    +0.004 A 
ENDBRANCH  18  19
ENDBRANCH  14  16
ENDBRANCH   1  14
TORSDOF 5
