REMARK  Name = ZINC36369664
REMARK  7 active torsions:
REMARK  status: ('A' for Active; 'I' for Inactive)
REMARK    1  A    between atoms: C_1  and  C_2
REMARK    2  A    between atoms: C_2  and  C_3
REMARK    3  A    between atoms: C_4  and  C_9
REMARK    4  A    between atoms: N_11  and  N_12
REMARK    5  A    between atoms: C_13  and  C_14
REMARK    6  A    between atoms: C_17  and  O_23
REMARK    7  A    between atoms: C_18  and  N_20
REMARK                            x       y       z     vdW  Elec       q    Type
REMARK                         _______ _______ _______ _____ _____    ______ ____
ROOT
ATOM      1  C   UNL     1      -1.643  -0.622   2.580  0.00  0.00    +0.272 C 
ATOM      2  O   UNL     1      -0.521  -0.210   2.815  0.00  0.00    -0.268 OA
ATOM      3  N   UNL     1      -2.473  -0.932   3.596  0.00  0.00    -0.202 N 
ATOM      4  H   UNL     1      -3.366  -1.260   3.409  0.00  0.00    +0.178 HD
ENDROOT
BRANCH   1   6
ATOM      5  C   UNL     1      -1.412  -0.526   0.013  0.00  0.00    +0.062 A 
ATOM      6  C   UNL     1      -2.089  -0.780   1.197  0.00  0.00    +0.100 A 
ATOM      7  S   UNL     1      -3.656  -1.356   0.563  0.00  0.00    -0.048 S 
ATOM      8  C   UNL     1      -3.308  -1.221  -1.078  0.00  0.00    +0.156 A 
ATOM      9  N   UNL     1      -2.070  -0.758  -1.095  0.00  0.00    -0.229 NA
ATOM     10  N   UNL     1      -4.123  -1.517  -2.149  0.00  0.00    -0.337 N 
ATOM     11  H   UNL     1      -5.021  -1.849  -1.998  0.00  0.00    +0.144 HD
ATOM     12  H   UNL     1      -3.797  -1.394  -3.055  0.00  0.00    +0.144 HD
BRANCH   5  14
ATOM     13  C   UNL     1      -0.019   1.526   0.010  0.00  0.00    +0.010 C 
ATOM     14  C   UNL     1       0.002  -0.004   0.002  0.00  0.00    +0.053 C 
ENDBRANCH   5  14
ENDBRANCH   1   6
BRANCH   3  15
ATOM     15  N   UNL     1      -2.045  -0.780   4.921  0.00  0.00    -0.187 NA
ATOM     16  C   UNL     1      -2.844  -1.079   5.900  0.00  0.00    +0.138 C 
BRANCH  16  17
ATOM     17  C   UNL     1      -2.394  -0.920   7.294  0.00  0.00    -0.003 A 
ATOM     18  C   UNL     1      -1.109  -0.441   7.566  0.00  0.00    +0.013 A 
ATOM     19  C   UNL     1      -0.693  -0.294   8.871  0.00  0.00    +0.048 A 
ATOM     20  C   UNL     1      -1.548  -0.620   9.916  0.00  0.00    +0.147 A 
ATOM     21  C   UNL     1      -2.826  -1.096   9.651  0.00  0.00    +0.168 A 
ATOM     22  C   UNL     1      -3.253  -1.241   8.349  0.00  0.00    +0.046 A 
BRANCH  21  23
ATOM     23  N   UNL     1      -3.732  -1.442  10.769  0.00  0.00    +0.060 N 
ATOM     24  O   UNL     1      -4.844  -1.856  10.539  0.00  0.00    -0.126 OA
ATOM     25  O   UNL     1      -3.360  -1.310  11.912  0.00  0.00    -0.126 OA
ENDBRANCH  21  23
BRANCH  20  26
ATOM     26  O   UNL     1      -1.134  -0.473  11.201  0.00  0.00    -0.504 OA
ATOM     27  H   UNL     1      -1.323   0.398  11.579  0.00  0.00    +0.292 HD
ENDBRANCH  20  26
ENDBRANCH  16  17
ENDBRANCH   3  15
TORSDOF 6
