REMARK  Name = ZINC04199847
REMARK  11 active torsions:
REMARK  status: ('A' for Active; 'I' for Inactive)
REMARK    1  A    between atoms: C_1  and  C_2
REMARK    2  A    between atoms: C_5  and  C_8
REMARK    3  A    between atoms: C_9  and  C_36
REMARK    4  A    between atoms: C_11  and  N_19
REMARK    5  A    between atoms: C_12  and  C_13
REMARK    6  A    between atoms: C_13  and  O_15
REMARK    7  A    between atoms: O_15  and  C_16
REMARK    8  A    between atoms: C_16  and  C_17
REMARK    9  A    between atoms: C_16  and  C_18
REMARK   10  A    between atoms: C_20  and  C_22
REMARK   11  A    between atoms: C_30  and  C_32
REMARK                            x       y       z     vdW  Elec       q    Type
REMARK                         _______ _______ _______ _____ _____    ______ ____
ROOT
ATOM      1  C   UNL     1       0.004  -4.259   0.093  0.00  0.00    +0.008 A 
ATOM      2  C   UNL     1      -0.989  -4.993  -0.472  0.00  0.00    -0.003 A 
ATOM      3  S   UNL     1      -0.418  -6.668  -0.285  0.00  0.00    -0.077 S 
ATOM      4  C   UNL     1       1.044  -6.401   0.494  0.00  0.00    +0.087 A 
ATOM      5  C   UNL     1       1.122  -5.023   0.619  0.00  0.00    +0.095 A 
ATOM      6  C   UNL     1      -2.267  -4.506  -1.105  0.00  0.00    +0.052 C 
ENDROOT
BRANCH   1  11
ATOM      7  C   UNL     1      -0.194   1.489   0.366  0.00  0.00    +0.044 C 
ATOM      8  C   UNL     1      -0.142  -0.015   0.295  0.00  0.00    -0.050 A 
ATOM      9  C   UNL     1      -0.072  -0.645  -0.935  0.00  0.00    +0.004 A 
ATOM     10  C   UNL     1      -0.024  -2.022  -1.007  0.00  0.00    +0.009 A 
ATOM     11  C   UNL     1      -0.047  -2.779   0.164  0.00  0.00    -0.016 A 
ATOM     12  C   UNL     1      -0.117  -2.139   1.400  0.00  0.00    +0.009 A 
ATOM     13  C   UNL     1      -0.160  -0.761   1.460  0.00  0.00    +0.004 A 
ENDBRANCH   1  11
BRANCH   4  14
ATOM     14  N   UNL     1       1.967  -7.345   0.913  0.00  0.00    -0.279 N 
ATOM     15  C   UNL     1       1.733  -8.656   0.704  0.00  0.00    +0.224 C 
ATOM     16  O   UNL     1       0.713  -9.009   0.150  0.00  0.00    -0.275 OA
ATOM     17  H   UNL     1       2.782  -7.063   1.356  0.00  0.00    +0.155 HD
BRANCH  15  18
ATOM     18  C   UNL     1       2.737  -9.683   1.160  0.00  0.00    +0.120 C 
ATOM     19  C   UNL     1       2.467 -10.102   2.637  0.00  0.00    +0.131 C 
ATOM     20  C   UNL     1       0.927 -10.321   2.727  0.00  0.00    +0.035 C 
ATOM     21  C   UNL     1       0.723 -11.648   1.952  0.00  0.00    +0.035 C 
ATOM     22  C   UNL     1       2.172 -12.019   1.516  0.00  0.00    +0.133 C 
ATOM     23  C   UNL     1       2.555 -11.012   0.383  0.00  0.00    +0.145 C 
ATOM     24  O   UNL     1       2.969 -11.479   2.639  0.00  0.00    -0.372 OA
BRANCH  23  25
ATOM     25  C   UNL     1       3.835 -11.407  -0.307  0.00  0.00    +0.362 C 
ATOM     26  O   UNL     1       4.091 -12.585  -0.489  0.00  0.00    -0.246 OA
ATOM     27  O   UNL     1       4.615 -10.548  -0.682  0.00  0.00    -0.246 OA
ENDBRANCH  23  25
ENDBRANCH  15  18
ENDBRANCH   4  14
BRANCH   5  28
ATOM     28  C   UNL     1       2.269  -4.372   1.251  0.00  0.00    +0.342 C 
ATOM     29  O   UNL     1       2.265  -4.162   2.450  0.00  0.00    -0.245 OA
BRANCH  28  30
ATOM     30  O   UNL     1       3.332  -4.004   0.506  0.00  0.00    -0.458 OA
BRANCH  30  31
ATOM     31  C   UNL     1       4.416  -3.373   1.190  0.00  0.00    +0.171 C 
ATOM     32  C   UNL     1       5.410  -4.437   1.661  0.00  0.00    +0.052 C 
ATOM     33  C   UNL     1       5.121  -2.402   0.240  0.00  0.00    +0.052 C 
ENDBRANCH  30  31
ENDBRANCH  28  30
ENDBRANCH   5  28
TORSDOF 7
