REMARK  Name = ZINC67128859
REMARK  8 active torsions:
REMARK  status: ('A' for Active; 'I' for Inactive)
REMARK    1  A    between atoms: C_1  and  C_2
REMARK    2  A    between atoms: C_2  and  O_3
REMARK    3  A    between atoms: O_3  and  C_4
REMARK    4  A    between atoms: C_7  and  C_10
REMARK    5  A    between atoms: C_12  and  C_15
REMARK    6  A    between atoms: C_15  and  N_16
REMARK    7  A    between atoms: C_18  and  O_26
REMARK    8  A    between atoms: C_21  and  C_23
REMARK                            x       y       z     vdW  Elec       q    Type
REMARK                         _______ _______ _______ _____ _____    ______ ____
ROOT
ATOM      1  C   UNL     1       1.108  -6.015  -1.844  0.00  0.00    +0.108 A 
ATOM      2  N   UNL     1       1.680  -6.702  -2.823  0.00  0.00    -0.246 NA
ATOM      3  C   UNL     1       1.690  -8.015  -2.818  0.00  0.00    +0.033 A 
ATOM      4  C   UNL     1       1.107  -8.693  -1.796  0.00  0.00    +0.068 A 
ATOM      5  S   UNL     1       0.521  -7.335  -0.790  0.00  0.00    -0.075 S 
ENDROOT
BRANCH   1   9
ATOM      6  C   UNL     1       0.777  -1.810  -1.336  0.00  0.00    +0.121 A 
ATOM      7  C   UNL     1       0.241  -2.666  -0.384  0.00  0.00    +0.046 A 
ATOM      8  C   UNL     1       0.346  -4.031  -0.545  0.00  0.00    +0.014 A 
ATOM      9  C   UNL     1       0.993  -4.552  -1.667  0.00  0.00    +0.007 A 
ATOM     10  C   UNL     1       1.530  -3.687  -2.623  0.00  0.00    +0.014 A 
ATOM     11  C   UNL     1       1.415  -2.324  -2.457  0.00  0.00    +0.046 A 
BRANCH   6  12
ATOM     12  O   UNL     1       0.671  -0.465  -1.174  0.00  0.00    -0.492 OA
BRANCH  12  14
ATOM     13  C   UNL     1      -0.019   1.526   0.010  0.00  0.00    +0.048 C 
ATOM     14  C   UNL     1       0.002  -0.004   0.002  0.00  0.00    +0.225 C 
ENDBRANCH  12  14
ENDBRANCH   6  12
ENDBRANCH   1   9
BRANCH   3  15
ATOM     15  C   UNL     1       2.348  -8.768  -3.945  0.00  0.00    -0.021 C 
BRANCH  15  16
ATOM     16  N   UNL     1       1.396  -8.920  -5.054  0.00  0.00    +0.393 N 
ATOM     17  C   UNL     1       1.126  -7.601  -5.681  0.00  0.00    -0.046 C 
ATOM     18  C   UNL     1       0.613  -7.978  -7.093  0.00  0.00    +0.097 C 
ATOM     19  C   UNL     1       1.486  -9.198  -7.464  0.00  0.00    +0.023 C 
ATOM     20  C   UNL     1       1.985  -9.760  -6.120  0.00  0.00    +0.022 C 
ATOM     21  H   UNL     1       0.537  -9.331  -4.722  0.00  0.00    -0.080 HD
BRANCH  20  22
ATOM     22  C   UNL     1       1.528 -11.187  -5.959  0.00  0.00    +0.197 C 
ATOM     23  O   UNL     1       0.785 -11.487  -5.049  0.00  0.00    -0.278 OA
ATOM     24  N   UNL     1       1.946 -12.130  -6.827  0.00  0.00    -0.331 N 
ATOM     25  H   UNL     1       2.540 -11.890  -7.555  0.00  0.00    +0.145 HD
ATOM     26  H   UNL     1       1.652 -13.049  -6.724  0.00  0.00    +0.145 HD
ENDBRANCH  20  22
BRANCH  18  27
ATOM     27  O   UNL     1       0.823  -6.903  -8.011  0.00  0.00    -0.394 OA
ATOM     28  H   UNL     1       0.518  -7.089  -8.910  0.00  0.00    +0.210 HD
ENDBRANCH  18  27
ENDBRANCH  15  16
ENDBRANCH   3  15
TORSDOF 7
