REMARK  Name = ZINC07982120
REMARK  6 active torsions:
REMARK  status: ('A' for Active; 'I' for Inactive)
REMARK    1  A    between atoms: C_1  and  C_2
REMARK    2  A    between atoms: C_2  and  C_4
REMARK    3  A    between atoms: C_2  and  N_14
REMARK    4  A    between atoms: C_4  and  C_6
REMARK    5  A    between atoms: C_4  and  O_13
REMARK    6  A    between atoms: C_9  and  O_12
REMARK                            x       y       z     vdW  Elec       q    Type
REMARK                         _______ _______ _______ _____ _____    ______ ____
ROOT
ATOM      1  N   UNL     1      -1.261   1.776  -0.079  0.00  0.00    -0.323 N 
ATOM      2  C   UNL     1      -0.261   1.422   0.809  0.00  0.00    +0.131 A 
ATOM      3  C   UNL     1       0.973   2.131   0.825  0.00  0.00    +0.051 A 
ATOM      4  C   UNL     1       1.389   3.264  -0.003  0.00  0.00    -0.025 A 
ATOM      5  C   UNL     1       2.625   3.759   0.214  0.00  0.00    -0.004 A 
ATOM      6  S   UNL     1       3.300   2.761   1.515  0.00  0.00    -0.073 S 
ATOM      7  C   UNL     1       1.919   1.678   1.766  0.00  0.00    +0.114 A 
ATOM      8  N   UNL     1       1.661   0.665   2.570  0.00  0.00    -0.228 NA
ATOM      9  C   UNL     1       0.498   0.046   2.509  0.00  0.00    +0.224 A 
ATOM     10  N   UNL     1      -0.436   0.416   1.651  0.00  0.00    -0.220 NA
ATOM     11  C   UNL     1       3.281   4.905  -0.494  0.00  0.00    +0.043 C 
ATOM     12  C   UNL     1       2.481   5.209  -1.769  0.00  0.00    +0.005 C 
ATOM     13  C   UNL     1       0.993   5.272  -1.411  0.00  0.00    +0.005 C 
ATOM     14  C   UNL     1       0.482   3.872  -1.069  0.00  0.00    +0.037 C 
ATOM     15  H   UNL     1      -1.095   2.456  -0.750  0.00  0.00    +0.148 HD
ENDROOT
BRANCH   1  17
ATOM     16  C   UNL     1      -2.939   0.565  -1.382  0.00  0.00    +0.031 C 
ATOM     17  C   UNL     1      -2.570   1.122  -0.006  0.00  0.00    +0.102 C 
BRANCH  17  18
ATOM     18  C   UNL     1      -3.624   2.140   0.432  0.00  0.00    +0.164 C 
BRANCH  18  19
ATOM     19  C   UNL     1      -3.257   2.692   1.786  0.00  0.00    -0.017 A 
ATOM     20  C   UNL     1      -2.419   3.788   1.880  0.00  0.00    +0.010 A 
ATOM     21  C   UNL     1      -2.085   4.299   3.119  0.00  0.00    +0.046 A 
ATOM     22  C   UNL     1      -2.584   3.706   4.270  0.00  0.00    +0.117 A 
ATOM     23  C   UNL     1      -3.421   2.604   4.173  0.00  0.00    +0.046 A 
ATOM     24  C   UNL     1      -3.756   2.100   2.931  0.00  0.00    +0.010 A 
BRANCH  22  25
ATOM     25  O   UNL     1      -2.252   4.204   5.490  0.00  0.00    -0.507 OA
ATOM     26  H   UNL     1      -1.454   3.813   5.871  0.00  0.00    +0.292 HD
ENDBRANCH  22  25
ENDBRANCH  18  19
BRANCH  18  27
ATOM     27  O   UNL     1      -3.681   3.206  -0.518  0.00  0.00    -0.385 OA
ATOM     28  H   UNL     1      -2.848   3.685  -0.622  0.00  0.00    +0.210 HD
ENDBRANCH  18  27
ENDBRANCH  17  18
ENDBRANCH   1  17
TORSDOF 5
