REMARK  Name = ZINC16969627
REMARK  8 active torsions:
REMARK  status: ('A' for Active; 'I' for Inactive)
REMARK    1  A    between atoms: C_1  and  C_2
REMARK    2  A    between atoms: C_14  and  O_31
REMARK    3  A    between atoms: C_17  and  C_30
REMARK    4  A    between atoms: C_21  and  O_29
REMARK    5  A    between atoms: C_23  and  C_24
REMARK    6  A    between atoms: C_23  and  O_28
REMARK    7  A    between atoms: C_24  and  C_26
REMARK    8  A    between atoms: C_26  and  O_27
REMARK                            x       y       z     vdW  Elec       q    Type
REMARK                         _______ _______ _______ _____ _____    ______ ____
ROOT
ATOM      1  C   UNL     1      -0.503  -0.041  -2.463  0.00  0.00    +0.019 C 
ATOM      2  C   UNL     1       0.470  -0.482  -1.374  0.00  0.00    +0.026 C 
ATOM      3  C   UNL     1       0.528  -2.002  -1.391  0.00  0.00    +0.022 C 
ATOM      4  C   UNL     1       1.490  -2.547  -2.445  0.00  0.00    +0.080 C 
ATOM      5  C   UNL     1       2.856  -1.959  -2.153  0.00  0.00    +0.156 C 
ATOM      6  O   UNL     1       3.847  -2.649  -2.056  0.00  0.00    -0.293 OA
ATOM      7  C   UNL     1       2.901  -0.502  -1.994  0.00  0.00    +0.046 C 
ATOM      8  C   UNL     1       1.814   0.166  -1.609  0.00  0.00    -0.057 C 
ATOM      9  C   UNL     1       1.988   1.657  -1.379  0.00  0.00    +0.032 C 
ATOM     10  C   UNL     1       1.415   2.038  -0.001  0.00  0.00    +0.011 C 
ATOM     11  C   UNL     1      -0.019   1.534   0.011  0.00  0.00    +0.034 C 
ATOM     12  C   UNL     1       0.002  -0.004   0.002  0.00  0.00    +0.149 C 
ATOM     13  C   UNL     1      -1.356  -0.497   0.469  0.00  0.00    +0.153 C 
ATOM     14  C   UNL     1      -1.451  -0.251   1.993  0.00  0.00    +0.044 C 
ATOM     15  C   UNL     1      -1.016   1.152   2.320  0.00  0.00    +0.012 C 
ATOM     16  C   UNL     1      -0.942   2.043   1.065  0.00  0.00    +0.007 C 
ATOM     17  C   UNL     1      -0.635   3.421   1.672  0.00  0.00    +0.039 C 
ATOM     18  C   UNL     1      -1.512   3.447   2.953  0.00  0.00    +0.154 C 
ATOM     19  C   UNL     1      -1.950   1.981   3.218  0.00  0.00    +0.157 C 
ATOM     20  C   UNL     1       0.343   1.110   3.041  0.00  0.00    +0.015 C 
ATOM     21  F   UNL     1       0.974  -0.450   0.916  0.00  0.00    -0.238 F 
ENDROOT
BRANCH  19  22
ATOM     22  C   UNL     1      -3.395   1.806   2.847  0.00  0.00    +0.193 C 
ATOM     23  O   UNL     1      -3.695   1.478   1.724  0.00  0.00    -0.292 OA
BRANCH  22  24
ATOM     24  C   UNL     1      -4.470   2.038   3.877  0.00  0.00    +0.233 C 
BRANCH  24  25
ATOM     25  O   UNL     1      -5.752   1.810   3.287  0.00  0.00    -0.387 OA
ATOM     26  H   UNL     1      -6.493   1.941   3.894  0.00  0.00    +0.210 HD
ENDBRANCH  24  25
ENDBRANCH  22  24
ENDBRANCH  19  22
BRANCH  19  27
ATOM     27  O   UNL     1      -1.734   1.643   4.588  0.00  0.00    -0.378 OA
ATOM     28  H   UNL     1      -2.294   2.132   5.207  0.00  0.00    +0.211 HD
ENDBRANCH  19  27
BRANCH  18  29
ATOM     29  O   UNL     1      -0.759   3.943   4.059  0.00  0.00    -0.388 OA
ATOM     30  H   UNL     1      -0.457   4.856   3.951  0.00  0.00    +0.210 HD
ENDBRANCH  18  29
BRANCH  13  31
ATOM     31  O   UNL     1      -1.522  -1.894   0.224  0.00  0.00    -0.389 OA
ATOM     32  H   UNL     1      -2.377  -2.244   0.509  0.00  0.00    +0.210 HD
ENDBRANCH  13  31
TORSDOF 6
