REMARK  Name = ZINC35342085
REMARK  3 active torsions:
REMARK  status: ('A' for Active; 'I' for Inactive)
REMARK    1  A    between atoms: C_4  and  N_20
REMARK    2  A    between atoms: C_7  and  N_11
REMARK    3  A    between atoms: N_11  and  C_12
REMARK                            x       y       z     vdW  Elec       q    Type
REMARK                         _______ _______ _______ _____ _____    ______ ____
ROOT
ATOM      1  C   UNL     1       0.270   1.423  -1.338  0.00  0.00    +0.020 A 
ATOM      2  C   UNL     1       1.442   2.093  -1.128  0.00  0.00    +0.013 A 
ATOM      3  C   UNL     1       2.571   1.351  -0.742  0.00  0.00    +0.023 A 
ATOM      4  C   UNL     1       3.814   1.976  -0.508  0.00  0.00    +0.034 A 
ATOM      5  C   UNL     1       4.899   1.215  -0.131  0.00  0.00    +0.025 A 
ATOM      6  C   UNL     1       4.783  -0.163   0.021  0.00  0.00    +0.027 A 
ATOM      7  C   UNL     1       3.583  -0.801  -0.201  0.00  0.00    +0.058 A 
ATOM      8  C   UNL     1       2.451  -0.052  -0.588  0.00  0.00    +0.094 A 
ATOM      9  N   UNL     1       1.276  -0.647  -0.808  0.00  0.00    -0.253 NA
ATOM     10  C   UNL     1       0.220   0.042  -1.169  0.00  0.00    +0.111 A 
ENDROOT
BRANCH   4  11
ATOM     11  N   UNL     1       3.943   3.358  -0.657  0.00  0.00    -0.357 N 
ATOM     12  H   UNL     1       3.178   3.891  -0.923  0.00  0.00    +0.142 HD
ATOM     13  H   UNL     1       4.799   3.785  -0.495  0.00  0.00    +0.142 HD
ENDBRANCH   4  11
BRANCH   7  14
ATOM     14  N   UNL     1       3.486  -2.188  -0.043  0.00  0.00    -0.312 N 
ATOM     15  H   UNL     1       2.664  -2.646  -0.279  0.00  0.00    +0.152 HD
BRANCH  14  16
ATOM     16  C   UNL     1       4.573  -2.913   0.454  0.00  0.00    +0.046 A 
ATOM     17  C   UNL     1       5.295  -2.429   1.538  0.00  0.00    +0.027 A 
ATOM     18  C   UNL     1       6.368  -3.146   2.028  0.00  0.00    +0.040 A 
ATOM     19  C   UNL     1       6.727  -4.348   1.439  0.00  0.00    +0.125 A 
ATOM     20  C   UNL     1       6.009  -4.833   0.358  0.00  0.00    +0.055 A 
ATOM     21  C   UNL     1       4.931  -4.121  -0.131  0.00  0.00    +0.042 A 
ATOM     22 BR   UNL     1       3.946  -4.788  -1.602  0.00  0.00    -0.048 Br
ATOM     23  F   UNL     1       7.778  -5.047   1.919  0.00  0.00    -0.205 F 
ENDBRANCH  14  16
ENDBRANCH   7  14
TORSDOF 3
