REMARK  Name = ZINC09015938
REMARK  3 active torsions:
REMARK  status: ('A' for Active; 'I' for Inactive)
REMARK    1  A    between atoms: C_1  and  C_2
REMARK    2  A    between atoms: C_7  and  N_12
REMARK    3  A    between atoms: C_9  and  C_11
REMARK                            x       y       z     vdW  Elec       q    Type
REMARK                         _______ _______ _______ _____ _____    ______ ____
ROOT
ATOM      1  N   UNL     1       0.715  -0.629   3.622  0.00  0.00    -0.265 NA
ATOM      2  C   UNL     1       0.178  -0.109   4.893  0.00  0.00    +0.193 C 
ATOM      3  N   UNL     1       0.882  -0.801   5.984  0.00  0.00    -0.304 N 
ATOM      4  C   UNL     1       2.240  -0.997   5.862  0.00  0.00    +0.185 C 
ATOM      5  N   UNL     1       2.845  -0.804   4.734  0.00  0.00    -0.240 NA
ATOM      6  C   UNL     1       2.155  -0.357   3.528  0.00  0.00    +0.233 C 
ATOM      7  N   UNL     1       2.967  -1.404   6.961  0.00  0.00    -0.242 N 
ATOM      8  C   UNL     1       4.329  -1.603   6.852  0.00  0.00    +0.295 A 
ATOM      9  N   UNL     1       5.026  -1.430   5.759  0.00  0.00    -0.195 NA
ATOM     10  C   UNL     1       6.330  -1.718   6.023  0.00  0.00    +0.111 A 
ATOM     11  C   UNL     1       7.494  -1.709   5.253  0.00  0.00    +0.031 A 
ATOM     12  C   UNL     1       8.696  -2.062   5.827  0.00  0.00    +0.002 A 
ATOM     13  C   UNL     1       8.754  -2.427   7.163  0.00  0.00    +0.004 A 
ATOM     14  C   UNL     1       7.611  -2.441   7.936  0.00  0.00    +0.048 A 
ATOM     15  C   UNL     1       6.394  -2.087   7.375  0.00  0.00    +0.157 A 
ATOM     16  O   UNL     1       5.133  -1.998   7.855  0.00  0.00    -0.424 OA
ATOM     17  H   UNL     1       0.403  -1.111   6.768  0.00  0.00    +0.150 HD
ATOM     18  H   UNL     1       2.522  -1.550   7.810  0.00  0.00    +0.159 HD
ENDROOT
BRANCH   1  24
ATOM     19  C   UNL     1      -1.514  -0.400  -0.013  0.00  0.00    +0.008 C 
ATOM     20  C   UNL     1      -2.199   0.034   1.284  0.00  0.00    -0.010 C 
ATOM     21  C   UNL     1      -2.187   1.561   1.382  0.00  0.00    +0.003 C 
ATOM     22  C   UNL     1      -0.740   2.061   1.377  0.00  0.00    +0.002 C 
ATOM     23  C   UNL     1       0.008   1.467   2.572  0.00  0.00    +0.019 C 
ATOM     24  C   UNL     1      -0.004  -0.060   2.474  0.00  0.00    +0.063 C 
ATOM     25  C   UNL     1      -1.450  -0.559   2.479  0.00  0.00    +0.006 C 
ATOM     26  C   UNL     1      -1.462  -2.086   2.381  0.00  0.00    +0.009 C 
ENDBRANCH   1  24
TORSDOF 1
