REMARK  Name = ZINC13914096
REMARK  9 active torsions:
REMARK  status: ('A' for Active; 'I' for Inactive)
REMARK    1  A    between atoms: C_1  and  O_2
REMARK    2  A    between atoms: O_2  and  C_3
REMARK    3  A    between atoms: C_5  and  C_14
REMARK    4  A    between atoms: C_8  and  O_9
REMARK    5  A    between atoms: O_9  and  C_10
REMARK    6  A    between atoms: C_10  and  C_11
REMARK    7  A    between atoms: C_11  and  O_12
REMARK    8  A    between atoms: N_20  and  C_21
REMARK    9  A    between atoms: C_24  and  C_27
REMARK                            x       y       z     vdW  Elec       q    Type
REMARK                         _______ _______ _______ _____ _____    ______ ____
ROOT
ATOM      1  C   UNL     1       2.393   0.342  -4.214  0.00  0.00    +0.029 C 
ATOM      2  C   UNL     1       2.259   1.693  -4.200  0.00  0.00    +0.078 C 
ATOM      3  C   UNL     1       2.679   2.686  -5.207  0.00  0.00    +0.256 C 
ATOM      4  O   UNL     1       3.235   2.351  -6.237  0.00  0.00    -0.269 OA
ATOM      5  N   UNL     1       2.424   3.955  -4.940  0.00  0.00    -0.260 N 
ATOM      6  C   UNL     1       1.794   4.314  -3.771  0.00  0.00    +0.166 C 
ATOM      7  N   UNL     1       1.468   5.520  -3.353  0.00  0.00    -0.226 NA
ATOM      8  S   UNL     1       1.519   2.747  -2.961  0.00  0.00    -0.049 S 
ATOM      9  H   UNL     1       2.683   4.641  -5.575  0.00  0.00    +0.157 HD
ENDROOT
BRANCH   1  12
ATOM     10  C   UNL     1       0.072  -0.704  -1.460  0.00  0.00    +0.162 A 
ATOM     11  C   UNL     1       0.687   0.067  -2.427  0.00  0.00    +0.058 A 
ATOM     12  C   UNL     1       1.735  -0.472  -3.184  0.00  0.00    -0.006 A 
ATOM     13  C   UNL     1       2.153  -1.789  -2.955  0.00  0.00    +0.029 A 
ATOM     14  C   UNL     1       1.533  -2.550  -1.988  0.00  0.00    +0.065 A 
ATOM     15  C   UNL     1       0.498  -2.012  -1.235  0.00  0.00    +0.163 A 
ATOM     16 BR   UNL     1       3.567  -2.523  -3.974  0.00  0.00    -0.050 Br
BRANCH  10  18
ATOM     17  C   UNL     1      -1.331   1.163  -1.008  0.00  0.00    +0.277 C 
ATOM     18  O   UNL     1      -0.947  -0.184  -0.724  0.00  0.00    -0.491 OA
ENDBRANCH  10  18
BRANCH  15  19
ATOM     19  O   UNL     1      -0.106  -2.765  -0.279  0.00  0.00    -0.486 OA
BRANCH  19  20
ATOM     20  C   UNL     1       0.379  -4.098  -0.100  0.00  0.00    +0.257 C 
BRANCH  20  21
ATOM     21  C   UNL     1      -0.417  -4.785   1.011  0.00  0.00    +0.196 C 
BRANCH  21  22
ATOM     22  O   UNL     1      -1.778  -4.931   0.602  0.00  0.00    -0.392 OA
ATOM     23  H   UNL     1      -2.343  -5.360   1.259  0.00  0.00    +0.210 HD
ENDBRANCH  21  22
ENDBRANCH  20  21
ENDBRANCH  19  20
ENDBRANCH  15  19
ENDBRANCH   1  12
BRANCH   7  24
ATOM     24  C   UNL     1       1.756   6.607  -4.119  0.00  0.00    +0.067 A 
ATOM     25  C   UNL     1       3.015   6.724  -4.723  0.00  0.00    +0.028 A 
ATOM     26  C   UNL     1       3.305   7.813  -5.491  0.00  0.00    +0.017 A 
ATOM     27  C   UNL     1       2.343   8.816  -5.676  0.00  0.00    +0.063 A 
ATOM     28  C   UNL     1       1.084   8.698  -5.072  0.00  0.00    +0.017 A 
ATOM     29  C   UNL     1       0.793   7.607  -4.309  0.00  0.00    +0.028 A 
BRANCH  27  30
ATOM     30  C   UNL     1       2.655   9.989  -6.503  0.00  0.00    +0.387 C 
ATOM     31  O   UNL     1       3.755  10.092  -7.029  0.00  0.00    -0.241 OA
ATOM     32  O   UNL     1       1.815  10.865  -6.664  0.00  0.00    -0.241 OA
ENDBRANCH  27  30
ENDBRANCH   7  24
TORSDOF 8
