REMARK  Name = ZINC19470648
REMARK  6 active torsions:
REMARK  status: ('A' for Active; 'I' for Inactive)
REMARK    1  A    between atoms: C_3  and  N_11
REMARK    2  A    between atoms: C_6  and  C_7
REMARK    3  A    between atoms: N_8  and  O_9
REMARK    4  A    between atoms: C_16  and  C_18
REMARK    5  A    between atoms: C_18  and  C_19
REMARK    6  A    between atoms: C_19  and  O_20
REMARK                            x       y       z     vdW  Elec       q    Type
REMARK                         _______ _______ _______ _____ _____    ______ ____
ROOT
ATOM      1  C   UNL     1       0.441   3.299  -1.763  0.00  0.00    +0.016 A 
ATOM      2  C   UNL     1       0.428   1.946  -1.492  0.00  0.00    +0.044 A 
ATOM      3  C   UNL     1      -0.000   1.507  -0.241  0.00  0.00    +0.121 A 
ATOM      4  N   UNL     1      -0.399   2.370   0.683  0.00  0.00    -0.240 NA
ATOM      5  C   UNL     1      -0.397   3.669   0.465  0.00  0.00    +0.124 A 
ATOM      6  C   UNL     1       0.019   4.184  -0.762  0.00  0.00    +0.036 A 
ENDROOT
BRANCH   3   7
ATOM      7  N   UNL     1      -0.015   0.148   0.039  0.00  0.00    -0.312 N 
ATOM      8  C   UNL     1       0.838  -0.160   1.193  0.00  0.00    +0.107 C 
ATOM      9  C   UNL     1       0.913  -1.677   1.383  0.00  0.00    +0.019 C 
ATOM     10  C   UNL     1      -0.498  -2.229   1.606  0.00  0.00    +0.003 C 
ATOM     11  C   UNL     1      -1.380  -1.852   0.412  0.00  0.00    +0.022 C 
ATOM     12  C   UNL     1      -1.388  -0.330   0.251  0.00  0.00    +0.077 C 
BRANCH  12  13
ATOM     13  C   UNL     1      -2.251   0.051  -0.954  0.00  0.00    +0.050 C 
BRANCH  13  14
ATOM     14  C   UNL     1      -3.709  -0.318  -0.672  0.00  0.00    +0.157 C 
BRANCH  14  15
ATOM     15  O   UNL     1      -4.533   0.142  -1.746  0.00  0.00    -0.395 OA
ATOM     16  H   UNL     1      -5.619  -0.033  -1.720  0.00  0.00    +0.209 HD
ENDBRANCH  14  15
ENDBRANCH  13  14
ENDBRANCH  12  13
ENDBRANCH   3   7
BRANCH   6  17
ATOM     17  C   UNL     1       0.014   5.643  -1.003  0.00  0.00    +0.164 C 
ATOM     18  N   UNL     1       0.404   6.114  -2.152  0.00  0.00    -0.071 NA
ATOM     19  N   UNL     1      -0.405   6.508  -0.007  0.00  0.00    -0.340 N 
ATOM     20  H   UNL     1      -0.409   7.593  -0.187  0.00  0.00    +0.144 HD
ATOM     21  H   UNL     1      -0.735   6.110   0.964  0.00  0.00    +0.144 HD
BRANCH  18  22
ATOM     22  O   UNL     1       0.399   7.511  -2.384  0.00  0.00    -0.408 OA
ATOM     23  H   UNL     1       0.729   7.908  -3.355  0.00  0.00    +0.328 HD
ENDBRANCH  18  22
ENDBRANCH   6  17
TORSDOF 6
