REMARK  Name = ZINC07204894
REMARK  12 active torsions:
REMARK  status: ('A' for Active; 'I' for Inactive)
REMARK    1  A    between atoms: C_1  and  C_2
REMARK    2  A    between atoms: C_2  and  C_4
REMARK    3  A    between atoms: C_2  and  O_10
REMARK    4  A    between atoms: O_10  and  C_11
REMARK    5  A    between atoms: C_11  and  C_13
REMARK    6  A    between atoms: C_15  and  C_23
REMARK    7  A    between atoms: C_17  and  C_20
REMARK    8  A    between atoms: C_18  and  O_19
REMARK    9  A    between atoms: C_20  and  C_21
REMARK   10  A    between atoms: C_20  and  C_22
REMARK   11  A    between atoms: C_23  and  C_24
REMARK   12  A    between atoms: C_23  and  C_25
REMARK                            x       y       z     vdW  Elec       q    Type
REMARK                         _______ _______ _______ _____ _____    ______ ____
ROOT
ATOM      1  C   UNL     1      -0.088  -0.673  -2.267  0.00  0.00    +0.343 C 
ATOM      2  O   UNL     1      -1.285  -0.469  -2.224  0.00  0.00    -0.245 OA
ENDROOT
BRANCH   1   3
ATOM      3  C   UNL     1       0.534  -1.149  -3.517  0.00  0.00    +0.101 A 
ATOM      4  C   UNL     1       1.909  -1.390  -3.569  0.00  0.00    +0.022 A 
ATOM      5  C   UNL     1       2.484  -1.834  -4.740  0.00  0.00    -0.044 A 
ATOM      6  C   UNL     1       1.705  -2.043  -5.867  0.00  0.00    +0.011 A 
ATOM      7  C   UNL     1       0.345  -1.808  -5.829  0.00  0.00    -0.002 A 
ATOM      8  C   UNL     1      -0.252  -1.367  -4.657  0.00  0.00    +0.134 A 
BRANCH   7   9
ATOM      9  C   UNL     1      -0.493  -2.038  -7.060  0.00  0.00    +0.016 C 
ATOM     10  C   UNL     1       0.006  -1.138  -8.192  0.00  0.00    +0.012 C 
ATOM     11  C   UNL     1      -0.382  -3.503  -7.486  0.00  0.00    +0.012 C 
ENDBRANCH   7   9
BRANCH   5  12
ATOM     12  C   UNL     1       3.967  -2.095  -4.795  0.00  0.00    +0.013 C 
ATOM     13  C   UNL     1       4.724  -0.803  -4.476  0.00  0.00    +0.012 C 
ATOM     14  C   UNL     1       4.336  -3.168  -3.769  0.00  0.00    +0.012 C 
ENDBRANCH   5  12
BRANCH   8  15
ATOM     15  O   UNL     1      -1.589  -1.141  -4.617  0.00  0.00    -0.506 OA
ATOM     16  H   UNL     1      -1.843  -0.239  -4.856  0.00  0.00    +0.292 HD
ENDBRANCH   8  15
ENDBRANCH   1   3
BRANCH   1  17
ATOM     17  O   UNL     1       0.671  -0.465  -1.174  0.00  0.00    -0.449 OA
BRANCH  17  19
ATOM     18  C   UNL     1      -0.019   1.526   0.010  0.00  0.00    +0.062 C 
ATOM     19  C   UNL     1       0.002  -0.004   0.002  0.00  0.00    +0.259 C 
BRANCH  19  20
ATOM     20  C   UNL     1       0.731  -0.503   1.223  0.00  0.00    +0.261 C 
ATOM     21  O   UNL     1       1.774  -1.109   1.101  0.00  0.00    -0.271 OA
ATOM     22  N   UNL     1       0.223  -0.277   2.451  0.00  0.00    -0.237 N 
ATOM     23  C   UNL     1       0.875  -0.723   3.542  0.00  0.00    +0.303 C 
ATOM     24  O   UNL     1       1.921  -1.330   3.420  0.00  0.00    -0.253 OA
ATOM     25  N   UNL     1       0.367  -0.496   4.770  0.00  0.00    -0.313 N 
ATOM     26  H   UNL     1      -0.611   0.208   2.548  0.00  0.00    +0.159 HD
ATOM     27  H   UNL     1      -0.467  -0.011   4.868  0.00  0.00    +0.146 HD
ATOM     28  H   UNL     1       0.836  -0.817   5.556  0.00  0.00    +0.146 HD
ENDBRANCH  19  20
ENDBRANCH  17  19
ENDBRANCH   1  17
TORSDOF 7
