REMARK  Name = ZINC56147088
REMARK  7 active torsions:
REMARK  status: ('A' for Active; 'I' for Inactive)
REMARK    1  A    between atoms: C_1  and  C_2
REMARK    2  A    between atoms: N_6  and  C_24
REMARK    3  A    between atoms: C_8  and  C_10
REMARK    4  A    between atoms: N_12  and  C_13
REMARK    5  A    between atoms: C_13  and  C_14
REMARK    6  A    between atoms: C_14  and  C_15
REMARK    7  A    between atoms: C_18  and  N_21
REMARK                            x       y       z     vdW  Elec       q    Type
REMARK                         _______ _______ _______ _____ _____    ______ ____
ROOT
ATOM      1  C   UNL     1      -0.549   0.959  -0.085  0.00  0.00    +0.038 C 
ATOM      2  C   UNL     1      -0.012  -0.451   0.165  0.00  0.00    +0.157 C 
ATOM      3  C   UNL     1       0.716  -0.945  -1.063  0.00  0.00    +0.259 C 
ATOM      4  O   UNL     1       0.110  -1.514  -1.946  0.00  0.00    -0.271 OA
ATOM      5  N   UNL     1       2.045  -0.748  -1.169  0.00  0.00    -0.157 N 
ATOM      6  N   UNL     1       2.758  -0.110  -0.149  0.00  0.00    -0.152 NA
ATOM      7  C   UNL     1       2.236   0.044   1.037  0.00  0.00    +0.200 C 
ATOM      8  N   UNL     1       0.942  -0.428   1.284  0.00  0.00    -0.313 N 
ATOM      9  H   UNL     1       0.681  -0.730   2.168  0.00  0.00    +0.148 HD
ENDROOT
BRANCH   5  10
ATOM     10  C   UNL     1       2.720  -1.187  -2.314  0.00  0.00    +0.060 A 
ATOM     11  C   UNL     1       3.887  -1.931  -2.192  0.00  0.00    +0.025 A 
ATOM     12  C   UNL     1       4.550  -2.362  -3.324  0.00  0.00    +0.002 A 
ATOM     13  C   UNL     1       4.054  -2.054  -4.577  0.00  0.00    +0.000 A 
ATOM     14  C   UNL     1       2.893  -1.313  -4.702  0.00  0.00    +0.002 A 
ATOM     15  C   UNL     1       2.222  -0.884  -3.574  0.00  0.00    +0.025 A 
ENDBRANCH   5  10
BRANCH   7  16
ATOM     16  C   UNL     1       3.003   0.709   2.106  0.00  0.00    +0.278 C 
ATOM     17  O   UNL     1       2.511   0.850   3.209  0.00  0.00    -0.267 OA
ATOM     18  N   UNL     1       4.249   1.161   1.861  0.00  0.00    -0.309 N 
ATOM     19  H   UNL     1       4.641   1.048   0.981  0.00  0.00    +0.149 HD
BRANCH  18  20
ATOM     20  C   UNL     1       5.010   1.821   2.924  0.00  0.00    +0.109 C 
BRANCH  20  21
ATOM     21  C   UNL     1       6.382   2.234   2.387  0.00  0.00    +0.054 C 
BRANCH  21  22
ATOM     22  C   UNL     1       7.166   2.914   3.481  0.00  0.00    -0.046 A 
ATOM     23  C   UNL     1       7.071   4.282   3.650  0.00  0.00    +0.006 A 
ATOM     24  C   UNL     1       7.790   4.906   4.653  0.00  0.00    +0.033 A 
ATOM     25  C   UNL     1       8.603   4.161   5.487  0.00  0.00    +0.126 A 
ATOM     26  C   UNL     1       8.697   2.792   5.318  0.00  0.00    +0.033 A 
ATOM     27  C   UNL     1       7.975   2.168   4.318  0.00  0.00    +0.006 A 
BRANCH  25  28
ATOM     28  N   UNL     1       9.373   4.828   6.560  0.00  0.00    +0.056 N 
ATOM     29  O   UNL     1       9.291   6.026   6.707  0.00  0.00    -0.126 OA
ATOM     30  O   UNL     1      10.084   4.177   7.289  0.00  0.00    -0.126 OA
ENDBRANCH  25  28
ENDBRANCH  21  22
ENDBRANCH  20  21
ENDBRANCH  18  20
ENDBRANCH   7  16
TORSDOF 6
