REMARK  Name = ZINC28701148
REMARK  5 active torsions:
REMARK  status: ('A' for Active; 'I' for Inactive)
REMARK    1  A    between atoms: C_1  and  C_2
REMARK    2  A    between atoms: C_14  and  C_15
REMARK    3  A    between atoms: N_17  and  C_18
REMARK    4  A    between atoms: C_23  and  S_24
REMARK    5  A    between atoms: S_24  and  C_25
REMARK                            x       y       z     vdW  Elec       q    Type
REMARK                         _______ _______ _______ _____ _____    ______ ____
ROOT
ATOM      1  C   UNL     1      -1.968   8.439   0.091  0.00  0.00    +0.048 C 
ATOM      2  C   UNL     1      -0.970   7.310   0.077  0.00  0.00    +0.008 A 
ATOM      3  C   UNL     1      -1.263   5.923   0.082  0.00  0.00    +0.024 A 
ATOM      4  C   UNL     1      -2.469   5.192   0.099  0.00  0.00    +0.012 A 
ATOM      5  C   UNL     1      -2.457   3.838   0.099  0.00  0.00    +0.009 A 
ATOM      6  C   UNL     1      -1.233   3.136   0.082  0.00  0.00    -0.014 A 
ATOM      7  C   UNL     1      -1.209   1.732   0.078  0.00  0.00    +0.008 A 
ATOM      8  C   UNL     1      -0.015   1.077   0.067  0.00  0.00    +0.001 A 
ATOM      9  C   UNL     1       1.187   1.779   0.050  0.00  0.00    +0.001 A 
ATOM     10  C   UNL     1       1.201   3.141   0.048  0.00  0.00    +0.012 A 
ATOM     11  C   UNL     1      -0.011   3.849   0.064  0.00  0.00    +0.025 A 
ATOM     12  C   UNL     1      -0.032   5.261   0.063  0.00  0.00    +0.144 A 
ATOM     13  O   UNL     1       0.937   6.195   0.050  0.00  0.00    -0.449 OA
ATOM     14  C   UNL     1       0.384   7.427   0.058  0.00  0.00    +0.194 A 
ENDROOT
BRANCH  14  15
ATOM     15  C   UNL     1       1.129   8.693   0.047  0.00  0.00    +0.284 C 
ATOM     16  O   UNL     1       0.529   9.751   0.055  0.00  0.00    -0.266 OA
ATOM     17  N   UNL     1       2.476   8.682   0.027  0.00  0.00    -0.278 N 
ATOM     18  H   UNL     1       3.020   7.728   0.094  0.00  0.00    +0.155 HD
BRANCH  17  19
ATOM     19  C   UNL     1       3.185   9.885  -0.078  0.00  0.00    +0.047 A 
ATOM     20  C   UNL     1       2.696  11.035   0.524  0.00  0.00    +0.024 A 
ATOM     21  C   UNL     1       3.400  12.220   0.423  0.00  0.00    +0.002 A 
ATOM     22  C   UNL     1       4.587  12.267  -0.286  0.00  0.00    +0.001 A 
ATOM     23  C   UNL     1       5.079  11.128  -0.894  0.00  0.00    +0.016 A 
ATOM     24  C   UNL     1       4.382   9.932  -0.794  0.00  0.00    +0.029 A 
BRANCH  24  25
ATOM     25  S   UNL     1       5.006   8.478  -1.569  0.00  0.00    -0.127 S 
ATOM     26  C   UNL     1       6.545   9.026  -2.357  0.00  0.00    +0.090 C 
ENDBRANCH  24  25
ENDBRANCH  17  19
ENDBRANCH  14  15
TORSDOF 3
