REMARK  Name = ZINC54699375
REMARK  4 active torsions:
REMARK  status: ('A' for Active; 'I' for Inactive)
REMARK    1  A    between atoms: C_1  and  N_2
REMARK    2  A    between atoms: C_3  and  C_13
REMARK    3  A    between atoms: C_5  and  C_7
REMARK    4  A    between atoms: C_15  and  N_21
REMARK                            x       y       z     vdW  Elec       q    Type
REMARK                         _______ _______ _______ _____ _____    ______ ____
ROOT
ATOM      1  C   UNL     1       0.110   1.459  -0.003  0.00  0.00    +0.174 C 
ATOM      2  N   UNL     1       0.058  -0.005  -0.004  0.00  0.00    -0.248 N 
ATOM      3  C   UNL     1      -0.086  -0.811  -1.080  0.00  0.00    +0.161 A 
ATOM      4  N   UNL     1      -0.084  -2.058  -0.652  0.00  0.00    -0.211 NA
ATOM      5  C   UNL     1       0.057  -2.079   0.670  0.00  0.00    +0.155 A 
ATOM      6  N   UNL     1       0.154  -0.852   1.112  0.00  0.00    -0.154 NA
ENDROOT
BRANCH   3   7
ATOM      7  C   UNL     1      -0.222  -0.372  -2.486  0.00  0.00    +0.056 A 
ATOM      8  C   UNL     1       0.649   0.585  -3.007  0.00  0.00    +0.040 A 
ATOM      9  C   UNL     1       0.517   0.992  -4.324  0.00  0.00    +0.061 A 
ATOM     10  C   UNL     1      -0.483   0.447  -5.125  0.00  0.00    +0.147 A 
ATOM     11  C   UNL     1      -1.347  -0.503  -4.609  0.00  0.00    +0.079 A 
ATOM     12  C   UNL     1      -1.219  -0.920  -3.297  0.00  0.00    +0.137 A 
ATOM     13  F   UNL     1      -2.060  -1.851  -2.799  0.00  0.00    -0.205 F 
ATOM     14  F   UNL     1      -0.611   0.846  -6.409  0.00  0.00    -0.203 F 
BRANCH   9  15
ATOM     15  N   UNL     1       1.389   1.953  -4.851  0.00  0.00    -0.356 N 
ATOM     16  H   UNL     1       2.085   2.333  -4.293  0.00  0.00    +0.142 HD
ATOM     17  H   UNL     1       1.296   2.238  -5.773  0.00  0.00    +0.142 HD
ENDBRANCH   9  15
ENDBRANCH   3   7
BRANCH   5  18
ATOM     18  C   UNL     1       0.105  -3.320   1.523  0.00  0.00    +0.059 C 
ATOM     19  C   UNL     1      -1.043  -3.288   2.535  0.00  0.00    +0.011 C 
ATOM     20  C   UNL     1      -0.994  -4.549   3.401  0.00  0.00    +0.001 C 
ATOM     21  C   UNL     1       0.341  -4.605   4.146  0.00  0.00    +0.000 C 
ATOM     22  C   UNL     1       1.489  -4.636   3.134  0.00  0.00    +0.001 C 
ATOM     23  C   UNL     1       1.440  -3.376   2.268  0.00  0.00    +0.011 C 
ENDBRANCH   5  18
TORSDOF 3
