REMARK  Name = ZINC39531552
REMARK  9 active torsions:
REMARK  status: ('A' for Active; 'I' for Inactive)
REMARK    1  A    between atoms: C_1  and  C_2
REMARK    2  A    between atoms: C_5  and  C_8
REMARK    3  A    between atoms: C_8  and  C_10
REMARK    4  A    between atoms: C_8  and  N_14
REMARK    5  A    between atoms: C_10  and  N_11
REMARK    6  A    between atoms: N_11  and  S_12
REMARK    7  A    between atoms: S_12  and  C_13
REMARK    8  A    between atoms: C_18  and  C_21
REMARK    9  A    between atoms: C_26  and  O_27
REMARK                            x       y       z     vdW  Elec       q    Type
REMARK                         _______ _______ _______ _____ _____    ______ ____
ROOT
ATOM      1  N   UNL     1      -0.763  -4.868   0.979  0.00  0.00    -0.297 NA
ATOM      2  C   UNL     1      -0.340  -4.401   2.306  0.00  0.00    +0.066 C 
ATOM      3  C   UNL     1      -1.324  -4.910   3.361  0.00  0.00    -0.066 C 
ATOM      4  N   UNL     1      -1.361  -6.378   3.329  0.00  0.00    +0.385 N 
ATOM      5  C   UNL     1      -1.810  -6.829   2.005  0.00  0.00    -0.023 C 
ATOM      6  C   UNL     1      -0.829  -6.336   0.939  0.00  0.00    +0.074 C 
ATOM      7  H   UNL     1      -0.438  -6.741   3.513  0.00  0.00    -0.085 HD
ATOM      8  H   UNL     1      -2.001  -6.713   4.033  0.00  0.00    -0.085 HD
ENDROOT
BRANCH   5   9
ATOM      9  C   UNL     1      -1.864  -8.335   1.980  0.00  0.00    -0.019 A 
ATOM     10  C   UNL     1      -1.155  -9.068   2.912  0.00  0.00    +0.005 A 
ATOM     11  C   UNL     1      -1.204 -10.449   2.889  0.00  0.00    +0.000 A 
ATOM     12  C   UNL     1      -1.963 -11.101   1.933  0.00  0.00    +0.004 A 
ATOM     13  C   UNL     1      -2.674 -10.372   0.999  0.00  0.00    +0.045 A 
ATOM     14  C   UNL     1      -2.630  -8.986   1.024  0.00  0.00    +0.118 A 
BRANCH  14  15
ATOM     15  O   UNL     1      -3.333  -8.266   0.110  0.00  0.00    -0.507 OA
ATOM     16  H   UNL     1      -2.842  -8.074  -0.701  0.00  0.00    +0.292 HD
ENDBRANCH  14  15
ENDBRANCH   5   9
BRANCH   1  17
ATOM     17  C   UNL     1       0.127  -4.352  -0.070  0.00  0.00    +0.101 C 
BRANCH  17  22
ATOM     18  C   UNL     1      -0.296  -7.692  -4.767  0.00  0.00    +0.044 C 
ATOM     19  C   UNL     1      -0.186  -6.821  -3.542  0.00  0.00    -0.050 A 
ATOM     20  C   UNL     1       1.058  -6.493  -3.037  0.00  0.00    +0.003 A 
ATOM     21  C   UNL     1       1.160  -5.694  -1.913  0.00  0.00    +0.005 A 
ATOM     22  C   UNL     1       0.017  -5.223  -1.295  0.00  0.00    -0.029 A 
ATOM     23  C   UNL     1      -1.228  -5.550  -1.801  0.00  0.00    +0.005 A 
ATOM     24  C   UNL     1      -1.329  -6.345  -2.927  0.00  0.00    +0.003 A 
ENDBRANCH  17  22
BRANCH  17  25
ATOM     25  C   UNL     1      -0.279  -2.920  -0.424  0.00  0.00    +0.117 C 
BRANCH  25  26
ATOM     26  N   UNL     1      -0.302  -2.102   0.797  0.00  0.00    -0.262 NA
ATOM     27  H   UNL     1      -1.142  -2.272   1.329  0.00  0.00    +0.135 HD
BRANCH  26  28
ATOM     28  S   UNL     1      -0.131  -0.388   0.413  0.00  0.00    -0.084 S 
ATOM     29  C   UNL     1      -0.184   0.431   2.030  0.00  0.00    +0.102 C 
ENDBRANCH  26  28
ENDBRANCH  25  26
ENDBRANCH  17  25
ENDBRANCH   1  17
TORSDOF 7
