REMARK  Name = ZINC32506172
REMARK  11 active torsions:
REMARK  status: ('A' for Active; 'I' for Inactive)
REMARK    1  A    between atoms: C_1  and  C_2
REMARK    2  A    between atoms: C_6  and  N_9
REMARK    3  A    between atoms: C_7  and  C_8
REMARK    4  A    between atoms: N_21  and  C_22
REMARK    5  A    between atoms: C_22  and  C_24
REMARK    6  A    between atoms: C_24  and  N_25
REMARK    7  A    between atoms: C_26  and  O_28
REMARK    8  A    between atoms: O_28  and  C_29
REMARK    9  A    between atoms: C_29  and  C_30
REMARK   10  A    between atoms: C_29  and  C_31
REMARK   11  A    between atoms: C_29  and  C_32
REMARK                            x       y       z     vdW  Elec       q    Type
REMARK                         _______ _______ _______ _____ _____    ______ ____
ROOT
ATOM      1  N   UNL     1       6.938   0.766   7.024  0.00  0.00    -0.276 N 
ATOM      2  C   UNL     1       7.312   0.168   8.292  0.00  0.00    +0.116 C 
ATOM      3  C   UNL     1       7.816   1.277   9.247  0.00  0.00    +0.190 C 
ATOM      4  S   UNL     1       7.221   0.665  10.882  0.00  0.00    -0.028 S 
ATOM      5  O   UNL     1       6.837   1.772  11.687  0.00  0.00    -0.174 OA
ATOM      6  O   UNL     1       8.140  -0.292  11.391  0.00  0.00    -0.174 OA
ATOM      7  C   UNL     1       5.709  -0.202  10.274  0.00  0.00    +0.182 C 
ATOM      8  C   UNL     1       6.181  -0.680   8.887  0.00  0.00    +0.097 C 
ATOM      9  S   UNL     1       4.840  -0.396   7.674  0.00  0.00    -0.086 S 
ATOM     10  C   UNL     1       5.679   0.608   6.543  0.00  0.00    +0.154 C 
ATOM     11  N   UNL     1       5.186   1.129   5.425  0.00  0.00    -0.157 NA
ENDROOT
BRANCH   1  17
ATOM     12  C   UNL     1      10.492   0.918   3.631  0.00  0.00    +0.044 C 
ATOM     13  C   UNL     1       9.612   1.603   4.644  0.00  0.00    -0.046 A 
ATOM     14  C   UNL     1       9.733   2.965   4.856  0.00  0.00    +0.004 A 
ATOM     15  C   UNL     1       8.928   3.598   5.785  0.00  0.00    +0.002 A 
ATOM     16  C   UNL     1       8.000   2.871   6.505  0.00  0.00    +0.024 A 
ATOM     17  C   UNL     1       7.876   1.504   6.296  0.00  0.00    +0.039 A 
ATOM     18  C   UNL     1       8.690   0.871   5.365  0.00  0.00    -0.026 A 
ATOM     19  C   UNL     1       8.563  -0.614   5.139  0.00  0.00    +0.046 C 
ENDBRANCH   1  17
BRANCH  11  20
ATOM     20  C   UNL     1       3.924   0.886   5.079  0.00  0.00    +0.255 C 
ATOM     21  O   UNL     1       3.223   0.188   5.785  0.00  0.00    -0.272 OA
BRANCH  20  22
ATOM     22  C   UNL     1       3.364   1.477   3.811  0.00  0.00    +0.205 C 
BRANCH  22  23
ATOM     23  N   UNL     1       1.967   1.065   3.655  0.00  0.00    -0.272 N 
ATOM     24  C   UNL     1       1.258   1.477   2.586  0.00  0.00    +0.401 C 
ATOM     25  O   UNL     1       1.777   2.189   1.750  0.00  0.00    -0.226 OA
ATOM     26  H   UNL     1       1.496   0.420   4.412  0.00  0.00    +0.153 HD
BRANCH  24  27
ATOM     27  O   UNL     1      -0.027   1.098   2.443  0.00  0.00    -0.445 OA
BRANCH  27  28
ATOM     28  C   UNL     1      -0.729   1.579   1.267  0.00  0.00    +0.107 C 
ATOM     29  C   UNL     1      -0.013   1.086   0.008  0.00  0.00    +0.055 C 
ATOM     30  C   UNL     1      -0.750   3.109   1.275  0.00  0.00    +0.055 C 
ATOM     31  C   UNL     1      -2.164   1.050   1.278  0.00  0.00    +0.055 C 
ENDBRANCH  27  28
ENDBRANCH  24  27
ENDBRANCH  22  23
ENDBRANCH  20  22
ENDBRANCH  11  20
TORSDOF 6
