REMARK  Name = ZINC12497487
REMARK  6 active torsions:
REMARK  status: ('A' for Active; 'I' for Inactive)
REMARK    1  A    between atoms: C_1  and  C_2
REMARK    2  A    between atoms: C_2  and  C_26
REMARK    3  A    between atoms: C_7  and  C_9
REMARK    4  A    between atoms: N_16  and  C_19
REMARK    5  A    between atoms: C_26  and  O_28
REMARK    6  A    between atoms: O_28  and  C_29
REMARK                            x       y       z     vdW  Elec       q    Type
REMARK                         _______ _______ _______ _____ _____    ______ ____
ROOT
ATOM      1  C   UNL     1       1.651   2.378  -1.428  0.00  0.00    +0.002 C 
ATOM      2  C   UNL     1       1.280   1.975   0.000  0.00  0.00    +0.041 C 
ATOM      3  C   UNL     1       2.368   1.168   0.610  0.00  0.00    +0.086 C 
ATOM      4  C   UNL     1       3.332   2.308   1.133  0.00  0.00    +0.078 C 
ATOM      5  C   UNL     1       2.302   3.135   1.863  0.00  0.00    -0.020 C 
ATOM      6  C   UNL     1       4.354   1.431   1.748  0.00  0.00    +0.229 C 
ATOM      7  O   UNL     1       4.989   1.639   2.760  0.00  0.00    -0.275 OA
ATOM      8  N   UNL     1       4.428   0.333   0.931  0.00  0.00    -0.207 N 
ATOM      9  C   UNL     1       3.358   0.240   0.076  0.00  0.00    +0.229 C 
ATOM     10  O   UNL     1       3.257  -0.461  -0.908  0.00  0.00    -0.275 OA
ATOM     11  N   UNL     1       1.182   3.179   0.875  0.00  0.00    +0.396 N 
ATOM     12  H   UNL     1       0.282   3.175   1.370  0.00  0.00    -0.083 HD
ATOM     13  H   UNL     1       1.255   4.029   0.305  0.00  0.00    -0.083 HD
ENDROOT
BRANCH   8  14
ATOM     14  C   UNL     1       5.482  -0.592   0.964  0.00  0.00    +0.079 A 
ATOM     15  C   UNL     1       5.409  -1.700   1.796  0.00  0.00    +0.027 A 
ATOM     16  C   UNL     1       6.447  -2.610   1.826  0.00  0.00    +0.002 A 
ATOM     17  C   UNL     1       7.560  -2.419   1.028  0.00  0.00    +0.003 A 
ATOM     18  C   UNL     1       7.638  -1.317   0.197  0.00  0.00    +0.040 A 
ATOM     19  C   UNL     1       6.599  -0.405   0.158  0.00  0.00    +0.145 A 
ATOM     20  F   UNL     1       6.672   0.670  -0.658  0.00  0.00    -0.204 F 
ENDBRANCH   8  14
BRANCH   5  21
ATOM     21  C   UNL     1       2.826   4.518   2.153  0.00  0.00    -0.023 A 
ATOM     22  C   UNL     1       3.248   5.041   3.330  0.00  0.00    +0.009 A 
ATOM     23  C   UNL     1       3.694   6.349   3.360  0.00  0.00    +0.008 A 
ATOM     24  C   UNL     1       3.696   7.070   2.212  0.00  0.00    +0.045 A 
ATOM     25  S   UNL     1       3.061   5.889   1.034  0.00  0.00    -0.103 S 
ENDBRANCH   5  21
BRANCH   2  26
ATOM     26  C   UNL     1      -0.014   1.204   0.009  0.00  0.00    +0.296 C 
ATOM     27  O   UNL     1       0.002  -0.004   0.002  0.00  0.00    -0.252 OA
BRANCH  26  28
ATOM     28  O   UNL     1      -1.186   1.859   0.018  0.00  0.00    -0.469 OA
ATOM     29  C   UNL     1      -2.393   1.052   0.019  0.00  0.00    +0.280 C 
ENDBRANCH  26  28
ENDBRANCH   2  26
TORSDOF 4
