REMARK  Name = ZINC66203165
REMARK  10 active torsions:
REMARK  status: ('A' for Active; 'I' for Inactive)
REMARK    1  A    between atoms: C_1  and  C_2
REMARK    2  A    between atoms: C_2  and  C_3
REMARK    3  A    between atoms: C_3  and  C_5
REMARK    4  A    between atoms: C_3  and  N_6
REMARK    5  A    between atoms: N_6  and  C_7
REMARK    6  A    between atoms: N_6  and  C_8
REMARK    7  A    between atoms: C_8  and  C_9
REMARK    8  A    between atoms: C_9  and  N_10
REMARK    9  A    between atoms: N_13  and  N_14
REMARK   10  A    between atoms: C_15  and  C_17
REMARK                            x       y       z     vdW  Elec       q    Type
REMARK                         _______ _______ _______ _____ _____    ______ ____
ROOT
ATOM      1  N   UNL     1      -1.085   2.954  -4.259  0.00  0.00    -0.300 N 
ATOM      2  C   UNL     1      -1.798   3.446  -5.292  0.00  0.00    +0.316 C 
ATOM      3  O   UNL     1      -2.408   2.691  -6.024  0.00  0.00    -0.251 OA
ATOM      4  N   UNL     1      -1.835   4.775  -5.512  0.00  0.00    -0.218 N 
ATOM      5  H   UNL     1      -0.599   3.556  -3.675  0.00  0.00    +0.150 HD
ATOM      6  H   UNL     1      -2.349   5.129  -6.255  0.00  0.00    +0.174 HD
ENDROOT
BRANCH   4   7
ATOM      7  N   UNL     1      -1.133   5.645  -4.668  0.00  0.00    -0.229 N 
ATOM      8  C   UNL     1      -1.171   6.974  -4.888  0.00  0.00    +0.262 C 
ATOM      9  O   UNL     1      -1.813   7.418  -5.819  0.00  0.00    -0.269 OA
ATOM     10  H   UNL     1      -0.620   5.290  -3.925  0.00  0.00    +0.173 HD
BRANCH   8  11
ATOM     11  C   UNL     1      -0.430   7.891  -3.998  0.00  0.00    +0.056 A 
ATOM     12  C   UNL     1       0.314   7.385  -2.930  0.00  0.00    +0.014 A 
ATOM     13  C   UNL     1       1.003   8.246  -2.103  0.00  0.00    +0.001 A 
ATOM     14  C   UNL     1       0.958   9.612  -2.328  0.00  0.00    +0.001 A 
ATOM     15  C   UNL     1       0.224  10.122  -3.382  0.00  0.00    +0.021 A 
ATOM     16  C   UNL     1      -0.466   9.270  -4.223  0.00  0.00    +0.053 A 
ATOM     17 CL   UNL     1      -1.382   9.911  -5.551  0.00  0.00    -0.083 Cl
ENDBRANCH   8  11
ENDBRANCH   4   7
BRANCH   1  18
ATOM     18  C   UNL     1      -1.045   1.509  -4.019  0.00  0.00    +0.087 C 
BRANCH  18  19
ATOM     19  C   UNL     1      -0.173   1.219  -2.796  0.00  0.00    -0.060 C 
BRANCH  19  20
ATOM     20  N   UNL     1      -0.132  -0.230  -2.556  0.00  0.00    +0.381 N 
ATOM     21  C   UNL     1       0.528  -0.895  -3.687  0.00  0.00    -0.096 C 
ATOM     22  H   UNL     1      -1.073  -0.582  -2.461  0.00  0.00    -0.082 HD
BRANCH  20  23
ATOM     23  C   UNL     1       0.618  -0.501  -1.323  0.00  0.00    -0.072 C 
ATOM     24  C   UNL     1       2.081  -0.095  -1.516  0.00  0.00    -0.013 C 
BRANCH  23  26
ATOM     25  C   UNL     1      -0.913  -2.382  -0.725  0.00  0.00    +0.002 C 
ATOM     26  C   UNL     1       0.541  -1.994  -0.997  0.00  0.00    -0.019 C 
ENDBRANCH  23  26
ENDBRANCH  20  23
ENDBRANCH  19  20
ENDBRANCH  18  19
ENDBRANCH   1  18
TORSDOF 7
