REMARK  Name = ZINC39693692
REMARK  7 active torsions:
REMARK  status: ('A' for Active; 'I' for Inactive)
REMARK    1  A    between atoms: C_1  and  C_2
REMARK    2  A    between atoms: C_2  and  C_4
REMARK    3  A    between atoms: C_2  and  O_23
REMARK    4  A    between atoms: C_8  and  C_17
REMARK    5  A    between atoms: N_19  and  C_20
REMARK    6  A    between atoms: C_20  and  C_21
REMARK    7  A    between atoms: O_23  and  C_24
REMARK                            x       y       z     vdW  Elec       q    Type
REMARK                         _______ _______ _______ _____ _____    ______ ____
ROOT
ATOM      1  C   UNL     1       0.738  -0.455  -0.983  0.00  0.00    +0.256 C 
ATOM      2  O   UNL     1       1.863  -0.868  -0.801  0.00  0.00    -0.272 OA
ATOM      3  N   UNL     1       0.207  -0.465  -2.222  0.00  0.00    -0.297 N 
ATOM      4  C   UNL     1      -1.165  -0.079  -2.625  0.00  0.00    +0.121 C 
ATOM      5  C   UNL     1      -0.982   0.670  -3.964  0.00  0.00    +0.100 C 
ATOM      6  C   UNL     1       0.351   0.148  -4.527  0.00  0.00    -0.004 C 
ATOM      7  C   UNL     1       0.867  -0.860  -3.489  0.00  0.00    +0.115 C 
ATOM      8  C   UNL     1       0.124  -0.542  -5.868  0.00  0.00    -0.010 C 
ATOM      9  C   UNL     1       1.471  -1.001  -6.435  0.00  0.00    -0.082 C 
ATOM     10  N   UNL     1       2.355   0.159  -6.602  0.00  0.00    +0.379 N 
ATOM     11  C   UNL     1       2.642   0.762  -5.294  0.00  0.00    -0.082 C 
ATOM     12  C   UNL     1       1.345   1.296  -4.680  0.00  0.00    -0.010 C 
ATOM     13  H   UNL     1       3.219  -0.137  -7.031  0.00  0.00    -0.086 HD
ATOM     14  H   UNL     1       1.904   0.841  -7.193  0.00  0.00    -0.086 HD
ENDROOT
BRANCH   5  15
ATOM     15  C   UNL     1      -2.114   0.347  -4.905  0.00  0.00    +0.219 C 
ATOM     16  O   UNL     1      -2.656  -0.737  -4.852  0.00  0.00    -0.275 OA
ATOM     17  N   UNL     1      -2.523   1.262  -5.806  0.00  0.00    -0.302 N 
ATOM     18  H   UNL     1      -2.090   2.129  -5.849  0.00  0.00    +0.150 HD
BRANCH  17  19
ATOM     19  C   UNL     1      -3.623   0.948  -6.721  0.00  0.00    +0.223 C 
BRANCH  19  20
ATOM     20  C   UNL     1      -3.877   2.103  -7.598  0.00  0.00    +0.081 C 
ATOM     21  N   UNL     1      -4.073   2.994  -8.275  0.00  0.00    -0.195 NA
ENDBRANCH  19  20
ENDBRANCH  17  19
ENDBRANCH   5  15
BRANCH   1  23
ATOM     22  C   UNL     1      -0.264   1.579   0.022  0.00  0.00    +0.062 C 
ATOM     23  C   UNL     1      -0.068   0.069   0.178  0.00  0.00    +0.256 C 
BRANCH  23  24
ATOM     24  O   UNL     1       0.625  -0.197   1.399  0.00  0.00    -0.480 OA
BRANCH  24  25
ATOM     25  C   UNL     1      -0.126  -0.286   2.528  0.00  0.00    +0.122 A 
ATOM     26  C   UNL     1      -1.487  -0.021   2.480  0.00  0.00    +0.045 A 
ATOM     27  C   UNL     1      -2.248  -0.111   3.629  0.00  0.00    +0.004 A 
ATOM     28  C   UNL     1      -1.655  -0.466   4.827  0.00  0.00    +0.000 A 
ATOM     29  C   UNL     1      -0.298  -0.730   4.877  0.00  0.00    +0.004 A 
ATOM     30  C   UNL     1       0.466  -0.647   3.729  0.00  0.00    +0.045 A 
ENDBRANCH  24  25
ENDBRANCH  23  24
ENDBRANCH   1  23
TORSDOF 6
