REMARK  Name = ZINC38663577
REMARK  12 active torsions:
REMARK  status: ('A' for Active; 'I' for Inactive)
REMARK    1  A    between atoms: C_1  and  C_2
REMARK    2  A    between atoms: C_2  and  C_4
REMARK    3  A    between atoms: C_2  and  N_12
REMARK    4  A    between atoms: N_6  and  C_7
REMARK    5  A    between atoms: C_7  and  C_8
REMARK    6  A    between atoms: C_8  and  C_9
REMARK    7  A    between atoms: C_9  and  C_10
REMARK    8  A    between atoms: C_9  and  C_11
REMARK    9  A    between atoms: N_12  and  C_13
REMARK   10  A    between atoms: C_23  and  C_25
REMARK   11  A    between atoms: C_26  and  N_33
REMARK   12  A    between atoms: C_27  and  C_30
REMARK                            x       y       z     vdW  Elec       q    Type
REMARK                         _______ _______ _______ _____ _____    ______ ____
ROOT
ATOM      1  N   UNL     1      -1.365  -0.421   0.056  0.00  0.00    -0.255 N 
ATOM      2  C   UNL     1      -1.776  -1.317  -0.864  0.00  0.00    +0.261 C 
ATOM      3  O   UNL     1      -1.005  -1.701  -1.725  0.00  0.00    -0.269 OA
ENDROOT
BRANCH   1   4
ATOM      4  C   UNL     1      -2.250   0.021   1.045  0.00  0.00    +0.041 A 
ATOM      5  C   UNL     1      -2.304  -0.636   2.265  0.00  0.00    +0.024 A 
ATOM      6  C   UNL     1      -3.179  -0.199   3.239  0.00  0.00    +0.002 A 
ATOM      7  C   UNL     1      -3.996   0.886   2.992  0.00  0.00    +0.004 A 
ATOM      8  C   UNL     1      -3.947   1.547   1.771  0.00  0.00    -0.042 A 
ATOM      9  C   UNL     1      -3.070   1.123   0.800  0.00  0.00    -0.023 A 
ATOM     10  C   UNL     1      -2.947   1.805  -0.537  0.00  0.00    +0.037 C 
ATOM     11  C   UNL     1      -4.169   2.681  -0.807  0.00  0.00    +0.005 C 
ATOM     12  C   UNL     1      -4.391   3.589   0.408  0.00  0.00    +0.005 C 
ATOM     13  C   UNL     1      -4.874   2.718   1.571  0.00  0.00    +0.035 C 
ENDBRANCH   1   4
BRANCH   2  14
ATOM     14  C   UNL     1      -3.147  -1.827  -0.828  0.00  0.00    +0.116 A 
ATOM     15  C   UNL     1      -3.769  -2.751  -1.669  0.00  0.00    +0.076 A 
ATOM     16  C   UNL     1      -5.098  -3.002  -1.332  0.00  0.00    +0.155 A 
ATOM     17  N   UNL     1      -5.633  -2.382  -0.301  0.00  0.00    -0.203 NA
ATOM     18  S   UNL     1      -4.466  -1.441   0.306  0.00  0.00    +0.019 S 
BRANCH  16  19
ATOM     19  C   UNL     1      -5.897  -3.955  -2.123  0.00  0.00    +0.262 C 
ATOM     20  O   UNL     1      -5.373  -4.597  -3.013  0.00  0.00    -0.269 OA
ATOM     21  N   UNL     1      -7.210  -4.114  -1.860  0.00  0.00    -0.324 N 
ATOM     22  H   UNL     1      -7.628  -3.602  -1.150  0.00  0.00    +0.145 HD
ATOM     23  H   UNL     1      -7.736  -4.741  -2.381  0.00  0.00    +0.145 HD
ENDBRANCH  16  19
BRANCH  15  24
ATOM     24  N   UNL     1      -3.127  -3.360  -2.739  0.00  0.00    -0.355 N 
ATOM     25  H   UNL     1      -2.225  -3.095  -2.978  0.00  0.00    +0.142 HD
ATOM     26  H   UNL     1      -3.580  -4.051  -3.247  0.00  0.00    +0.142 HD
ENDBRANCH  15  24
ENDBRANCH   2  14
BRANCH   1  28
ATOM     27  C   UNL     1      -0.018   1.619  -0.003  0.00  0.00    +0.038 C 
ATOM     28  C   UNL     1       0.007   0.090   0.020  0.00  0.00    +0.164 C 
BRANCH  28  29
ATOM     29  C   UNL     1       0.751  -0.382   1.243  0.00  0.00    +0.234 C 
ATOM     30  O   UNL     1       0.166  -1.000   2.108  0.00  0.00    -0.274 OA
ATOM     31  N   UNL     1       2.066  -0.117   1.376  0.00  0.00    -0.314 N 
ATOM     32  H   UNL     1       2.533   0.377   0.685  0.00  0.00    +0.149 HD
BRANCH  31  33
ATOM     33  C   UNL     1       2.788  -0.575   2.565  0.00  0.00    +0.104 C 
BRANCH  33  34
ATOM     34  C   UNL     1       4.254  -0.147   2.467  0.00  0.00    +0.022 C 
BRANCH  34  35
ATOM     35  C   UNL     1       5.009  -0.626   3.709  0.00  0.00    -0.016 C 
ATOM     36  C   UNL     1       5.035  -2.155   3.732  0.00  0.00    +0.007 C 
ATOM     37  C   UNL     1       6.442  -0.092   3.672  0.00  0.00    +0.007 C 
ENDBRANCH  34  35
ENDBRANCH  33  34
ENDBRANCH  31  33
ENDBRANCH  28  29
ENDBRANCH   1  28
TORSDOF 9
