REMARK  Name = ZINC64450509
REMARK  7 active torsions:
REMARK  status: ('A' for Active; 'I' for Inactive)
REMARK    1  A    between atoms: C_1  and  C_2
REMARK    2  A    between atoms: C_5  and  N_8
REMARK    3  A    between atoms: N_8  and  S_9
REMARK    4  A    between atoms: S_9  and  C_12
REMARK    5  A    between atoms: C_14  and  C_18
REMARK    6  A    between atoms: C_16  and  C_17
REMARK    7  A    between atoms: C_20  and  C_23
REMARK                            x       y       z     vdW  Elec       q    Type
REMARK                         _______ _______ _______ _____ _____    ______ ____
ROOT
ATOM      1  C   UNL     1       0.097  -6.719   1.009  0.00  0.00    +0.121 A 
ATOM      2  C   UNL     1       1.182  -7.499   1.339  0.00  0.00    +0.050 A 
ATOM      3  C   UNL     1       1.095  -8.834   0.978  0.00  0.00    +0.079 A 
ATOM      4  S   UNL     1      -0.508  -8.899   0.200  0.00  0.00    -0.087 S 
ATOM      5  C   UNL     1      -0.957  -7.290   0.378  0.00  0.00    +0.014 A 
ATOM      6  C   UNL     1      -2.237  -6.631  -0.066  0.00  0.00    +0.053 C 
ENDROOT
BRANCH   3   7
ATOM      7  C   UNL     1       2.068  -9.913   1.183  0.00  0.00    +0.265 A 
ATOM      8  N   UNL     1       1.922 -11.167   0.808  0.00  0.00    -0.187 NA
ATOM      9  C   UNL     1       3.006 -11.876   1.155  0.00  0.00    +0.202 A 
ATOM     10  N   UNL     1       3.859 -11.082   1.757  0.00  0.00    -0.056 NA
ATOM     11  O   UNL     1       3.268  -9.792   1.781  0.00  0.00    -0.332 OA
BRANCH   9  12
ATOM     12  C   UNL     1       3.208 -13.324   0.900  0.00  0.00    +0.023 A 
ATOM     13  C   UNL     1       2.225 -14.062   0.243  0.00  0.00    +0.014 A 
ATOM     14  C   UNL     1       2.416 -15.407   0.008  0.00  0.00    +0.039 A 
ATOM     15  C   UNL     1       3.584 -16.026   0.423  0.00  0.00    +0.123 A 
ATOM     16  C   UNL     1       4.565 -15.297   1.076  0.00  0.00    +0.039 A 
ATOM     17  C   UNL     1       4.384 -13.949   1.311  0.00  0.00    +0.014 A 
ATOM     18  F   UNL     1       3.768 -17.344   0.191  0.00  0.00    -0.205 F 
ENDBRANCH   9  12
ENDBRANCH   3   7
BRANCH   1  19
ATOM     19  S   UNL     1       0.076  -5.003   1.409  0.00  0.00    +0.092 S 
ATOM     20  O   UNL     1       1.321  -4.716   2.031  0.00  0.00    -0.148 OA
ATOM     21  O   UNL     1      -1.169  -4.749   2.043  0.00  0.00    -0.148 OA
BRANCH  19  22
ATOM     22  N   UNL     1       0.058  -4.167  -0.021  0.00  0.00    -0.098 NA
BRANCH  22  27
ATOM     23  C   UNL     1      -0.018   1.503   0.010  0.00  0.00    +0.044 C 
ATOM     24  C   UNL     1       0.002  -0.004   0.002  0.00  0.00    -0.050 A 
ATOM     25  C   UNL     1       0.006  -0.687  -1.200  0.00  0.00    +0.005 A 
ATOM     26  C   UNL     1       0.024  -2.068  -1.212  0.00  0.00    +0.027 A 
ATOM     27  C   UNL     1       0.040  -2.771  -0.013  0.00  0.00    +0.074 A 
ATOM     28  C   UNL     1       0.036  -2.081   1.193  0.00  0.00    +0.027 A 
ATOM     29  C   UNL     1       0.023  -0.700   1.197  0.00  0.00    +0.005 A 
ENDBRANCH  22  27
ENDBRANCH  19  22
ENDBRANCH   1  19
TORSDOF 5
