REMARK  Name = ZINC33414021
REMARK  6 active torsions:
REMARK  status: ('A' for Active; 'I' for Inactive)
REMARK    1  A    between atoms: C_3  and  O_26
REMARK    2  A    between atoms: C_4  and  O_25
REMARK    3  A    between atoms: C_6  and  C_7
REMARK    4  A    between atoms: C_9  and  C_22
REMARK    5  A    between atoms: C_13  and  O_21
REMARK    6  A    between atoms: C_14  and  O_20
REMARK                            x       y       z     vdW  Elec       q    Type
REMARK                         _______ _______ _______ _____ _____    ______ ____
ROOT
ATOM      1  C   UNL     1       3.602   1.940  -0.531  0.00  0.00    +0.225 C 
ATOM      2  C   UNL     1       2.385   1.207   0.034  0.00  0.00    +0.178 C 
ATOM      3  C   UNL     1       1.187   2.121   0.053  0.00  0.00    -0.012 A 
ATOM      4  C   UNL     1      -0.083   1.585   0.098  0.00  0.00    +0.054 A 
ATOM      5  C   UNL     1      -1.192   2.419   0.119  0.00  0.00    +0.159 A 
ATOM      6  C   UNL     1      -1.031   3.804   0.106  0.00  0.00    +0.159 A 
ATOM      7  C   UNL     1       0.238   4.349   0.059  0.00  0.00    +0.064 A 
ATOM      8  C   UNL     1       1.352   3.507   0.030  0.00  0.00    +0.067 A 
ATOM      9  C   UNL     1       2.715   4.077  -0.030  0.00  0.00    +0.340 C 
ATOM     10  O   UNL     1       2.899   5.261  -0.230  0.00  0.00    -0.245 OA
ATOM     11  O   UNL     1       3.753   3.220   0.149  0.00  0.00    -0.452 OA
ENDROOT
BRANCH   1  17
ATOM     12  C   UNL     1       2.903   1.165  -2.805  0.00  0.00    +0.011 A 
ATOM     13  C   UNL     1       2.717   1.377  -4.159  0.00  0.00    +0.049 A 
ATOM     14  C   UNL     1       3.047   2.600  -4.720  0.00  0.00    +0.158 A 
ATOM     15  C   UNL     1       3.560   3.615  -3.917  0.00  0.00    +0.159 A 
ATOM     16  C   UNL     1       3.738   3.398  -2.561  0.00  0.00    +0.056 A 
ATOM     17  C   UNL     1       3.407   2.174  -2.007  0.00  0.00    -0.002 A 
BRANCH  15  18
ATOM     18  O   UNL     1       3.885   4.817  -4.463  0.00  0.00    -0.503 OA
ATOM     19  H   UNL     1       4.290   5.619  -3.828  0.00  0.00    +0.292 HD
ENDBRANCH  15  18
BRANCH  14  20
ATOM     20  O   UNL     1       2.869   2.809  -6.052  0.00  0.00    -0.503 OA
ATOM     21  H   UNL     1       3.131   3.780  -6.496  0.00  0.00    +0.292 HD
ENDBRANCH  14  20
ENDBRANCH   1  17
BRANCH   2  22
ATOM     22  C   UNL     1       2.686   0.750   1.438  0.00  0.00    +0.367 C 
ATOM     23  O   UNL     1       3.757   1.000   1.939  0.00  0.00    -0.246 OA
ATOM     24  O   UNL     1       1.764   0.065   2.133  0.00  0.00    -0.246 OA
ENDBRANCH   2  22
BRANCH   6  25
ATOM     25  O   UNL     1      -2.121   4.617   0.134  0.00  0.00    -0.503 OA
ATOM     26  H   UNL     1      -1.992   5.709   0.124  0.00  0.00    +0.292 HD
ENDBRANCH   6  25
BRANCH   5  27
ATOM     27  O   UNL     1      -2.439   1.884   0.158  0.00  0.00    -0.503 OA
ATOM     28  H   UNL     1      -3.320   2.543   0.175  0.00  0.00    +0.292 HD
ENDBRANCH   5  27
TORSDOF 6
