REMARK  Name = ZINC40744484
REMARK  9 active torsions:
REMARK  status: ('A' for Active; 'I' for Inactive)
REMARK    1  A    between atoms: C_4  and  O_20
REMARK    2  A    between atoms: C_5  and  C_7
REMARK    3  A    between atoms: C_7  and  N_8
REMARK    4  A    between atoms: N_8  and  C_9
REMARK    5  A    between atoms: C_9  and  C_10
REMARK    6  A    between atoms: C_10  and  N_11
REMARK    7  A    between atoms: C_12  and  C_14
REMARK    8  A    between atoms: O_20  and  C_21
REMARK    9  A    between atoms: C_21  and  C_22
REMARK                            x       y       z     vdW  Elec       q    Type
REMARK                         _______ _______ _______ _____ _____    ______ ____
ROOT
ATOM      1  C   UNL     1       1.227  -2.187  -0.022  0.00  0.00    -0.043 C 
ENDROOT
BRANCH   1   6
ATOM      2  C   UNL     1      -0.017   1.378   0.010  0.00  0.00    +0.000 A 
ATOM      3  C   UNL     1       1.170   2.088   0.002  0.00  0.00    +0.004 A 
ATOM      4  C   UNL     1       2.377   1.417  -0.013  0.00  0.00    +0.046 A 
ATOM      5  C   UNL     1       2.399   0.030  -0.021  0.00  0.00    +0.122 A 
ATOM      6  C   UNL     1       1.207  -0.680  -0.013  0.00  0.00    -0.023 A 
ATOM      7  C   UNL     1       0.002  -0.004   0.002  0.00  0.00    +0.005 A 
BRANCH   5   8
ATOM      8  O   UNL     1       3.586  -0.632  -0.037  0.00  0.00    -0.487 OA
BRANCH   8   9
ATOM      9  C   UNL     1       4.772   0.164  -0.045  0.00  0.00    +0.264 C 
BRANCH   9  10
ATOM     10  C   UNL     1       5.981  -0.737  -0.062  0.00  0.00    -0.009 A 
ATOM     11  C   UNL     1       6.544  -1.161   1.128  0.00  0.00    +0.008 A 
ATOM     12  C   UNL     1       7.652  -1.986   1.113  0.00  0.00    +0.022 A 
ATOM     13  C   UNL     1       8.199  -2.389  -0.092  0.00  0.00    +0.059 A 
ATOM     14  C   UNL     1       7.635  -1.965  -1.283  0.00  0.00    +0.060 A 
ATOM     15  C   UNL     1       6.522  -1.143  -1.267  0.00  0.00    +0.028 A 
ATOM     16 CL   UNL     1       8.320  -2.470  -2.796  0.00  0.00    -0.082 Cl
ATOM     17 CL   UNL     1       9.591  -3.425  -0.111  0.00  0.00    -0.082 Cl
ENDBRANCH   9  10
ENDBRANCH   8   9
ENDBRANCH   5   8
ENDBRANCH   1   6
BRANCH   1  18
ATOM     18  N   UNL     1       1.488  -2.681   1.337  0.00  0.00    +0.383 N 
ATOM     19  H   UNL     1       2.380  -2.334   1.655  0.00  0.00    -0.085 HD
ATOM     20  H   UNL     1       0.761  -2.357   1.958  0.00  0.00    -0.085 HD
BRANCH  18  21
ATOM     21  C   UNL     1       1.507  -4.150   1.328  0.00  0.00    -0.063 C 
BRANCH  21  22
ATOM     22  C   UNL     1       1.778  -4.664   2.743  0.00  0.00    +0.085 C 
BRANCH  22  23
ATOM     23  N   UNL     1       1.797  -6.129   2.735  0.00  0.00    -0.312 N 
ATOM     24  C   UNL     1       2.021  -6.807   3.878  0.00  0.00    +0.269 C 
ATOM     25  O   UNL     1       2.206  -6.203   4.916  0.00  0.00    -0.268 OA
ATOM     26  H   UNL     1       1.649  -6.611   1.906  0.00  0.00    +0.149 HD
BRANCH  24  27
ATOM     27  C   UNL     1       2.040  -8.288   3.870  0.00  0.00    +0.209 A 
ATOM     28  C   UNL     1       2.264  -9.152   5.035  0.00  0.00    +0.192 A 
ATOM     29  N   UNL     1       2.209 -10.395   4.640  0.00  0.00    -0.033 NA
ATOM     30  O   UNL     1       1.956 -10.399   3.246  0.00  0.00    -0.240 OA
ATOM     31  N   UNL     1       1.855  -9.050   2.824  0.00  0.00    -0.042 NA
ATOM     32  N   UNL     1       2.493  -8.720   6.334  0.00  0.00    -0.339 N 
ATOM     33  H   UNL     1       2.516  -7.771   6.533  0.00  0.00    +0.144 HD
ATOM     34  H   UNL     1       2.631  -9.368   7.043  0.00  0.00    +0.144 HD
ENDBRANCH  24  27
ENDBRANCH  22  23
ENDBRANCH  21  22
ENDBRANCH  18  21
ENDBRANCH   1  18
TORSDOF 9
