REMARK  Name = ZINC45364465
REMARK  8 active torsions:
REMARK  status: ('A' for Active; 'I' for Inactive)
REMARK    1  A    between atoms: C_1  and  C_2
REMARK    2  A    between atoms: C_2  and  C_3
REMARK    3  A    between atoms: C_2  and  N_4
REMARK    4  A    between atoms: N_4  and  C_5
REMARK    5  A    between atoms: C_5  and  C_7
REMARK    6  A    between atoms: C_5  and  C_19
REMARK    7  A    between atoms: C_7  and  S_8
REMARK    8  A    between atoms: S_8  and  C_9
REMARK                            x       y       z     vdW  Elec       q    Type
REMARK                         _______ _______ _______ _____ _____    ______ ____
ROOT
ATOM      1  S   UNL     1      -3.181  -0.966  -2.491  0.00  0.00    -0.083 S 
ENDROOT
BRANCH   1   2
ATOM      2  C   UNL     1      -4.818  -1.371  -3.000  0.00  0.00    +0.192 A 
ATOM      3  N   UNL     1      -5.597  -2.291  -2.475  0.00  0.00    -0.123 NA
ATOM      4  N   UNL     1      -6.728  -2.311  -3.090  0.00  0.00    -0.134 NA
ATOM      5  C   UNL     1      -6.737  -1.411  -4.029  0.00  0.00    +0.134 A 
ATOM      6  N   UNL     1      -5.522  -0.788  -4.008  0.00  0.00    -0.306 N 
ATOM      7  C   UNL     1      -5.074   0.277  -4.906  0.00  0.00    +0.125 C 
ATOM      8  C   UNL     1      -6.289   1.078  -5.386  0.00  0.00    +0.022 C 
ATOM      9  C   UNL     1      -6.851   0.449  -6.659  0.00  0.00    +0.002 C 
ATOM     10  C   UNL     1      -7.320  -0.978  -6.393  0.00  0.00    +0.008 C 
ATOM     11  C   UNL     1      -7.867  -1.087  -4.972  0.00  0.00    +0.076 C 
ENDBRANCH   1   2
BRANCH   1  12
ATOM     12  C   UNL     1      -2.854  -2.105  -1.117  0.00  0.00    +0.111 C 
BRANCH  12  13
ATOM     13  C   UNL     1      -1.445  -1.858  -0.574  0.00  0.00    +0.168 C 
BRANCH  13  14
ATOM     14  N   UNL     1      -1.376  -0.512   0.012  0.00  0.00    -0.299 NA
ATOM     15  H   UNL     1      -1.757  -0.505   0.947  0.00  0.00    +0.123 HD
BRANCH  14  17
ATOM     16  C   UNL     1      -0.019   1.526   0.010  0.00  0.00    +0.023 C 
ATOM     17  C   UNL     1       0.002  -0.004   0.002  0.00  0.00    +0.049 C 
ATOM     18  C   UNL     1       0.742  -0.511   1.242  0.00  0.00    +0.023 C 
ENDBRANCH  14  17
ENDBRANCH  13  14
BRANCH  13  19
ATOM     19  C   UNL     1      -1.135  -2.860   0.459  0.00  0.00    +0.082 C 
ATOM     20  N   UNL     1      -0.895  -3.633   1.256  0.00  0.00    -0.195 NA
ENDBRANCH  13  19
ENDBRANCH  12  13
ENDBRANCH   1  12
TORSDOF 6
