REMARK  Name = ZINC03535324
REMARK  9 active torsions:
REMARK  status: ('A' for Active; 'I' for Inactive)
REMARK    1  A    between atoms: C_1  and  C_2
REMARK    2  A    between atoms: C_2  and  C_3
REMARK    3  A    between atoms: C_2  and  C_4
REMARK    4  A    between atoms: C_4  and  C_5
REMARK    5  A    between atoms: C_4  and  C_6
REMARK    6  A    between atoms: C_4  and  N_8
REMARK    7  A    between atoms: C_9  and  C_11
REMARK    8  A    between atoms: C_11  and  S_12
REMARK    9  A    between atoms: S_12  and  C_13
REMARK                            x       y       z     vdW  Elec       q    Type
REMARK                         _______ _______ _______ _____ _____    ______ ____
ROOT
ATOM      1  N   UNL     1      -1.329   6.729   0.052  0.00  0.00    -0.297 N 
ATOM      2  C   UNL     1      -0.202   5.990   0.037  0.00  0.00    +0.224 C 
ATOM      3  O   UNL     1       0.881   6.536   0.029  0.00  0.00    -0.275 OA
ATOM      4  H   UNL     1      -2.311   6.234   0.059  0.00  0.00    +0.150 HD
ENDROOT
BRANCH   1   5
ATOM      5  C   UNL     1      -1.246   8.191   0.059  0.00  0.00    +0.121 C 
ATOM      6  C   UNL     1      -0.484   8.653   1.304  0.00  0.00    +0.048 C 
BRANCH   5   8
ATOM      7  C   UNL     1      -2.571  10.304   0.210  0.00  0.00    +0.010 C 
ATOM      8  C   UNL     1      -2.657   8.782   0.077  0.00  0.00    +0.020 C 
ATOM      9  C   UNL     1      -3.376   8.424  -1.226  0.00  0.00    +0.010 C 
ENDBRANCH   5   8
BRANCH   5  10
ATOM     10  C   UNL     1      -0.537   8.649  -1.147  0.00  0.00    +0.088 C 
ATOM     11  N   UNL     1       0.009   9.001  -2.078  0.00  0.00    -0.194 NA
ENDBRANCH   5  10
ENDBRANCH   1   5
BRANCH   2  12
ATOM     12  C   UNL     1      -0.287   4.485   0.030  0.00  0.00    +0.172 C 
BRANCH  12  13
ATOM     13  S   UNL     1       1.386   3.785   0.009  0.00  0.00    -0.088 S 
BRANCH  13  14
ATOM     14  C   UNL     1       1.119   2.043   0.002  0.00  0.00    +0.160 A 
ATOM     15  N   UNL     1      -0.017   1.371   0.010  0.00  0.00    -0.133 NA
ATOM     16  N   UNL     1       0.002  -0.004   0.002  0.00  0.00    -0.125 NA
ATOM     17  C   UNL     1       1.154  -0.645  -0.012  0.00  0.00    +0.180 A 
ATOM     18  S   UNL     1       2.313   0.715  -0.016  0.00  0.00    -0.025 S 
ATOM     19  N   UNL     1       1.402  -2.013  -0.022  0.00  0.00    -0.336 N 
ATOM     20  H   UNL     1       2.437  -2.384  -0.034  0.00  0.00    +0.144 HD
ATOM     21  H   UNL     1       0.562  -2.723  -0.018  0.00  0.00    +0.144 HD
ENDBRANCH  13  14
ENDBRANCH  12  13
ENDBRANCH   2  12
TORSDOF 6
