REMARK  Name = ZINC39841005
REMARK  10 active torsions:
REMARK  status: ('A' for Active; 'I' for Inactive)
REMARK    1  A    between atoms: C_1  and  O_2
REMARK    2  A    between atoms: O_2  and  C_3
REMARK    3  A    between atoms: C_3  and  C_4
REMARK    4  A    between atoms: C_4  and  N_5
REMARK    5  A    between atoms: C_6  and  N_7
REMARK    6  A    between atoms: C_8  and  C_21
REMARK    7  A    between atoms: N_23  and  C_24
REMARK    8  A    between atoms: C_25  and  C_33
REMARK    9  A    between atoms: C_33  and  O_35
REMARK   10  A    between atoms: O_35  and  C_36
REMARK                            x       y       z     vdW  Elec       q    Type
REMARK                         _______ _______ _______ _____ _____    ______ ____
ROOT
ATOM      1  N   UNL     1       1.361  -2.691  -2.156  0.00  0.00    -0.311 N 
ATOM      2  C   UNL     1       0.576  -2.925  -3.190  0.00  0.00    +0.110 A 
ATOM      3  C   UNL     1       1.085  -3.468  -4.391  0.00  0.00    +0.076 A 
ATOM      4  C   UNL     1       2.447  -3.763  -4.482  0.00  0.00    +0.033 A 
ATOM      5  C   UNL     1       3.248  -3.504  -3.373  0.00  0.00    +0.083 A 
ATOM      6  C   UNL     1       2.670  -2.951  -2.198  0.00  0.00    +0.150 A 
ATOM      7  N   UNL     1       3.456  -2.705  -1.146  0.00  0.00    -0.211 NA
ATOM      8  C   UNL     1       4.761  -2.956  -1.163  0.00  0.00    +0.143 A 
ATOM      9  C   UNL     1       5.517  -2.666  -0.007  0.00  0.00    +0.047 A 
ATOM     10  C   UNL     1       6.855  -2.914   0.002  0.00  0.00    +0.005 A 
ATOM     11  C   UNL     1       7.468  -3.455  -1.139  0.00  0.00    +0.018 A 
ATOM     12  C   UNL     1       6.732  -3.727  -2.238  0.00  0.00    +0.096 A 
ATOM     13  N   UNL     1       5.389  -3.484  -2.259  0.00  0.00    -0.268 N 
ATOM     14  C   UNL     1       4.685  -3.780  -3.377  0.00  0.00    +0.268 A 
ATOM     15  O   UNL     1       5.232  -4.250  -4.357  0.00  0.00    -0.267 OA
ENDROOT
BRANCH   3  16
ATOM     16  C   UNL     1       0.191  -3.721  -5.531  0.00  0.00    +0.252 C 
ATOM     17  O   UNL     1      -0.971  -3.363  -5.484  0.00  0.00    -0.270 OA
ATOM     18  N   UNL     1       0.658  -4.349  -6.628  0.00  0.00    -0.275 N 
ATOM     19  H   UNL     1       1.585  -4.635  -6.666  0.00  0.00    +0.156 HD
BRANCH  18  20
ATOM     20  C   UNL     1      -0.184  -4.587  -7.702  0.00  0.00    +0.087 A 
ATOM     21  C   UNL     1       0.118  -5.219  -8.899  0.00  0.00    +0.091 A 
ATOM     22  C   UNL     1      -0.953  -5.345  -9.872  0.00  0.00    -0.021 A 
ATOM     23  C   UNL     1      -2.129  -4.816  -9.470  0.00  0.00    -0.004 A 
ATOM     24  S   UNL     1      -1.807  -4.184  -7.850  0.00  0.00    -0.077 S 
ATOM     25  C   UNL     1      -3.412  -4.786 -10.242  0.00  0.00    +0.043 C 
ATOM     26  C   UNL     1      -3.100  -5.109 -11.710  0.00  0.00    +0.005 C 
ATOM     27  C   UNL     1      -2.203  -6.349 -11.765  0.00  0.00    +0.005 C 
ATOM     28  C   UNL     1      -0.808  -6.006 -11.235  0.00  0.00    +0.037 C 
BRANCH  21  29
ATOM     29  C   UNL     1       1.461  -5.737  -9.171  0.00  0.00    +0.342 C 
ATOM     30  O   UNL     1       1.746  -6.879  -8.864  0.00  0.00    -0.245 OA
BRANCH  29  31
ATOM     31  O   UNL     1       2.381  -4.948  -9.762  0.00  0.00    -0.464 OA
ATOM     32  C   UNL     1       3.670  -5.519  -9.998  0.00  0.00    +0.280 C 
ENDBRANCH  29  31
ENDBRANCH  21  29
ENDBRANCH  18  20
ENDBRANCH   3  16
BRANCH   2  33
ATOM     33  N   UNL     1      -0.769  -2.633  -3.097  0.00  0.00    -0.344 N 
ATOM     34  H   UNL     1      -1.143  -2.333  -2.254  0.00  0.00    +0.144 HD
ATOM     35  H   UNL     1      -1.340  -2.727  -3.875  0.00  0.00    +0.144 HD
ENDBRANCH   2  33
BRANCH   1  36
ATOM     36  C   UNL     1       0.784  -2.125  -0.934  0.00  0.00    +0.153 C 
BRANCH  36  37
ATOM     37  C   UNL     1       0.832  -0.598  -1.007  0.00  0.00    +0.181 C 
BRANCH  37  39
ATOM     38  C   UNL     1       0.266   1.383   0.219  0.00  0.00    +0.194 C 
ATOM     39  O   UNL     1       0.270  -0.046   0.185  0.00  0.00    -0.381 OA
ENDBRANCH  37  39
ENDBRANCH  36  37
ENDBRANCH   1  36
TORSDOF 8
