REMARK  Name = ZINC21330535
REMARK  9 active torsions:
REMARK  status: ('A' for Active; 'I' for Inactive)
REMARK    1  A    between atoms: C_1  and  N_2
REMARK    2  A    between atoms: C_6  and  C_8
REMARK    3  A    between atoms: C_8  and  C_10
REMARK    4  A    between atoms: C_8  and  O_16
REMARK    5  A    between atoms: O_16  and  C_17
REMARK    6  A    between atoms: C_17  and  C_19
REMARK    7  A    between atoms: C_19  and  C_20
REMARK    8  A    between atoms: C_20  and  N_21
REMARK    9  A    between atoms: N_24  and  C_25
REMARK                            x       y       z     vdW  Elec       q    Type
REMARK                         _______ _______ _______ _____ _____    ______ ____
ROOT
ATOM      1  C   UNL     1       2.067   4.281   2.099  0.00  0.00    +0.310 C 
ATOM      2  O   UNL     1       0.985   4.045   2.583  0.00  0.00    -0.251 OA
ENDROOT
BRANCH   1   3
ATOM      3  O   UNL     1       2.272   4.088   0.787  0.00  0.00    -0.447 OA
BRANCH   3   4
ATOM      4  C   UNL     1       1.151   3.592   0.010  0.00  0.00    +0.292 C 
BRANCH   4  10
ATOM      5  C   UNL     1      -0.530   4.559  -5.805  0.00  0.00    +0.129 C 
ATOM      6  N   UNL     1      -0.631   4.062  -4.430  0.00  0.00    -0.302 N 
ATOM      7  C   UNL     1       0.358   4.311  -3.549  0.00  0.00    +0.306 C 
ATOM      8  O   UNL     1       1.333   4.948  -3.895  0.00  0.00    -0.252 OA
ATOM      9  N   UNL     1       0.265   3.854  -2.285  0.00  0.00    -0.237 N 
ATOM     10  C   UNL     1       1.254   4.104  -1.404  0.00  0.00    +0.266 C 
ATOM     11  O   UNL     1       2.227   4.739  -1.749  0.00  0.00    -0.271 OA
ATOM     12  H   UNL     1      -1.514   3.485  -4.117  0.00  0.00    +0.150 HD
ATOM     13  H   UNL     1      -0.618   3.278  -1.972  0.00  0.00    +0.159 HD
ENDBRANCH   4  10
BRANCH   4  14
ATOM     14  C   UNL     1       1.171   2.086   0.002  0.00  0.00    +0.002 A 
ATOM     15  C   UNL     1      -0.017   1.378   0.010  0.00  0.00    +0.008 A 
ATOM     16  C   UNL     1       0.002  -0.004   0.002  0.00  0.00    +0.000 A 
ATOM     17  C   UNL     1       1.208  -0.679  -0.014  0.00  0.00    +0.000 A 
ATOM     18  C   UNL     1       2.396   0.029  -0.021  0.00  0.00    +0.000 A 
ATOM     19  C   UNL     1       2.377   1.411  -0.014  0.00  0.00    +0.008 A 
ENDBRANCH   4  14
ENDBRANCH   3   4
ENDBRANCH   1   3
BRANCH   1  20
ATOM     20  C   UNL     1       3.185   4.793   2.970  0.00  0.00    +0.139 C 
BRANCH  20  21
ATOM     21  C   UNL     1       2.690   4.924   4.412  0.00  0.00    +0.117 C 
BRANCH  21  22
ATOM     22  N   UNL     1       3.777   5.422   5.258  0.00  0.00    -0.299 N 
ATOM     23  C   UNL     1       3.571   5.616   6.576  0.00  0.00    +0.300 C 
ATOM     24  O   UNL     1       2.482   5.378   7.062  0.00  0.00    -0.253 OA
ATOM     25  N   UNL     1       4.571   6.074   7.354  0.00  0.00    -0.294 N 
ATOM     26  H   UNL     1       4.762   5.637   4.818  0.00  0.00    +0.150 HD
ATOM     27  H   UNL     1       5.556   6.290   6.915  0.00  0.00    +0.151 HD
BRANCH  25  28
ATOM     28  C   UNL     1       4.346   6.286   8.787  0.00  0.00    +0.037 C 
ATOM     29  C   UNL     1       3.227   7.310   8.982  0.00  0.00    +0.029 C 
ATOM     30  C   UNL     1       2.992   7.531  10.477  0.00  0.00    -0.008 C 
ATOM     31  C   UNL     1       4.278   8.051  11.124  0.00  0.00    +0.007 C 
ATOM     32  C   UNL     1       5.397   7.026  10.929  0.00  0.00    -0.008 C 
ATOM     33  C   UNL     1       5.632   6.805   9.433  0.00  0.00    +0.029 C 
ATOM     34  C   UNL     1       4.996   5.702  11.583  0.00  0.00    +0.007 C 
ATOM     35  C   UNL     1       3.711   5.183  10.936  0.00  0.00    -0.008 C 
ATOM     36  C   UNL     1       2.591   6.207  11.131  0.00  0.00    +0.007 C 
ATOM     37  C   UNL     1       3.945   4.962   9.441  0.00  0.00    +0.029 C 
ENDBRANCH  25  28
ENDBRANCH  21  22
ENDBRANCH  20  21
ENDBRANCH   1  20
TORSDOF 8
