REMARK  Name = ZINC09218988
REMARK  10 active torsions:
REMARK  status: ('A' for Active; 'I' for Inactive)
REMARK    1  A    between atoms: C_1  and  C_2
REMARK    2  A    between atoms: C_2  and  O_3
REMARK    3  A    between atoms: O_3  and  C_4
REMARK    4  A    between atoms: C_4  and  C_6
REMARK    5  A    between atoms: C_7  and  C_21
REMARK    6  A    between atoms: C_12  and  C_14
REMARK    7  A    between atoms: C_21  and  O_22
REMARK    8  A    between atoms: O_22  and  C_23
REMARK    9  A    between atoms: C_23  and  C_25
REMARK   10  A    between atoms: N_30  and  C_32
REMARK                            x       y       z     vdW  Elec       q    Type
REMARK                         _______ _______ _______ _____ _____    ______ ____
ROOT
ATOM      1  C   UNL     1       2.549  -3.317   8.341  0.00  0.00    +0.081 C 
ATOM      2  C   UNL     1       1.876  -2.163   8.539  0.00  0.00    +0.061 C 
ATOM      3  N   UNL     1       0.917  -2.063   9.506  0.00  0.00    -0.269 N 
ATOM      4  C   UNL     1       0.575  -3.071  10.319  0.00  0.00    +0.304 C 
ATOM      5  O   UNL     1      -0.292  -2.886  11.151  0.00  0.00    -0.252 OA
ATOM      6  N   UNL     1       1.161  -4.282  10.246  0.00  0.00    -0.288 N 
ATOM      7  C   UNL     1       2.211  -4.493   9.235  0.00  0.00    +0.144 C 
ATOM      8  H   UNL     1       0.458  -1.216   9.609  0.00  0.00    +0.156 HD
ATOM      9  H   UNL     1       0.898  -4.998  10.846  0.00  0.00    +0.151 HD
ENDROOT
BRANCH   7  10
ATOM     10  C   UNL     1       3.468  -4.915   9.951  0.00  0.00    -0.022 A 
ATOM     11  C   UNL     1       3.819  -4.312  11.145  0.00  0.00    +0.007 A 
ATOM     12  C   UNL     1       4.969  -4.702  11.805  0.00  0.00    +0.020 A 
ATOM     13  C   UNL     1       5.775  -5.689  11.265  0.00  0.00    +0.041 A 
ATOM     14  C   UNL     1       5.426  -6.288  10.068  0.00  0.00    +0.020 A 
ATOM     15  C   UNL     1       4.273  -5.901   9.412  0.00  0.00    +0.007 A 
ATOM     16 CL   UNL     1       7.223  -6.174  12.090  0.00  0.00    -0.084 Cl
ENDBRANCH   7  10
BRANCH   1  17
ATOM     17  C   UNL     1       3.539  -3.424   7.336  0.00  0.00    +0.339 C 
ATOM     18  O   UNL     1       3.277  -3.968   6.280  0.00  0.00    -0.245 OA
BRANCH  17  19
ATOM     19  O   UNL     1       4.773  -2.921   7.549  0.00  0.00    -0.462 OA
BRANCH  19  21
ATOM     20  C   UNL     1       7.054  -2.439   6.913  0.00  0.00    +0.048 C 
ATOM     21  C   UNL     1       5.723  -3.064   6.491  0.00  0.00    +0.229 C 
ENDBRANCH  19  21
ENDBRANCH  17  19
ENDBRANCH   1  17
BRANCH   2  22
ATOM     22  C   UNL     1       2.185  -0.968   7.676  0.00  0.00    +0.283 C 
BRANCH  22  23
ATOM     23  O   UNL     1       1.023  -0.640   6.869  0.00  0.00    -0.458 OA
BRANCH  23  24
ATOM     24  C   UNL     1       1.134   0.408   6.038  0.00  0.00    +0.313 C 
ATOM     25  O   UNL     1       2.167   1.032   5.987  0.00  0.00    -0.250 OA
BRANCH  24  26
ATOM     26  C   UNL     1      -0.031   0.807   5.169  0.00  0.00    +0.124 C 
ATOM     27  C   UNL     1      -0.413  -0.333   4.198  0.00  0.00    +0.112 C 
ATOM     28  C   UNL     1      -0.802   0.381   2.922  0.00  0.00    +0.217 C 
ATOM     29  O   UNL     1      -1.426  -0.117   2.009  0.00  0.00    -0.276 OA
ATOM     30  N   UNL     1      -0.357   1.649   2.948  0.00  0.00    -0.298 N 
ATOM     31  C   UNL     1       0.375   1.932   4.188  0.00  0.00    +0.123 C 
BRANCH  30  32
ATOM     32  C   UNL     1      -0.568   2.622   1.873  0.00  0.00    +0.076 C 
ATOM     33  C   UNL     1       0.061   2.121   0.548  0.00  0.00    +0.022 C 
ATOM     34  C   UNL     1      -0.723   2.867  -0.551  0.00  0.00    +0.002 C 
ATOM     35  C   UNL     1      -2.080   3.254   0.061  0.00  0.00    +0.002 C 
ATOM     36  C   UNL     1      -2.074   2.730   1.512  0.00  0.00    +0.022 C 
ENDBRANCH  30  32
ENDBRANCH  24  26
ENDBRANCH  23  24
ENDBRANCH  22  23
ENDBRANCH   2  22
TORSDOF 9
