REMARK  Name = ZINC65183078
REMARK  8 active torsions:
REMARK  status: ('A' for Active; 'I' for Inactive)
REMARK    1  A    between atoms: C_1  and  N_2
REMARK    2  A    between atoms: N_2  and  C_3
REMARK    3  A    between atoms: C_3  and  C_4
REMARK    4  A    between atoms: C_4  and  C_5
REMARK    5  A    between atoms: C_8  and  C_11
REMARK    6  A    between atoms: C_22  and  C_24
REMARK    7  A    between atoms: C_27  and  O_31
REMARK    8  A    between atoms: O_31  and  C_32
REMARK                            x       y       z     vdW  Elec       q    Type
REMARK                         _______ _______ _______ _____ _____    ______ ____
ROOT
ATOM      1  C   UNL     1      -1.071  -1.794   3.140  0.00  0.00    +0.139 C 
ATOM      2  N   UNL     1       0.059  -2.126   3.651  0.00  0.00    -0.072 NA
ATOM      3  O   UNL     1      -0.120  -2.828   4.867  0.00  0.00    -0.367 OA
ATOM      4  C   UNL     1      -1.539  -2.910   5.080  0.00  0.00    +0.318 C 
ATOM      5  N   UNL     1      -2.121  -2.212   3.923  0.00  0.00    -0.291 N 
ATOM      6  H   UNL     1      -3.065  -2.075   3.745  0.00  0.00    +0.151 HD
ENDROOT
BRANCH   4   7
ATOM      7  C   UNL     1      -1.926  -2.202   6.380  0.00  0.00    +0.165 C 
ATOM      8  C   UNL     1      -1.556  -0.737   6.306  0.00  0.00    +0.012 C 
ATOM      9  C   UNL     1      -0.669  -0.524   7.304  0.00  0.00    -0.002 A 
ATOM     10  C   UNL     1       0.054   0.672   7.753  0.00  0.00    +0.029 A 
ATOM     11  C   UNL     1       0.895   0.573   8.809  0.00  0.00    +0.042 A 
ATOM     12  C   UNL     1       1.093  -0.642   9.482  0.00  0.00    +0.022 A 
ATOM     13  C   UNL     1       0.465  -1.783   9.127  0.00  0.00    +0.027 A 
ATOM     14  C   UNL     1      -0.442  -1.793   8.032  0.00  0.00    +0.043 A 
ATOM     15  N   UNL     1      -1.162  -2.755   7.504  0.00  0.00    -0.373 N 
ATOM     16 CL   UNL     1       1.753   1.985   9.342  0.00  0.00    -0.084 Cl
ATOM     17  H   UNL     1      -1.186  -3.677   7.805  0.00  0.00    +0.160 HD
ENDBRANCH   4   7
BRANCH   1  18
ATOM     18  C   UNL     1      -1.226  -1.035   1.847  0.00  0.00    +0.094 C 
BRANCH  18  19
ATOM     19  C   UNL     1       0.155  -0.742   1.259  0.00  0.00    +0.115 C 
BRANCH  19  21
ATOM     20  C   UNL     1      -0.033   1.460   0.012  0.00  0.00    +0.132 C 
ATOM     21  N   UNL     1       0.004  -0.004   0.002  0.00  0.00    -0.300 N 
ATOM     22  C   UNL     1      -0.102  -0.673  -1.163  0.00  0.00    +0.246 C 
ATOM     23  O   UNL     1      -0.178  -1.886  -1.163  0.00  0.00    -0.270 OA
BRANCH  22  24
ATOM     24  C   UNL     1      -0.124   0.068  -2.440  0.00  0.00    +0.040 A 
ATOM     25  C   UNL     1       0.640   1.228  -2.590  0.00  0.00    +0.017 A 
ATOM     26  C   UNL     1       0.618   1.916  -3.783  0.00  0.00    +0.049 A 
ATOM     27  C   UNL     1      -0.164   1.460  -4.837  0.00  0.00    +0.155 A 
ATOM     28  C   UNL     1      -0.927   0.305  -4.692  0.00  0.00    +0.165 A 
ATOM     29  C   UNL     1      -0.905  -0.393  -3.503  0.00  0.00    +0.055 A 
ATOM     30  F   UNL     1      -1.686  -0.135  -5.720  0.00  0.00    -0.202 F 
BRANCH  27  31
ATOM     31  O   UNL     1      -0.183   2.142  -6.011  0.00  0.00    -0.492 OA
ATOM     32  C   UNL     1       0.624   3.318  -6.090  0.00  0.00    +0.277 C 
ENDBRANCH  27  31
ENDBRANCH  22  24
ENDBRANCH  19  21
ENDBRANCH  18  19
ENDBRANCH   1  18
TORSDOF 6
