REMARK  Name = ZINC40848448
REMARK  6 active torsions:
REMARK  status: ('A' for Active; 'I' for Inactive)
REMARK    1  A    between atoms: C_1  and  C_2
REMARK    2  A    between atoms: C_2  and  C_3
REMARK    3  A    between atoms: C_2  and  C_4
REMARK    4  A    between atoms: N_17  and  C_18
REMARK    5  A    between atoms: C_18  and  C_19
REMARK    6  A    between atoms: N_21  and  C_22
REMARK                            x       y       z     vdW  Elec       q    Type
REMARK                         _______ _______ _______ _____ _____    ______ ____
ROOT
ATOM      1  C   UNL     1      -1.412  -0.526   0.013  0.00  0.00    +0.141 A 
ATOM      2  N   UNL     1      -2.286  -0.375   0.978  0.00  0.00    -0.133 NA
ATOM      3  N   UNL     1      -3.397  -0.944   0.661  0.00  0.00    -0.126 NA
ATOM      4  C   UNL     1      -3.284  -1.490  -0.530  0.00  0.00    +0.202 A 
ATOM      5  N   UNL     1      -2.009  -1.227  -0.970  0.00  0.00    -0.275 N 
ATOM      6  C   UNL     1      -1.615  -1.687  -2.215  0.00  0.00    +0.075 A 
ATOM      7  C   UNL     1      -0.331  -1.440  -2.685  0.00  0.00    +0.028 A 
ATOM      8  C   UNL     1       0.051  -1.902  -3.926  0.00  0.00    +0.002 A 
ATOM      9  C   UNL     1      -0.839  -2.618  -4.714  0.00  0.00    +0.002 A 
ATOM     10  C   UNL     1      -2.114  -2.874  -4.268  0.00  0.00    +0.030 A 
ATOM     11  C   UNL     1      -2.521  -2.411  -3.009  0.00  0.00    +0.090 A 
ATOM     12  N   UNL     1      -3.780  -2.666  -2.570  0.00  0.00    -0.227 NA
ATOM     13  C   UNL     1      -4.190  -2.253  -1.392  0.00  0.00    +0.165 A 
ATOM     14  N   UNL     1      -5.478  -2.525  -0.973  0.00  0.00    -0.318 N 
ATOM     15  H   UNL     1      -5.783  -2.212  -0.107  0.00  0.00    +0.148 HD
ENDROOT
BRANCH   1  17
ATOM     16  C   UNL     1       0.038   1.357  -0.696  0.00  0.00    +0.015 C 
ATOM     17  C   UNL     1       0.002  -0.004   0.002  0.00  0.00    +0.051 C 
ATOM     18  C   UNL     1       0.501   0.147   1.440  0.00  0.00    +0.015 C 
ENDBRANCH   1  17
BRANCH  14  19
ATOM     19  C   UNL     1      -6.383  -3.288  -1.836  0.00  0.00    +0.199 C 
BRANCH  19  20
ATOM     20  C   UNL     1      -7.716  -3.447  -1.151  0.00  0.00    +0.231 C 
ATOM     21  O   UNL     1      -7.893  -2.969  -0.050  0.00  0.00    -0.274 OA
ATOM     22  N   UNL     1      -8.712  -4.119  -1.761  0.00  0.00    -0.307 N 
ATOM     23  H   UNL     1      -8.571  -4.501  -2.642  0.00  0.00    +0.149 HD
BRANCH  22  24
ATOM     24  C   UNL     1     -10.008  -4.273  -1.095  0.00  0.00    +0.104 C 
ATOM     25  C   UNL     1     -10.752  -5.506  -1.650  0.00  0.00    +0.032 C 
ATOM     26  C   UNL     1     -11.607  -4.895  -2.780  0.00  0.00    +0.037 C 
ATOM     27  C   UNL     1     -11.823  -3.452  -2.379  0.00  0.00    -0.042 A 
ATOM     28  C   UNL     1     -10.903  -3.093  -1.408  0.00  0.00    -0.024 A 
ATOM     29  C   UNL     1     -10.912  -1.810  -0.887  0.00  0.00    +0.006 A 
ATOM     30  C   UNL     1     -11.837  -0.885  -1.332  0.00  0.00    +0.000 A 
ATOM     31  C   UNL     1     -12.756  -1.241  -2.301  0.00  0.00    +0.000 A 
ATOM     32  C   UNL     1     -12.750  -2.525  -2.825  0.00  0.00    +0.004 A 
ENDBRANCH  22  24
ENDBRANCH  19  20
ENDBRANCH  14  19
TORSDOF 4
