REMARK  Name = ZINC00863646
REMARK  6 active torsions:
REMARK  status: ('A' for Active; 'I' for Inactive)
REMARK    1  A    between atoms: C_1  and  C_2
REMARK    2  A    between atoms: C_3  and  C_14
REMARK    3  A    between atoms: N_5  and  C_7
REMARK    4  A    between atoms: N_15  and  N_16
REMARK    5  A    between atoms: C_17  and  C_19
REMARK    6  A    between atoms: C_28  and  O_29
REMARK                            x       y       z     vdW  Elec       q    Type
REMARK                         _______ _______ _______ _____ _____    ______ ____
ROOT
ATOM      1  N   UNL     1      -3.754   3.417   0.058  0.00  0.00    -0.203 N 
ATOM      2  C   UNL     1      -3.721   2.070   0.050  0.00  0.00    +0.267 C 
ATOM      3  O   UNL     1      -4.758   1.435   0.057  0.00  0.00    -0.268 OA
ATOM      4  H   UNL     1      -2.926   3.923   0.052  0.00  0.00    +0.178 HD
ENDROOT
BRANCH   2   5
ATOM      5  C   UNL     1      -2.425   1.364   0.034  0.00  0.00    +0.080 A 
ATOM      6  C   UNL     1      -1.245   2.091   0.031  0.00  0.00    +0.025 A 
ATOM      7  C   UNL     1      -0.017   1.415   0.010  0.00  0.00    -0.017 A 
ATOM      8  C   UNL     1       1.200   2.121   0.002  0.00  0.00    +0.008 A 
ATOM      9  C   UNL     1       2.376   1.436  -0.013  0.00  0.00    +0.001 A 
ATOM     10  C   UNL     1       2.394   0.042  -0.021  0.00  0.00    +0.001 A 
ATOM     11  C   UNL     1       1.238  -0.674  -0.013  0.00  0.00    +0.008 A 
ATOM     12  C   UNL     1       0.002  -0.004   0.002  0.00  0.00    -0.014 A 
ATOM     13  C   UNL     1      -1.208  -0.718   0.010  0.00  0.00    +0.054 A 
ATOM     14  C   UNL     1      -2.395  -0.047   0.026  0.00  0.00    +0.130 A 
BRANCH  14  15
ATOM     15  O   UNL     1      -3.560  -0.743   0.033  0.00  0.00    -0.506 OA
ATOM     16  H   UNL     1      -3.889  -0.950   0.918  0.00  0.00    +0.292 HD
ENDBRANCH  14  15
ENDBRANCH   2   5
BRANCH   1  18
ATOM     17  C   UNL     1      -5.017   5.385   0.081  0.00  0.00    +0.143 C 
ATOM     18  N   UNL     1      -4.984   4.087   0.073  0.00  0.00    -0.187 NA
BRANCH  17  21
ATOM     19  C   UNL     1      -5.414   8.531   0.115  0.00  0.00    +0.068 C 
ATOM     20  C   UNL     1      -6.504   7.489   0.113  0.00  0.00    +0.070 A 
ATOM     21  C   UNL     1      -6.312   6.090   0.097  0.00  0.00    +0.054 A 
ATOM     22  C   UNL     1      -7.562   5.505   0.107  0.00  0.00    +0.142 A 
ATOM     23  N   UNL     1      -8.473   6.503   0.122  0.00  0.00    -0.221 N 
ATOM     24  N   UNL     1      -7.788   7.724   0.121  0.00  0.00    -0.170 NA
ATOM     25 CL   UNL     1      -7.902   3.803   0.102  0.00  0.00    -0.061 Cl
BRANCH  23  26
ATOM     26  C   UNL     1      -9.865   6.343   0.135  0.00  0.00    +0.067 A 
ATOM     27  C   UNL     1     -10.451   5.293  -0.558  0.00  0.00    +0.028 A 
ATOM     28  C   UNL     1     -11.823   5.135  -0.538  0.00  0.00    +0.002 A 
ATOM     29  C   UNL     1     -12.613   6.028   0.162  0.00  0.00    +0.000 A 
ATOM     30  C   UNL     1     -12.033   7.078   0.849  0.00  0.00    +0.002 A 
ATOM     31  C   UNL     1     -10.661   7.239   0.838  0.00  0.00    +0.028 A 
ENDBRANCH  23  26
ENDBRANCH  17  21
ENDBRANCH   1  18
TORSDOF 5
