REMARK  Name = ZINC40173567
REMARK  5 active torsions:
REMARK  status: ('A' for Active; 'I' for Inactive)
REMARK    1  A    between atoms: C_6  and  C_7
REMARK    2  A    between atoms: C_8  and  C_23
REMARK    3  A    between atoms: C_9  and  N_22
REMARK    4  A    between atoms: C_11  and  S_12
REMARK    5  A    between atoms: S_12  and  C_15
REMARK                            x       y       z     vdW  Elec       q    Type
REMARK                         _______ _______ _______ _____ _____    ______ ____
ROOT
ATOM      1  C   UNL     1      -1.270  -0.765   0.011  0.00  0.00    +0.034 A 
ATOM      2  C   UNL     1      -2.172  -0.699   1.143  0.00  0.00    +0.089 A 
ATOM      3  C   UNL     1      -3.341  -1.448   1.061  0.00  0.00    +0.083 A 
ATOM      4  S   UNL     1      -3.196  -2.220  -0.539  0.00  0.00    -0.053 S 
ATOM      5  C   UNL     1      -1.628  -1.540  -1.044  0.00  0.00    +0.141 A 
ENDROOT
BRANCH   1  11
ATOM      6  C   UNL     1      -0.017   1.390   0.010  0.00  0.00    +0.010 A 
ATOM      7  C   UNL     1       1.170   2.094   0.002  0.00  0.00    +0.020 A 
ATOM      8  C   UNL     1       2.378   1.418  -0.013  0.00  0.00    +0.041 A 
ATOM      9  C   UNL     1       2.403   0.034  -0.021  0.00  0.00    +0.020 A 
ATOM     10  C   UNL     1       1.222  -0.680  -0.014  0.00  0.00    +0.010 A 
ATOM     11  C   UNL     1       0.002  -0.004   0.002  0.00  0.00    -0.014 A 
ATOM     12 CL   UNL     1       3.868   2.309  -0.022  0.00  0.00    -0.084 Cl
ENDBRANCH   1  11
BRANCH   5  13
ATOM     13  S   UNL     1      -0.752  -1.811  -2.549  0.00  0.00    +0.032 S 
ATOM     14  O   UNL     1      -1.717  -2.199  -3.517  0.00  0.00    -0.164 OA
ATOM     15  O   UNL     1       0.100  -0.688  -2.731  0.00  0.00    -0.164 OA
BRANCH  13  16
ATOM     16  C   UNL     1       0.298  -3.204  -2.297  0.00  0.00    +0.094 A 
ATOM     17  C   UNL     1       1.581  -3.024  -1.816  0.00  0.00    +0.029 A 
ATOM     18  C   UNL     1       2.405  -4.116  -1.618  0.00  0.00    +0.022 A 
ATOM     19  C   UNL     1       1.944  -5.390  -1.903  0.00  0.00    +0.041 A 
ATOM     20  C   UNL     1       0.660  -5.569  -2.385  0.00  0.00    +0.022 A 
ATOM     21  C   UNL     1      -0.165  -4.477  -2.577  0.00  0.00    +0.029 A 
ATOM     22 CL   UNL     1       2.978  -6.762  -1.655  0.00  0.00    -0.084 Cl
ENDBRANCH  13  16
ENDBRANCH   5  13
BRANCH   3  23
ATOM     23  N   UNL     1      -4.361  -1.564   1.988  0.00  0.00    -0.352 N 
ATOM     24  H   UNL     1      -4.310  -1.081   2.828  0.00  0.00    +0.143 HD
ATOM     25  H   UNL     1      -5.127  -2.127   1.798  0.00  0.00    +0.143 HD
ENDBRANCH   3  23
BRANCH   2  26
ATOM     26  C   UNL     1      -1.872   0.099   2.294  0.00  0.00    +0.102 C 
ATOM     27  N   UNL     1      -1.635   0.732   3.207  0.00  0.00    -0.191 NA
ENDBRANCH   2  26
TORSDOF 5
