REMARK  Name = ZINC37512980
REMARK  12 active torsions:
REMARK  status: ('A' for Active; 'I' for Inactive)
REMARK    1  A    between atoms: C_1  and  C_2
REMARK    2  A    between atoms: C_5  and  O_10
REMARK    3  A    between atoms: C_6  and  O_8
REMARK    4  A    between atoms: O_8  and  C_9
REMARK    5  A    between atoms: O_10  and  C_11
REMARK    6  A    between atoms: C_11  and  C_12
REMARK    7  A    between atoms: C_12  and  C_14
REMARK    8  A    between atoms: N_20  and  C_25
REMARK    9  A    between atoms: C_25  and  C_26
REMARK   10  A    between atoms: N_28  and  C_29
REMARK   11  A    between atoms: C_29  and  C_30
REMARK   12  A    between atoms: C_30  and  N_31
REMARK                            x       y       z     vdW  Elec       q    Type
REMARK                         _______ _______ _______ _____ _____    ______ ____
ROOT
ATOM      1  C   UNL     1       0.086  -7.152  -2.295  0.00  0.00    +0.023 A 
ATOM      2  C   UNL     1       0.078  -6.609  -3.586  0.00  0.00    +0.015 A 
ATOM      3  C   UNL     1       0.084  -7.439  -4.685  0.00  0.00    +0.048 A 
ATOM      4  C   UNL     1       0.098  -8.816  -4.516  0.00  0.00    +0.143 A 
ATOM      5  C   UNL     1       0.106  -9.367  -3.232  0.00  0.00    +0.079 A 
ATOM      6  C   UNL     1       0.105  -8.543  -2.125  0.00  0.00    +0.038 A 
ATOM      7  N   UNL     1       0.119 -10.761  -3.084  0.00  0.00    -0.257 N 
ATOM      8  C   UNL     1       0.441 -11.529  -4.148  0.00  0.00    +0.258 C 
ATOM      9  O   UNL     1       0.430 -12.738  -4.053  0.00  0.00    -0.271 OA
ATOM     10  C   UNL     1       0.812 -10.876  -5.455  0.00  0.00    +0.325 C 
ATOM     11  O   UNL     1       0.104  -9.642  -5.595  0.00  0.00    -0.481 OA
ENDROOT
BRANCH   1  12
ATOM     12  C   UNL     1       0.081  -6.267  -1.123  0.00  0.00    +0.200 C 
ATOM     13  O   UNL     1       0.093  -6.739  -0.006  0.00  0.00    -0.288 OA
BRANCH  12  14
ATOM     14  C   UNL     1       0.060  -4.772  -1.309  0.00  0.00    +0.308 C 
BRANCH  14  15
ATOM     15  O   UNL     1       0.058  -4.133  -0.030  0.00  0.00    -0.480 OA
BRANCH  15  20
ATOM     16  C   UNL     1      -0.018   1.503   0.010  0.00  0.00    +0.044 C 
ATOM     17  C   UNL     1       0.002  -0.004   0.002  0.00  0.00    -0.047 A 
ATOM     18  C   UNL     1       0.006  -0.687  -1.200  0.00  0.00    +0.007 A 
ATOM     19  C   UNL     1       0.025  -2.069  -1.213  0.00  0.00    +0.050 A 
ATOM     20  C   UNL     1       0.040  -2.773  -0.019  0.00  0.00    +0.163 A 
ATOM     21  C   UNL     1       0.037  -2.086   1.190  0.00  0.00    +0.162 A 
ATOM     22  C   UNL     1       0.023  -0.700   1.196  0.00  0.00    +0.052 A 
BRANCH  21  23
ATOM     23  O   UNL     1       0.052  -2.772   2.364  0.00  0.00    -0.491 OA
ATOM     24  C   UNL     1       0.048  -2.000   3.567  0.00  0.00    +0.277 C 
ENDBRANCH  21  23
ENDBRANCH  15  20
ENDBRANCH  14  15
ENDBRANCH  12  14
ENDBRANCH   1  12
BRANCH   7  25
ATOM     25  C   UNL     1      -0.210 -11.376  -1.796  0.00  0.00    +0.209 C 
BRANCH  25  26
ATOM     26  C   UNL     1      -1.692 -11.640  -1.729  0.00  0.00    +0.231 C 
ATOM     27  O   UNL     1      -2.404 -11.344  -2.665  0.00  0.00    -0.274 OA
ATOM     28  N   UNL     1      -2.227 -12.205  -0.628  0.00  0.00    -0.316 N 
ATOM     29  H   UNL     1      -1.658 -12.443   0.120  0.00  0.00    +0.149 HD
BRANCH  28  30
ATOM     30  C   UNL     1      -3.668 -12.462  -0.564  0.00  0.00    +0.086 C 
BRANCH  30  31
ATOM     31  C   UNL     1      -4.012 -13.104   0.782  0.00  0.00    -0.060 C 
BRANCH  31  32
ATOM     32  N   UNL     1      -5.457 -13.361   0.847  0.00  0.00    +0.381 N 
ATOM     33  C   UNL     1      -6.181 -12.084   0.820  0.00  0.00    -0.079 C 
ATOM     34  C   UNL     1      -7.688 -12.349   0.806  0.00  0.00    -0.019 C 
ATOM     35  C   UNL     1      -8.075 -13.131   2.064  0.00  0.00    -0.004 C 
ATOM     36  C   UNL     1      -7.259 -14.426   2.120  0.00  0.00    -0.019 C 
ATOM     37  C   UNL     1      -5.768 -14.084   2.086  0.00  0.00    -0.079 C 
ATOM     38  H   UNL     1      -5.734 -13.919   0.054  0.00  0.00    -0.082 HD
ENDBRANCH  31  32
ENDBRANCH  30  31
ENDBRANCH  28  30
ENDBRANCH  25  26
ENDBRANCH   7  25
TORSDOF 10
