REMARK  Name = ZINC44923199
REMARK  6 active torsions:
REMARK  status: ('A' for Active; 'I' for Inactive)
REMARK    1  A    between atoms: C_1  and  C_2
REMARK    2  A    between atoms: C_2  and  C_4
REMARK    3  A    between atoms: C_2  and  N_9
REMARK    4  A    between atoms: N_9  and  C_10
REMARK    5  A    between atoms: C_10  and  C_12
REMARK    6  A    between atoms: C_10  and  C_13
REMARK                            x       y       z     vdW  Elec       q    Type
REMARK                         _______ _______ _______ _____ _____    ______ ____
ROOT
ATOM      1  C   UNL     1      -1.968  -0.335  -1.325  0.00  0.00    -0.068 C 
ATOM      2  C   UNL     1      -2.097   1.179  -1.512  0.00  0.00    -0.013 C 
ENDROOT
BRANCH   1   3
ATOM      3  C   UNL     1      -3.354  -0.978  -1.409  0.00  0.00    -0.041 C 
ATOM      4  C   UNL     1      -4.250  -0.403  -0.310  0.00  0.00    +0.009 C 
ATOM      5  C   UNL     1      -5.636  -1.046  -0.394  0.00  0.00    -0.010 C 
ATOM      6  C   UNL     1      -6.254  -0.751  -1.762  0.00  0.00    +0.007 C 
ATOM      7  C   UNL     1      -5.357  -1.327  -2.861  0.00  0.00    -0.010 C 
ATOM      8  C   UNL     1      -3.972  -0.683  -2.777  0.00  0.00    +0.009 C 
ATOM      9  C   UNL     1      -5.229  -2.840  -2.675  0.00  0.00    +0.007 C 
ATOM     10  C   UNL     1      -4.612  -3.135  -1.306  0.00  0.00    -0.010 C 
ATOM     11  C   UNL     1      -5.508  -2.560  -0.208  0.00  0.00    +0.007 C 
ATOM     12  C   UNL     1      -3.226  -2.491  -1.223  0.00  0.00    +0.009 C 
ENDBRANCH   1   3
BRANCH   1  13
ATOM     13  N   UNL     1      -1.376  -0.618  -0.011  0.00  0.00    +0.388 N 
ATOM     14  H   UNL     1      -1.377  -1.613   0.151  0.00  0.00    -0.084 HD
ATOM     15  H   UNL     1      -1.915  -0.159   0.707  0.00  0.00    -0.084 HD
BRANCH  13  17
ATOM     16  C   UNL     1       0.575  -0.282   1.431  0.00  0.00    -0.006 C 
ATOM     17  C   UNL     1       0.006  -0.119   0.020  0.00  0.00    -0.001 C 
BRANCH  17  18
ATOM     18  C   UNL     1       0.846  -0.903  -0.955  0.00  0.00    +0.163 A 
ATOM     19  N   UNL     1       0.845  -2.214  -1.116  0.00  0.00    -0.113 NA
ATOM     20  N   UNL     1       1.697  -2.494  -2.042  0.00  0.00    -0.021 NA
ATOM     21  N   UNL     1       2.229  -1.400  -2.464  0.00  0.00    -0.021 NA
ATOM     22  N   UNL     1       1.719  -0.410  -1.815  0.00  0.00    -0.113 NA
ENDBRANCH  17  18
ENDBRANCH  13  17
ENDBRANCH   1  13
TORSDOF 4
