REMARK  Name = ZINC33341682
REMARK  12 active torsions:
REMARK  status: ('A' for Active; 'I' for Inactive)
REMARK    1  A    between atoms: C_1  and  C_2
REMARK    2  A    between atoms: C_4  and  C_23
REMARK    3  A    between atoms: C_7  and  O_8
REMARK    4  A    between atoms: O_8  and  C_9
REMARK    5  A    between atoms: C_9  and  C_10
REMARK    6  A    between atoms: N_12  and  N_13
REMARK    7  A    between atoms: C_14  and  C_15
REMARK    8  A    between atoms: C_18  and  O_21
REMARK    9  A    between atoms: O_21  and  C_22
REMARK   10  A    between atoms: C_23  and  C_24
REMARK   11  A    between atoms: C_23  and  C_25
REMARK   12  A    between atoms: C_23  and  C_26
REMARK                            x       y       z     vdW  Elec       q    Type
REMARK                         _______ _______ _______ _____ _____    ______ ____
ROOT
ATOM      1  C   UNL     1      -1.157  -0.567   0.941  0.00  0.00    +0.270 C 
ATOM      2  O   UNL     1      -2.216  -0.012   0.739  0.00  0.00    -0.270 OA
ATOM      3  N   UNL     1      -0.000   0.071   0.671  0.00  0.00    -0.204 N 
ATOM      4  H   UNL     1       0.961  -0.431   0.854  0.00  0.00    +0.177 HD
ENDROOT
BRANCH   3   5
ATOM      5  N   UNL     1      -0.022   1.375   0.158  0.00  0.00    -0.188 NA
ATOM      6  C   UNL     1       1.083   1.945  -0.212  0.00  0.00    +0.138 C 
BRANCH   6   7
ATOM      7  C   UNL     1       2.260   1.124  -0.549  0.00  0.00    -0.005 A 
ATOM      8  C   UNL     1       3.517   1.720  -0.678  0.00  0.00    +0.013 A 
ATOM      9  C   UNL     1       4.615   0.947  -0.988  0.00  0.00    +0.046 A 
ATOM     10  C   UNL     1       4.472  -0.421  -1.182  0.00  0.00    +0.120 A 
ATOM     11  C   UNL     1       3.223  -1.017  -1.060  0.00  0.00    +0.046 A 
ATOM     12  C   UNL     1       2.120  -0.253  -0.746  0.00  0.00    +0.013 A 
BRANCH  10  13
ATOM     13  O   UNL     1       5.556  -1.178  -1.492  0.00  0.00    -0.495 OA
ATOM     14  C   UNL     1       6.810  -0.501  -1.602  0.00  0.00    +0.277 C 
ENDBRANCH  10  13
ENDBRANCH   6   7
ENDBRANCH   3   5
BRANCH   1  15
ATOM     15  C   UNL     1      -1.133  -1.969   1.493  0.00  0.00    +0.326 C 
BRANCH  15  16
ATOM     16  O   UNL     1      -2.472  -2.425   1.693  0.00  0.00    -0.482 OA
BRANCH  16  23
ATOM     17  C   UNL     1      -5.112  -3.341   2.108  0.00  0.00    +0.047 C 
ATOM     18  C   UNL     1      -3.901  -4.184   2.415  0.00  0.00    -0.008 A 
ATOM     19  C   UNL     1      -4.058  -5.463   2.915  0.00  0.00    +0.011 A 
ATOM     20  C   UNL     1      -2.947  -6.235   3.202  0.00  0.00    -0.042 A 
ATOM     21  C   UNL     1      -1.678  -5.732   2.984  0.00  0.00    +0.008 A 
ATOM     22  C   UNL     1      -1.516  -4.457   2.479  0.00  0.00    +0.046 A 
ATOM     23  C   UNL     1      -2.629  -3.680   2.190  0.00  0.00    +0.124 A 
BRANCH  20  24
ATOM     24  C   UNL     1      -3.121  -7.627   3.753  0.00  0.00    -0.013 C 
ATOM     25  C   UNL     1      -1.747  -8.260   3.981  0.00  0.00    +0.015 C 
ATOM     26  C   UNL     1      -3.878  -7.558   5.081  0.00  0.00    +0.015 C 
ATOM     27  C   UNL     1      -3.915  -8.475   2.757  0.00  0.00    +0.015 C 
ENDBRANCH  20  24
ENDBRANCH  16  23
ENDBRANCH  15  16
ENDBRANCH   1  15
TORSDOF 7
