REMARK  Name = ZINC67583500
REMARK  8 active torsions:
REMARK  status: ('A' for Active; 'I' for Inactive)
REMARK    1  A    between atoms: C_1  and  C_2
REMARK    2  A    between atoms: C_2  and  C_3
REMARK    3  A    between atoms: C_3  and  O_4
REMARK    4  A    between atoms: O_4  and  C_5
REMARK    5  A    between atoms: C_8  and  N_12
REMARK    6  A    between atoms: C_9  and  C_11
REMARK    7  A    between atoms: C_17  and  C_29
REMARK    8  A    between atoms: C_20  and  C_23
REMARK                            x       y       z     vdW  Elec       q    Type
REMARK                         _______ _______ _______ _____ _____    ______ ____
ROOT
ATOM      1  N   UNL     1       3.185  -4.380  -5.573  0.00  0.00    -0.269 N 
ATOM      2  C   UNL     1       3.655  -3.638  -6.595  0.00  0.00    +0.307 C 
ATOM      3  O   UNL     1       3.621  -2.424  -6.530  0.00  0.00    -0.252 OA
ATOM      4  N   UNL     1       4.162  -4.240  -7.689  0.00  0.00    -0.280 N 
ATOM      5  C   UNL     1       4.118  -5.704  -7.836  0.00  0.00    +0.140 C 
ATOM      6  C   UNL     1       3.526  -6.034  -9.211  0.00  0.00    +0.133 C 
ATOM      7  O   UNL     1       4.245  -5.316 -10.217  0.00  0.00    -0.366 OA
ATOM      8  C   UNL     1       4.151  -3.895 -10.101  0.00  0.00    +0.166 C 
ATOM      9  C   UNL     1       4.769  -3.454  -8.774  0.00  0.00    +0.145 C 
ATOM     10  C   UNL     1       2.052  -5.627  -9.244  0.00  0.00    +0.039 C 
ATOM     11  H   UNL     1       3.245  -5.348  -5.608  0.00  0.00    +0.156 HD
ENDROOT
BRANCH   1  15
ATOM     12  C   UNL     1       1.470  -2.518  -2.259  0.00  0.00    +0.121 A 
ATOM     13  C   UNL     1       2.362  -1.821  -3.061  0.00  0.00    +0.047 A 
ATOM     14  C   UNL     1       2.930  -2.437  -4.159  0.00  0.00    +0.027 A 
ATOM     15  C   UNL     1       2.609  -3.755  -4.459  0.00  0.00    +0.038 A 
ATOM     16  C   UNL     1       1.717  -4.451  -3.655  0.00  0.00    -0.026 A 
ATOM     17  C   UNL     1       1.153  -3.835  -2.555  0.00  0.00    +0.050 A 
ATOM     18  C   UNL     1       1.368  -5.881  -3.980  0.00  0.00    +0.046 C 
BRANCH  12  19
ATOM     19  O   UNL     1       0.911  -1.911  -1.178  0.00  0.00    -0.492 OA
BRANCH  19  20
ATOM     20  C   UNL     1       1.283  -0.553  -0.933  0.00  0.00    +0.229 C 
BRANCH  20  22
ATOM     21  C   UNL     1       0.957   1.410   0.578  0.00  0.00    +0.007 C 
ATOM     22  C   UNL     1       0.559  -0.044   0.315  0.00  0.00    +0.038 C 
ENDBRANCH  20  22
ENDBRANCH  19  20
ENDBRANCH  12  19
ENDBRANCH   1  15
BRANCH   8  23
ATOM     23  C   UNL     1       4.890  -3.246 -11.243  0.00  0.00    -0.017 A 
ATOM     24  C   UNL     1       6.038  -3.830 -11.743  0.00  0.00    +0.006 A 
ATOM     25  C   UNL     1       6.716  -3.236 -12.791  0.00  0.00    +0.000 A 
ATOM     26  C   UNL     1       6.245  -2.058 -13.339  0.00  0.00    +0.000 A 
ATOM     27  C   UNL     1       5.095  -1.474 -12.840  0.00  0.00    +0.000 A 
ATOM     28  C   UNL     1       4.415  -2.071 -11.795  0.00  0.00    +0.006 A 
ENDBRANCH   8  23
TORSDOF 5
