REMARK  Name = ZINC66939398
REMARK  12 active torsions:
REMARK  status: ('A' for Active; 'I' for Inactive)
REMARK    1  A    between atoms: C_1  and  C_2
REMARK    2  A    between atoms: C_2  and  C_3
REMARK    3  A    between atoms: C_2  and  C_4
REMARK    4  A    between atoms: C_2  and  O_5
REMARK    5  A    between atoms: O_5  and  C_6
REMARK    6  A    between atoms: N_8  and  C_9
REMARK    7  A    between atoms: C_11  and  N_17
REMARK    8  A    between atoms: C_14  and  O_15
REMARK    9  A    between atoms: O_15  and  C_16
REMARK   10  A    between atoms: N_17  and  C_18
REMARK   11  A    between atoms: C_18  and  C_20
REMARK   12  A    between atoms: C_18  and  C_27
REMARK                            x       y       z     vdW  Elec       q    Type
REMARK                         _______ _______ _______ _____ _____    ______ ____
ROOT
ATOM      1  C   UNL     1       3.946  -0.044  -2.685  0.00  0.00    +0.080 A 
ATOM      2  C   UNL     1       4.609   0.749  -1.760  0.00  0.00    +0.050 A 
ATOM      3  C   UNL     1       5.900   1.184  -2.021  0.00  0.00    +0.030 A 
ATOM      4  C   UNL     1       6.527   0.825  -3.208  0.00  0.00    +0.026 A 
ATOM      5  C   UNL     1       5.867   0.036  -4.130  0.00  0.00    +0.049 A 
ATOM      6  C   UNL     1       4.580  -0.406  -3.871  0.00  0.00    +0.141 A 
ENDROOT
BRANCH   1   9
ATOM      7  C   UNL     1       1.784   0.306  -1.748  0.00  0.00    +0.405 C 
ATOM      8  O   UNL     1       2.167   1.367  -1.295  0.00  0.00    -0.226 OA
ATOM      9  N   UNL     1       2.641  -0.485  -2.424  0.00  0.00    -0.248 N 
ATOM     10  H   UNL     1       2.354  -1.360  -2.730  0.00  0.00    +0.158 HD
BRANCH   7  11
ATOM     11  O   UNL     1       0.506  -0.078  -1.576  0.00  0.00    -0.444 OA
BRANCH  11  13
ATOM     12  C   UNL     1      -0.416   2.156  -1.573  0.00  0.00    +0.055 C 
ATOM     13  C   UNL     1      -0.346   0.810  -0.849  0.00  0.00    +0.107 C 
ATOM     14  C   UNL     1       0.214   1.017   0.559  0.00  0.00    +0.055 C 
ATOM     15  C   UNL     1      -1.750   0.208  -0.756  0.00  0.00    +0.055 C 
ENDBRANCH  11  13
ENDBRANCH   7  11
ENDBRANCH   1   9
BRANCH   6  16
ATOM     16  O   UNL     1       3.934  -1.188  -4.777  0.00  0.00    -0.493 OA
ATOM     17  C   UNL     1       4.645  -1.521  -5.971  0.00  0.00    +0.277 C 
ENDBRANCH   6  16
BRANCH   3  18
ATOM     18  N   UNL     1       6.571   1.984  -1.089  0.00  0.00    -0.329 N 
ATOM     19  H   UNL     1       6.133   2.234  -0.261  0.00  0.00    +0.147 HD
BRANCH  18  20
ATOM     20  C   UNL     1       7.934   2.443  -1.365  0.00  0.00    +0.187 C 
BRANCH  20  21
ATOM     21  C   UNL     1       8.203   3.710  -0.595  0.00  0.00    -0.018 A 
ATOM     22  C   UNL     1       7.743   3.840   0.703  0.00  0.00    +0.009 A 
ATOM     23  C   UNL     1       7.989   5.001   1.411  0.00  0.00    +0.038 A 
ATOM     24  C   UNL     1       8.697   6.035   0.820  0.00  0.00    +0.123 A 
ATOM     25  C   UNL     1       9.157   5.903  -0.479  0.00  0.00    +0.038 A 
ATOM     26  C   UNL     1       8.914   4.739  -1.183  0.00  0.00    +0.009 A 
ATOM     27  F   UNL     1       8.937   7.170   1.511  0.00  0.00    -0.205 F 
ENDBRANCH  20  21
BRANCH  20  28
ATOM     28  C   UNL     1       8.917   1.381  -0.944  0.00  0.00    +0.235 C 
ATOM     29  O   UNL     1       8.518   0.343  -0.461  0.00  0.00    -0.274 OA
ATOM     30  N   UNL     1      10.239   1.585  -1.104  0.00  0.00    -0.328 N 
ATOM     31  H   UNL     1      10.559   2.416  -1.490  0.00  0.00    +0.145 HD
ATOM     32  H   UNL     1      10.872   0.902  -0.832  0.00  0.00    +0.145 HD
ENDBRANCH  20  28
ENDBRANCH  18  20
ENDBRANCH   3  18
TORSDOF 8
