REMARK  Name = ZINC21037134
REMARK  4 active torsions:
REMARK  status: ('A' for Active; 'I' for Inactive)
REMARK    1  A    between atoms: C_4  and  C_18
REMARK    2  A    between atoms: C_5  and  C_7
REMARK    3  A    between atoms: C_7  and  O_8
REMARK    4  A    between atoms: O_8  and  C_9
REMARK                            x       y       z     vdW  Elec       q    Type
REMARK                         _______ _______ _______ _____ _____    ______ ____
ROOT
ATOM      1  C   UNL     1       0.439  -4.041  -0.025  0.00  0.00    +0.000 A 
ATOM      2  C   UNL     1      -0.642  -4.905  -0.019  0.00  0.00    +0.001 A 
ATOM      3  C   UNL     1      -1.928  -4.406  -0.004  0.00  0.00    +0.011 A 
ATOM      4  C   UNL     1      -2.138  -3.027   0.006  0.00  0.00    +0.018 A 
ATOM      5  C   UNL     1      -1.044  -2.161   0.000  0.00  0.00    -0.000 A 
ATOM      6  C   UNL     1       0.237  -2.673  -0.020  0.00  0.00    +0.007 A 
ENDROOT
BRANCH   4   7
ATOM      7  C   UNL     1      -3.515  -2.484   0.022  0.00  0.00    +0.095 C 
ATOM      8  N   UNL     1      -3.708  -1.196   0.031  0.00  0.00    -0.387 N 
ATOM      9  N   UNL     1      -4.594  -3.342   0.028  0.00  0.00    -0.345 N 
ATOM     10  H   UNL     1      -4.731  -0.793   0.043  0.00  0.00    +0.157 HD
ATOM     11  H   UNL     1      -5.617  -2.939   0.040  0.00  0.00    +0.144 HD
ATOM     12  H   UNL     1      -4.431  -4.430   0.021  0.00  0.00    +0.144 HD
ATOM     13  H   UNL     1      -2.847  -0.511   0.027  0.00  0.00    +0.157 HD
ENDBRANCH   4   7
BRANCH   5  14
ATOM     14  C   UNL     1      -1.262  -0.670   0.011  0.00  0.00    +0.265 C 
BRANCH  14  15
ATOM     15  O   UNL     1       0.002  -0.004   0.002  0.00  0.00    -0.486 OA
BRANCH  15  16
ATOM     16  C   UNL     1      -0.016   1.355   0.009  0.00  0.00    +0.141 A 
ATOM     17  C   UNL     1      -1.226   2.033   0.019  0.00  0.00    +0.068 A 
ATOM     18  C   UNL     1      -1.243   3.416   0.032  0.00  0.00    +0.063 A 
ATOM     19  C   UNL     1      -0.053   4.123   0.025  0.00  0.00    +0.061 A 
ATOM     20  C   UNL     1       1.155   3.449   0.010  0.00  0.00    +0.045 A 
ATOM     21  C   UNL     1       1.176   2.066   0.002  0.00  0.00    +0.084 A 
ATOM     22 CL   UNL     1       2.692   1.220  -0.017  0.00  0.00    -0.080 Cl
ATOM     23 CL   UNL     1      -0.076   5.859   0.035  0.00  0.00    -0.082 Cl
ATOM     24 CL   UNL     1      -2.757   4.265   0.051  0.00  0.00    -0.082 Cl
ENDBRANCH  15  16
ENDBRANCH  14  15
ENDBRANCH   5  14
TORSDOF 4
