REMARK  Name = ZINC38673576
REMARK  6 active torsions:
REMARK  status: ('A' for Active; 'I' for Inactive)
REMARK    1  A    between atoms: C_4  and  C_7
REMARK    2  A    between atoms: C_9  and  C_12
REMARK    3  A    between atoms: N_14  and  C_15
REMARK    4  A    between atoms: C_15  and  C_16
REMARK    5  A    between atoms: C_16  and  C_18
REMARK    6  A    between atoms: C_16  and  N_23
REMARK                            x       y       z     vdW  Elec       q    Type
REMARK                         _______ _______ _______ _____ _____    ______ ____
ROOT
ATOM      1  C   UNL     1       6.479  -6.570   1.514  0.00  0.00    +0.266 C 
ATOM      2  O   UNL     1       5.591  -6.519   0.687  0.00  0.00    -0.268 OA
ATOM      3  N   UNL     1       7.666  -5.983   1.266  0.00  0.00    -0.311 N 
ATOM      4  H   UNL     1       8.376  -6.024   1.926  0.00  0.00    +0.149 HD
ENDROOT
BRANCH   1   7
ATOM      5  C   UNL     1       5.268  -8.455   4.429  0.00  0.00    +0.168 A 
ATOM      6  C   UNL     1       5.069  -7.934   3.190  0.00  0.00    +0.086 A 
ATOM      7  C   UNL     1       6.256  -7.279   2.799  0.00  0.00    +0.168 A 
ATOM      8  N   UNL     1       7.128  -7.406   3.770  0.00  0.00    -0.073 NA
ATOM      9  O   UNL     1       6.519  -8.144   4.814  0.00  0.00    -0.354 OA
BRANCH   5  13
ATOM     10  C   UNL     1       2.433 -10.661   6.697  0.00  0.00    +0.000 A 
ATOM     11  C   UNL     1       3.690 -10.414   7.219  0.00  0.00    +0.001 A 
ATOM     12  C   UNL     1       4.616  -9.699   6.487  0.00  0.00    +0.011 A 
ATOM     13  C   UNL     1       4.281  -9.223   5.218  0.00  0.00    +0.020 A 
ATOM     14  C   UNL     1       3.011  -9.476   4.698  0.00  0.00    +0.011 A 
ATOM     15  C   UNL     1       2.095 -10.193   5.440  0.00  0.00    +0.001 A 
ENDBRANCH   5  13
ENDBRANCH   1   7
BRANCH   3  16
ATOM     16  C   UNL     1       7.886  -5.284  -0.003  0.00  0.00    +0.094 C 
BRANCH  16  17
ATOM     17  C   UNL     1       9.343  -4.824  -0.085  0.00  0.00    -0.020 C 
BRANCH  17  18
ATOM     18  N   UNL     1       9.677  -4.038   1.110  0.00  0.00    +0.385 N 
ATOM     19  C   UNL     1       8.789  -2.861   1.167  0.00  0.00    -0.078 C 
ATOM     20  C   UNL     1       8.688  -2.412   2.603  0.00  0.00    -0.019 C 
ATOM     21  C   UNL     1       9.683  -1.278   2.910  0.00  0.00    -0.002 C 
ATOM     22  C   UNL     1      11.052  -1.520   2.242  0.00  0.00    -0.002 C 
ATOM     23  C   UNL     1      11.489  -2.960   2.335  0.00  0.00    -0.019 C 
ATOM     24  C   UNL     1      11.033  -3.707   1.065  0.00  0.00    -0.078 C 
ATOM     25  H   UNL     1       9.510  -4.606   1.927  0.00  0.00    -0.081 HD
ENDBRANCH  17  18
BRANCH  17  26
ATOM     26  C   UNL     1      10.246  -6.027  -0.164  0.00  0.00    -0.052 A 
ATOM     27  C   UNL     1      10.763  -6.438  -1.379  0.00  0.00    +0.009 A 
ATOM     28  C   UNL     1      11.572  -7.525  -1.415  0.00  0.00    +0.045 A 
ATOM     29  S   UNL     1      11.625  -8.004   0.304  0.00  0.00    -0.105 S 
ATOM     30  C   UNL     1      10.569  -6.720   0.956  0.00  0.00    +0.047 A 
ENDBRANCH  17  26
ENDBRANCH  16  17
ENDBRANCH   3  16
TORSDOF 6
