REMARK  Name = ZINC36386094
REMARK  12 active torsions:
REMARK  status: ('A' for Active; 'I' for Inactive)
REMARK    1  A    between atoms: C_1  and  C_2
REMARK    2  A    between atoms: C_2  and  O_3
REMARK    3  A    between atoms: O_3  and  C_4
REMARK    4  A    between atoms: C_4  and  C_6
REMARK    5  A    between atoms: C_10  and  N_11
REMARK    6  A    between atoms: C_12  and  C_14
REMARK    7  A    between atoms: C_14  and  C_16
REMARK    8  A    between atoms: C_14  and  N_17
REMARK    9  A    between atoms: N_17  and  C_18
REMARK   10  A    between atoms: C_18  and  C_19
REMARK   11  A    between atoms: N_21  and  C_22
REMARK   12  A    between atoms: C_31  and  C_35
REMARK                            x       y       z     vdW  Elec       q    Type
REMARK                         _______ _______ _______ _____ _____    ______ ____
ROOT
ATOM      1  N   UNL     1      -0.604  -2.455  -3.925  0.00  0.00    -0.281 N 
ATOM      2  C   UNL     1      -1.119  -2.783  -5.126  0.00  0.00    +0.203 C 
ATOM      3  O   UNL     1      -0.397  -3.225  -5.995  0.00  0.00    -0.277 OA
ATOM      4  H   UNL     1      -1.181  -2.102  -3.230  0.00  0.00    +0.155 HD
ENDROOT
BRANCH   1   9
ATOM      5  C   UNL     1       1.449  -2.344  -2.516  0.00  0.00    +0.091 A 
ATOM      6  C   UNL     1       2.876  -2.619  -2.515  0.00  0.00    -0.021 A 
ATOM      7  C   UNL     1       3.343  -3.117  -3.680  0.00  0.00    -0.004 A 
ATOM      8  S   UNL     1       1.922  -3.212  -4.730  0.00  0.00    -0.077 S 
ATOM      9  C   UNL     1       0.750  -2.624  -3.681  0.00  0.00    +0.086 A 
ATOM     10  C   UNL     1       4.757  -3.498  -3.993  0.00  0.00    +0.046 C 
ATOM     11  C   UNL     1       5.669  -2.887  -2.920  0.00  0.00    -0.009 C 
ATOM     12  C   UNL     1       5.082  -3.191  -1.538  0.00  0.00    +0.008 C 
ATOM     13  C   UNL     1       3.799  -2.383  -1.329  0.00  0.00    +0.037 C 
ATOM     14  C   UNL     1       7.069  -3.497  -3.029  0.00  0.00    +0.008 C 
BRANCH   5  15
ATOM     15  C   UNL     1       0.776  -1.800  -1.335  0.00  0.00    +0.342 C 
ATOM     16  O   UNL     1       0.312  -2.552  -0.499  0.00  0.00    -0.245 OA
BRANCH  15  17
ATOM     17  O   UNL     1       0.671  -0.465  -1.174  0.00  0.00    -0.461 OA
BRANCH  17  19
ATOM     18  C   UNL     1      -0.019   1.526   0.010  0.00  0.00    +0.048 C 
ATOM     19  C   UNL     1       0.002  -0.004   0.002  0.00  0.00    +0.229 C 
ENDBRANCH  17  19
ENDBRANCH  15  17
ENDBRANCH   5  15
ENDBRANCH   1   9
BRANCH   2  20
ATOM     20  C   UNL     1      -2.591  -2.599  -5.391  0.00  0.00    +0.014 C 
ATOM     21  C   UNL     1      -3.396  -3.444  -4.401  0.00  0.00    -0.004 C 
BRANCH  20  22
ATOM     22  N   UNL     1      -2.899  -3.026  -6.763  0.00  0.00    +0.392 N 
ATOM     23  H   UNL     1      -2.308  -2.526  -7.410  0.00  0.00    -0.084 HD
ATOM     24  H   UNL     1      -2.733  -4.017  -6.852  0.00  0.00    -0.084 HD
BRANCH  22  25
ATOM     25  C   UNL     1      -4.308  -2.736  -7.061  0.00  0.00    +0.016 C 
BRANCH  25  26
ATOM     26  C   UNL     1      -4.624  -3.173  -8.468  0.00  0.00    +0.196 C 
ATOM     27  O   UNL     1      -3.760  -3.676  -9.155  0.00  0.00    -0.278 OA
ATOM     28  N   UNL     1      -5.866  -3.005  -8.963  0.00  0.00    -0.312 N 
ATOM     29  H   UNL     1      -6.556  -2.602  -8.413  0.00  0.00    +0.149 HD
BRANCH  28  30
ATOM     30  C   UNL     1      -6.173  -3.430 -10.331  0.00  0.00    +0.095 C 
ATOM     31  C   UNL     1      -6.545  -4.922 -10.330  0.00  0.00    +0.046 C 
ATOM     32  C   UNL     1      -7.163  -5.267 -11.716  0.00  0.00    +0.168 C 
ATOM     33  S   UNL     1      -8.200  -3.772 -12.004  0.00  0.00    -0.029 S 
ATOM     34  O   UNL     1      -9.512  -4.019 -11.516  0.00  0.00    -0.174 OA
ATOM     35  O   UNL     1      -8.024  -3.339 -13.346  0.00  0.00    -0.174 OA
ATOM     36  C   UNL     1      -7.355  -2.593 -10.876  0.00  0.00    +0.188 C 
ENDBRANCH  28  30
ENDBRANCH  25  26
ENDBRANCH  22  25
ENDBRANCH  20  22
ENDBRANCH   2  20
TORSDOF 9
