REMARK  Name = ZINC35099368
REMARK  9 active torsions:
REMARK  status: ('A' for Active; 'I' for Inactive)
REMARK    1  A    between atoms: C_1  and  C_2
REMARK    2  A    between atoms: C_2  and  O_3
REMARK    3  A    between atoms: O_3  and  C_4
REMARK    4  A    between atoms: C_6  and  C_11
REMARK    5  A    between atoms: C_9  and  O_10
REMARK    6  A    between atoms: C_13  and  C_28
REMARK    7  A    between atoms: C_15  and  C_20
REMARK    8  A    between atoms: C_15  and  O_27
REMARK    9  A    between atoms: C_28  and  C_30
REMARK                            x       y       z     vdW  Elec       q    Type
REMARK                         _______ _______ _______ _____ _____    ______ ____
ROOT
ATOM      1  C   UNL     1      -0.217  -4.963  -0.535  0.00  0.00    +0.120 C 
ATOM      2  C   UNL     1       0.866  -5.356  -1.546  0.00  0.00    +0.144 C 
ATOM      3  C   UNL     1       1.943  -6.166  -0.817  0.00  0.00    +0.172 C 
ATOM      4  N   UNL     1       1.315  -7.309  -0.150  0.00  0.00    -0.267 N 
ATOM      5  C   UNL     1       0.045  -7.255   0.278  0.00  0.00    +0.302 C 
ATOM      6  O   UNL     1      -0.425  -8.229   0.835  0.00  0.00    -0.253 OA
ATOM      7  N   UNL     1      -0.729  -6.170   0.116  0.00  0.00    -0.292 N 
ATOM      8  H   UNL     1       1.828  -8.121  -0.016  0.00  0.00    +0.153 HD
ATOM      9  H   UNL     1      -1.644  -6.185   0.436  0.00  0.00    +0.151 HD
ENDROOT
BRANCH   3  10
ATOM     10  C   UNL     1       2.961  -6.661  -1.812  0.00  0.00    +0.003 A 
ATOM     11  C   UNL     1       2.783  -7.882  -2.433  0.00  0.00    +0.009 A 
ATOM     12  C   UNL     1       3.717  -8.336  -3.346  0.00  0.00    +0.020 A 
ATOM     13  C   UNL     1       4.830  -7.567  -3.637  0.00  0.00    +0.041 A 
ATOM     14  C   UNL     1       5.007  -6.345  -3.014  0.00  0.00    +0.020 A 
ATOM     15  C   UNL     1       4.070  -5.889  -2.106  0.00  0.00    +0.009 A 
ATOM     16 CL   UNL     1       6.003  -8.137  -4.782  0.00  0.00    -0.084 Cl
ENDBRANCH   3  10
BRANCH   1  19
ATOM     17  C   UNL     1       1.039  -1.844   1.188  0.00  0.00    +0.162 A 
ATOM     18  C   UNL     1       0.497  -2.692   0.235  0.00  0.00    +0.055 A 
ATOM     19  C   UNL     1       0.372  -4.043   0.502  0.00  0.00    -0.023 A 
ATOM     20  C   UNL     1       0.787  -4.551   1.720  0.00  0.00    +0.009 A 
ATOM     21  C   UNL     1       1.328  -3.710   2.675  0.00  0.00    +0.049 A 
ATOM     22  C   UNL     1       1.462  -2.357   2.411  0.00  0.00    +0.158 A 
BRANCH  22  23
ATOM     23  O   UNL     1       1.999  -1.530   3.347  0.00  0.00    -0.503 OA
ATOM     24  H   UNL     1       1.350  -1.149   3.955  0.00  0.00    +0.292 HD
ENDBRANCH  22  23
BRANCH  17  25
ATOM     25  O   UNL     1       1.163  -0.516   0.926  0.00  0.00    -0.489 OA
BRANCH  25  27
ATOM     26  C   UNL     1       0.928   1.450  -0.460  0.00  0.00    +0.048 C 
ATOM     27  C   UNL     1       0.709  -0.060  -0.350  0.00  0.00    +0.226 C 
ENDBRANCH  25  27
ENDBRANCH  17  25
ENDBRANCH   1  19
BRANCH   3  28
ATOM     28  O   UNL     1       2.586  -5.340   0.156  0.00  0.00    -0.367 OA
ATOM     29  H   UNL     1       3.280  -5.790   0.657  0.00  0.00    +0.212 HD
ENDBRANCH   3  28
BRANCH   2  30
ATOM     30  C   UNL     1       0.256  -6.189  -2.643  0.00  0.00    +0.245 C 
ATOM     31  O   UNL     1       0.209  -7.391  -2.533  0.00  0.00    -0.287 OA
BRANCH  30  32
ATOM     32  C   UNL     1      -0.296  -5.523  -3.877  0.00  0.00    +0.451 C 
ATOM     33  F   UNL     1      -0.805  -6.496  -4.744  0.00  0.00    -0.163 F 
ATOM     34  F   UNL     1      -1.320  -4.642  -3.513  0.00  0.00    -0.163 F 
ATOM     35  F   UNL     1       0.724  -4.813  -4.519  0.00  0.00    -0.163 F 
ENDBRANCH  30  32
ENDBRANCH   2  30
TORSDOF 8
