REMARK  Name = ZINC06624392
REMARK  10 active torsions:
REMARK  status: ('A' for Active; 'I' for Inactive)
REMARK    1  A    between atoms: C_1  and  C_2
REMARK    2  A    between atoms: C_4  and  O_32
REMARK    3  A    between atoms: C_6  and  C_31
REMARK    4  A    between atoms: C_7  and  C_13
REMARK    5  A    between atoms: C_13  and  C_14
REMARK    6  A    between atoms: N_16  and  C_17
REMARK    7  A    between atoms: C_17  and  C_18
REMARK    8  A    between atoms: C_18  and  C_19
REMARK    9  A    between atoms: C_26  and  O_29
REMARK   10  A    between atoms: O_29  and  C_30
REMARK                            x       y       z     vdW  Elec       q    Type
REMARK                         _______ _______ _______ _____ _____    ______ ____
ROOT
ATOM      1  C   UNL     1       8.029   1.589  -2.278  0.00  0.00    +0.218 C 
ATOM      2  O   UNL     1       7.256   1.734  -3.201  0.00  0.00    -0.275 OA
ATOM      3  N   UNL     1       7.610   1.778  -1.011  0.00  0.00    -0.315 N 
ATOM      4  H   UNL     1       8.228   1.661  -0.273  0.00  0.00    +0.149 HD
ENDROOT
BRANCH   1   5
ATOM      5  C   UNL     1       9.459   1.196  -2.548  0.00  0.00    +0.138 C 
BRANCH   5  12
ATOM      6  C   UNL     1      10.329  -0.458 -10.303  0.00  0.00    +0.044 C 
ATOM      7  C   UNL     1      10.101  -0.382  -8.815  0.00  0.00    -0.043 A 
ATOM      8  C   UNL     1       9.700  -1.515  -8.125  0.00  0.00    +0.049 A 
ATOM      9  C   UNL     1       9.487  -1.461  -6.760  0.00  0.00    +0.128 A 
ATOM     10  C   UNL     1       9.680  -0.249  -6.078  0.00  0.00    +0.062 A 
ATOM     11  C   UNL     1       9.470  -0.154  -4.633  0.00  0.00    -0.026 A 
ATOM     12  C   UNL     1       9.668   1.048  -4.033  0.00  0.00    +0.049 A 
ATOM     13  C   UNL     1      10.076   2.157  -4.803  0.00  0.00    +0.341 A 
ATOM     14  O   UNL     1      10.255   3.228  -4.253  0.00  0.00    -0.245 OA
ATOM     15  O   UNL     1      10.271   2.061  -6.128  0.00  0.00    -0.422 OA
ATOM     16  C   UNL     1      10.086   0.896  -6.785  0.00  0.00    +0.143 A 
ATOM     17  C   UNL     1      10.293   0.815  -8.155  0.00  0.00    +0.050 A 
ATOM     18  C   UNL     1       9.041  -1.357  -3.832  0.00  0.00    +0.045 C 
BRANCH   9  19
ATOM     19  O   UNL     1       9.095  -2.571  -6.084  0.00  0.00    -0.506 OA
ATOM     20  H   UNL     1       9.827  -3.106  -5.748  0.00  0.00    +0.292 HD
ENDBRANCH   9  19
ENDBRANCH   5  12
ENDBRANCH   1   5
BRANCH   3  21
ATOM     21  C   UNL     1       6.220   2.159  -0.749  0.00  0.00    +0.109 C 
BRANCH  21  22
ATOM     22  C   UNL     1       6.008   2.309   0.758  0.00  0.00    +0.056 C 
BRANCH  22  23
ATOM     23  C   UNL     1       4.578   2.702   1.028  0.00  0.00    -0.021 A 
ATOM     24  C   UNL     1       4.111   3.949   1.199  0.00  0.00    +0.087 A 
ATOM     25  N   UNL     1       2.762   3.915   1.424  0.00  0.00    -0.360 N 
ATOM     26  H   UNL     1       2.203   4.693   1.576  0.00  0.00    +0.165 HD
ATOM     27  C   UNL     1       2.316   2.610   1.403  0.00  0.00    +0.047 A 
ATOM     28  C   UNL     1       3.434   1.795   1.153  0.00  0.00    +0.006 A 
ATOM     29  C   UNL     1       3.284   0.408   1.077  0.00  0.00    +0.056 A 
ATOM     30  C   UNL     1       2.034  -0.152   1.247  0.00  0.00    +0.121 A 
ATOM     31  C   UNL     1       0.929   0.658   1.494  0.00  0.00    +0.047 A 
ATOM     32  C   UNL     1       1.065   2.026   1.571  0.00  0.00    +0.030 A 
BRANCH  30  33
ATOM     33  O   UNL     1       1.881  -1.502   1.173  0.00  0.00    -0.495 OA
ATOM     34  C   UNL     1       0.561  -2.016   1.359  0.00  0.00    +0.277 C 
ENDBRANCH  30  33
ENDBRANCH  22  23
ENDBRANCH  21  22
ENDBRANCH   3  21
TORSDOF 7
