REMARK  Name = ZINC59016863
REMARK  10 active torsions:
REMARK  status: ('A' for Active; 'I' for Inactive)
REMARK    1  A    between atoms: C_1  and  O_2
REMARK    2  A    between atoms: O_2  and  C_3
REMARK    3  A    between atoms: C_7  and  C_10
REMARK    4  A    between atoms: C_8  and  O_9
REMARK    5  A    between atoms: N_11  and  N_12
REMARK    6  A    between atoms: C_15  and  S_18
REMARK    7  A    between atoms: S_18  and  C_19
REMARK    8  A    between atoms: C_19  and  C_20
REMARK    9  A    between atoms: N_22  and  C_23
REMARK   10  A    between atoms: C_24  and  C_32
REMARK                            x       y       z     vdW  Elec       q    Type
REMARK                         _______ _______ _______ _____ _____    ______ ____
ROOT
ATOM      1  N   UNL     1      -1.539  -6.245   0.007  0.00  0.00    -0.205 N 
ATOM      2  C   UNL     1      -0.376  -6.992  -0.003  0.00  0.00    +0.232 A 
ATOM      3  N   UNL     1       0.851  -6.513  -0.006  0.00  0.00    -0.186 NA
ATOM      4  C   UNL     1       1.727  -7.523  -0.015  0.00  0.00    +0.211 A 
ATOM      5  N   UNL     1       1.070  -8.658  -0.017  0.00  0.00    -0.144 NA
ATOM      6  N   UNL     1      -0.298  -8.339  -0.004  0.00  0.00    -0.245 N 
ATOM      7  H   UNL     1      -2.401  -6.690   0.013  0.00  0.00    +0.177 HD
ATOM      8  H   UNL     1      -1.040  -8.964   0.001  0.00  0.00    +0.192 HD
ENDROOT
BRANCH   1  10
ATOM      9  C   UNL     1      -2.566  -4.144   0.016  0.00  0.00    +0.142 C 
ATOM     10  N   UNL     1      -1.474  -4.846   0.007  0.00  0.00    -0.187 NA
BRANCH   9  15
ATOM     11  C   UNL     1      -1.201  -0.638   0.010  0.00  0.00    +0.162 A 
ATOM     12  C   UNL     1      -2.374   0.101   0.019  0.00  0.00    +0.049 A 
ATOM     13  C   UNL     1      -3.602  -0.537   0.027  0.00  0.00    +0.004 A 
ATOM     14  C   UNL     1      -3.671  -1.914   0.026  0.00  0.00    +0.013 A 
ATOM     15  C   UNL     1      -2.497  -2.672   0.017  0.00  0.00    +0.040 A 
ATOM     16  C   UNL     1      -1.255  -2.026   0.003  0.00  0.00    +0.167 A 
BRANCH  11  18
ATOM     17  C   UNL     1      -0.017   1.425   0.010  0.00  0.00    +0.277 C 
ATOM     18  O   UNL     1       0.002  -0.004   0.002  0.00  0.00    -0.491 OA
ENDBRANCH  11  18
BRANCH  16  19
ATOM     19  O   UNL     1      -0.107  -2.754  -0.012  0.00  0.00    -0.503 OA
ATOM     20  H   UNL     1       0.234  -2.969   0.867  0.00  0.00    +0.292 HD
ENDBRANCH  16  19
ENDBRANCH   9  15
ENDBRANCH   1  10
BRANCH   4  21
ATOM     21  S   UNL     1       3.481  -7.356  -0.022  0.00  0.00    -0.075 S 
BRANCH  21  22
ATOM     22  C   UNL     1       4.085  -9.067  -0.033  0.00  0.00    +0.173 C 
BRANCH  22  23
ATOM     23  C   UNL     1       5.592  -9.068  -0.040  0.00  0.00    +0.228 C 
ATOM     24  O   UNL     1       6.199  -8.018  -0.038  0.00  0.00    -0.275 OA
ATOM     25  N   UNL     1       6.265 -10.235  -0.049  0.00  0.00    -0.278 N 
ATOM     26  H   UNL     1       5.780 -11.075  -0.051  0.00  0.00    +0.155 HD
BRANCH  25  27
ATOM     27  C   UNL     1       7.653 -10.236  -0.055  0.00  0.00    +0.090 A 
ATOM     28  C   UNL     1       8.504 -11.329  -0.070  0.00  0.00    +0.084 A 
ATOM     29  C   UNL     1       9.931 -11.061  -0.075  0.00  0.00    -0.018 A 
ATOM     30  C   UNL     1      10.246  -9.747  -0.064  0.00  0.00    -0.004 A 
ATOM     31  S   UNL     1       8.686  -8.912  -0.054  0.00  0.00    -0.077 S 
ATOM     32  C   UNL     1      11.620  -9.151  -0.063  0.00  0.00    +0.043 C 
ATOM     33  C   UNL     1      12.623 -10.255   0.303  0.00  0.00    +0.005 C 
ATOM     34  C   UNL     1      12.327 -11.495  -0.544  0.00  0.00    +0.005 C 
ATOM     35  C   UNL     1      11.011 -12.133  -0.092  0.00  0.00    +0.037 C 
BRANCH  28  36
ATOM     36  C   UNL     1       7.997 -12.668  -0.080  0.00  0.00    +0.102 C 
ATOM     37  N   UNL     1       7.595 -13.731  -0.088  0.00  0.00    -0.191 NA
ENDBRANCH  28  36
ENDBRANCH  25  27
ENDBRANCH  22  23
ENDBRANCH  21  22
ENDBRANCH   4  21
TORSDOF 9
