REMARK  Name = ZINC04294261
REMARK  8 active torsions:
REMARK  status: ('A' for Active; 'I' for Inactive)
REMARK    1  A    between atoms: C_1  and  C_2
REMARK    2  A    between atoms: C_3  and  C_24
REMARK    3  A    between atoms: C_4  and  C_16
REMARK    4  A    between atoms: C_10  and  C_12
REMARK    5  A    between atoms: C_12  and  C_13
REMARK    6  A    between atoms: C_13  and  C_14
REMARK    7  A    between atoms: C_14  and  O_15
REMARK    8  A    between atoms: C_19  and  C_22
REMARK                            x       y       z     vdW  Elec       q    Type
REMARK                         _______ _______ _______ _____ _____    ______ ____
ROOT
ATOM      1  C   UNL     1       0.459   1.363  -0.000  0.00  0.00    +0.066 C 
ATOM      2  C   UNL     1       0.266  -0.132   0.025  0.00  0.00    +0.052 C 
ATOM      3  C   UNL     1      -1.003  -0.636   0.005  0.00  0.00    +0.061 C 
ATOM      4  C   UNL     1      -1.149  -2.148   0.032  0.00  0.00    +0.164 C 
ATOM      5  N   UNL     1       0.101  -2.915   0.078  0.00  0.00    -0.208 N 
ATOM      6  C   UNL     1       1.296  -2.238   0.093  0.00  0.00    +0.237 C 
ATOM      7  N   UNL     1       1.333  -0.917   0.062  0.00  0.00    -0.218 NA
ATOM      8  N   UNL     1       2.273  -3.165   0.136  0.00  0.00    -0.201 NA
ATOM      9  C   UNL     1       1.758  -4.366   0.148  0.00  0.00    +0.115 C 
ATOM     10  N   UNL     1       0.408  -4.277   0.113  0.00  0.00    -0.248 N 
ATOM     11  H   UNL     1      -0.223  -5.014   0.114  0.00  0.00    +0.171 HD
ENDROOT
BRANCH   4  12
ATOM     12  C   UNL     1      -1.968  -2.519   1.242  0.00  0.00    -0.021 A 
ATOM     13  C   UNL     1      -1.432  -2.369   2.509  0.00  0.00    +0.007 A 
ATOM     14  C   UNL     1      -2.176  -2.708   3.620  0.00  0.00    +0.019 A 
ATOM     15  C   UNL     1      -3.473  -3.201   3.464  0.00  0.00    +0.052 A 
ATOM     16  C   UNL     1      -4.007  -3.350   2.183  0.00  0.00    +0.019 A 
ATOM     17  C   UNL     1      -3.254  -3.003   1.080  0.00  0.00    +0.007 A 
BRANCH  15  18
ATOM     18  C   UNL     1      -4.251  -3.555   4.613  0.00  0.00    +0.099 C 
ATOM     19  N   UNL     1      -4.868  -3.835   5.525  0.00  0.00    -0.191 NA
ENDBRANCH  15  18
ENDBRANCH   4  12
BRANCH   3  20
ATOM     20  C   UNL     1      -2.128   0.208  -0.039  0.00  0.00    +0.241 C 
ATOM     21  O   UNL     1      -1.988   1.415   0.056  0.00  0.00    -0.271 OA
ATOM     22  N   UNL     1      -3.360  -0.317  -0.185  0.00  0.00    -0.325 N 
ATOM     23  H   UNL     1      -3.479  -1.280  -0.191  0.00  0.00    +0.145 HD
ATOM     24  H   UNL     1      -4.128   0.267  -0.285  0.00  0.00    +0.145 HD
ENDBRANCH   3  20
BRANCH   9  25
ATOM     25  C   UNL     1       2.545  -5.651   0.192  0.00  0.00    +0.075 C 
BRANCH  25  26
ATOM     26  C   UNL     1       4.041  -5.331   0.222  0.00  0.00    +0.035 C 
BRANCH  26  27
ATOM     27  C   UNL     1       4.840  -6.635   0.267  0.00  0.00    +0.156 C 
BRANCH  27  28
ATOM     28  O   UNL     1       6.237  -6.337   0.294  0.00  0.00    -0.395 OA
ATOM     29  H   UNL     1       6.806  -7.118   0.324  0.00  0.00    +0.209 HD
ENDBRANCH  27  28
ENDBRANCH  26  27
ENDBRANCH  25  26
ENDBRANCH   9  25
TORSDOF 7
