REMARK  Name = ZINC20266245
REMARK  14 active torsions:
REMARK  status: ('A' for Active; 'I' for Inactive)
REMARK    1  A    between atoms: C_1  and  C_2
REMARK    2  A    between atoms: C_2  and  C_3
REMARK    3  A    between atoms: C_3  and  N_21
REMARK    4  A    between atoms: N_10  and  C_13
REMARK    5  A    between atoms: C_16  and  O_19
REMARK    6  A    between atoms: O_19  and  C_20
REMARK    7  A    between atoms: N_21  and  C_22
REMARK    8  A    between atoms: C_22  and  C_23
REMARK    9  A    between atoms: C_23  and  C_24
REMARK   10  A    between atoms: C_24  and  N_25
REMARK   11  A    between atoms: N_25  and  C_26
REMARK   12  A    between atoms: N_25  and  C_28
REMARK   13  A    between atoms: C_26  and  C_27
REMARK   14  A    between atoms: C_28  and  C_29
REMARK                            x       y       z     vdW  Elec       q    Type
REMARK                         _______ _______ _______ _____ _____    ______ ____
ROOT
ATOM      1  C   UNL     1      -1.478  -1.393  -0.047  0.00  0.00    +0.021 C 
ATOM      2  C   UNL     1      -1.928  -1.914  -1.246  0.00  0.00    +0.116 C 
ATOM      3  C   UNL     1      -3.256  -2.541  -1.362  0.00  0.00    +0.258 C 
ATOM      4  O   UNL     1      -3.997  -2.618  -0.400  0.00  0.00    -0.270 OA
ATOM      5  N   UNL     1      -3.629  -3.028  -2.564  0.00  0.00    -0.235 N 
ATOM      6  C   UNL     1      -2.823  -2.950  -3.632  0.00  0.00    +0.320 C 
ATOM      7  O   UNL     1      -3.218  -3.407  -4.686  0.00  0.00    -0.251 OA
ATOM      8  N   UNL     1      -1.604  -2.393  -3.599  0.00  0.00    -0.190 N 
ATOM      9  C   UNL     1      -1.102  -1.860  -2.466  0.00  0.00    +0.265 C 
ATOM     10  O   UNL     1       0.004  -1.353  -2.450  0.00  0.00    -0.269 OA
ATOM     11  H   UNL     1      -4.500  -3.444  -2.657  0.00  0.00    +0.159 HD
ENDROOT
BRANCH   8  12
ATOM     12  C   UNL     1      -0.834  -2.359  -4.771  0.00  0.00    +0.046 A 
ATOM     13  C   UNL     1       0.382  -3.027  -4.823  0.00  0.00    +0.027 A 
ATOM     14  C   UNL     1       1.139  -2.994  -5.978  0.00  0.00    +0.047 A 
ATOM     15  C   UNL     1       0.685  -2.293  -7.085  0.00  0.00    +0.120 A 
ATOM     16  C   UNL     1      -0.530  -1.625  -7.034  0.00  0.00    +0.047 A 
ATOM     17  C   UNL     1      -1.290  -1.662  -5.882  0.00  0.00    +0.027 A 
BRANCH  15  18
ATOM     18  O   UNL     1       1.430  -2.260  -8.222  0.00  0.00    -0.495 OA
ATOM     19  C   UNL     1       0.902  -1.519  -9.323  0.00  0.00    +0.277 C 
ENDBRANCH  15  18
ENDBRANCH   8  12
BRANCH   1  21
ATOM     20  C   UNL     1       0.982  -1.572   0.213  0.00  0.00    +0.010 C 
ATOM     21  C   UNL     1      -0.190  -0.612  -0.000  0.00  0.00    +0.048 C 
ENDBRANCH   1  21
BRANCH   1  22
ATOM     22  N   UNL     1      -2.191  -1.585   1.081  0.00  0.00    -0.346 N 
ATOM     23  H   UNL     1      -2.977  -2.153   1.067  0.00  0.00    +0.146 HD
BRANCH  22  24
ATOM     24  C   UNL     1      -1.779  -0.934   2.327  0.00  0.00    +0.099 C 
BRANCH  24  25
ATOM     25  C   UNL     1      -2.751  -1.314   3.446  0.00  0.00    +0.000 C 
BRANCH  25  26
ATOM     26  C   UNL     1      -2.321  -0.634   4.748  0.00  0.00    -0.077 C 
BRANCH  26  27
ATOM     27  N   UNL     1      -3.255  -0.999   5.822  0.00  0.00    +0.379 N 
ATOM     28  H   UNL     1      -4.197  -0.771   5.541  0.00  0.00    -0.082 HD
BRANCH  27  29
ATOM     29  C   UNL     1      -3.158  -2.441   6.086  0.00  0.00    -0.082 C 
ATOM     30  C   UNL     1      -4.234  -2.848   7.094  0.00  0.00    -0.017 C 
ENDBRANCH  27  29
BRANCH  27  31
ATOM     31  C   UNL     1      -2.913  -0.254   7.041  0.00  0.00    -0.082 C 
ATOM     32  C   UNL     1      -3.159   1.239   6.812  0.00  0.00    -0.017 C 
ENDBRANCH  27  31
ENDBRANCH  26  27
ENDBRANCH  25  26
ENDBRANCH  24  25
ENDBRANCH  22  24
ENDBRANCH   1  22
TORSDOF 10
