REMARK  Name = ZINC63855249
REMARK  12 active torsions:
REMARK  status: ('A' for Active; 'I' for Inactive)
REMARK    1  A    between atoms: C_1  and  C_2
REMARK    2  A    between atoms: C_2  and  N_3
REMARK    3  A    between atoms: N_3  and  C_4
REMARK    4  A    between atoms: C_8  and  S_10
REMARK    5  A    between atoms: S_10  and  C_11
REMARK    6  A    between atoms: C_11  and  C_12
REMARK    7  A    between atoms: N_14  and  C_15
REMARK    8  A    between atoms: C_15  and  C_17
REMARK    9  A    between atoms: C_15  and  C_27
REMARK   10  A    between atoms: C_17  and  C_18
REMARK   11  A    between atoms: C_27  and  O_29
REMARK   12  A    between atoms: O_29  and  C_30
REMARK                            x       y       z     vdW  Elec       q    Type
REMARK                         _______ _______ _______ _____ _____    ______ ____
ROOT
ATOM      1  C   UNL     1      -0.385  -5.747   6.774  0.00  0.00    +0.224 C 
ATOM      2  O   UNL     1      -1.578  -5.967   6.766  0.00  0.00    -0.275 OA
ATOM      3  N   UNL     1       0.384  -6.239   7.765  0.00  0.00    -0.301 N 
ATOM      4  H   UNL     1       1.338  -6.063   7.772  0.00  0.00    +0.150 HD
ENDROOT
BRANCH   1   5
ATOM      5  C   UNL     1       0.236  -4.923   5.676  0.00  0.00    +0.172 C 
BRANCH   5   6
ATOM      6  S   UNL     1      -1.048  -4.412   4.502  0.00  0.00    -0.088 S 
BRANCH   6  10
ATOM      7  C   UNL     1       0.752  -1.959   1.218  0.00  0.00    +0.222 C 
ATOM      8  N   UNL     1       1.679  -2.455   2.260  0.00  0.00    -0.241 N 
ATOM      9  N   UNL     1       1.096  -3.205   3.256  0.00  0.00    -0.171 NA
ATOM     10  C   UNL     1      -0.174  -3.471   3.296  0.00  0.00    +0.151 C 
ATOM     11  S   UNL     1      -0.829  -2.661   1.844  0.00  0.00    -0.058 S 
ATOM     12  H   UNL     1       2.631  -2.264   2.243  0.00  0.00    +0.171 HD
BRANCH   7  13
ATOM     13  N   UNL     1       0.713  -0.491   1.192  0.00  0.00    -0.289 NA
ATOM     14  H   UNL     1       1.643  -0.103   1.242  0.00  0.00    +0.124 HD
BRANCH  13  16
ATOM     15  C   UNL     1      -0.019   1.526   0.010  0.00  0.00    +0.020 C 
ATOM     16  C   UNL     1       0.002  -0.004   0.002  0.00  0.00    +0.080 C 
ENDBRANCH  13  16
ENDBRANCH   7  13
ENDBRANCH   6  10
ENDBRANCH   5   6
ENDBRANCH   1   5
BRANCH   3  17
ATOM     17  C   UNL     1      -0.221  -7.040   8.833  0.00  0.00    +0.186 C 
BRANCH  17  18
ATOM     18  C   UNL     1      -0.761  -6.126   9.902  0.00  0.00    +0.328 C 
ATOM     19  O   UNL     1      -0.653  -4.928   9.784  0.00  0.00    -0.249 OA
BRANCH  18  20
ATOM     20  O   UNL     1      -1.364  -6.642  10.985  0.00  0.00    -0.467 OA
ATOM     21  C   UNL     1      -1.852  -5.717  11.958  0.00  0.00    +0.280 C 
ENDBRANCH  18  20
ENDBRANCH  17  18
BRANCH  17  22
ATOM     22  C   UNL     1       0.837  -7.964   9.439  0.00  0.00    +0.067 C 
BRANCH  22  23
ATOM     23  C   UNL     1       1.289  -8.959   8.401  0.00  0.00    -0.039 C 
ATOM     24  C   UNL     1       2.369  -8.857   7.593  0.00  0.00    -0.001 A 
ATOM     25  C   UNL     1       3.405  -7.829   7.443  0.00  0.00    +0.010 A 
ATOM     26  C   UNL     1       4.382  -8.011   6.526  0.00  0.00    +0.001 A 
ATOM     27  C   UNL     1       4.430  -9.155   5.717  0.00  0.00    +0.002 A 
ATOM     28  C   UNL     1       3.514 -10.143   5.796  0.00  0.00    +0.026 A 
ATOM     29  C   UNL     1       2.442 -10.056   6.727  0.00  0.00    +0.043 A 
ATOM     30  N   UNL     1       1.446 -10.867   6.990  0.00  0.00    -0.380 N 
ATOM     31  C   UNL     1       0.631 -10.277   8.058  0.00  0.00    +0.144 C 
ATOM     32  H   UNL     1       1.278 -11.717   6.554  0.00  0.00    +0.160 HD
ENDBRANCH  22  23
ENDBRANCH  17  22
ENDBRANCH   3  17
TORSDOF 10
