REMARK  Name = ZINC06448945
REMARK  4 active torsions:
REMARK  status: ('A' for Active; 'I' for Inactive)
REMARK    1  A    between atoms: C_7  and  O_26
REMARK    2  A    between atoms: C_11  and  C_13
REMARK    3  A    between atoms: C_13  and  S_14
REMARK    4  A    between atoms: S_14  and  C_15
REMARK                            x       y       z     vdW  Elec       q    Type
REMARK                         _______ _______ _______ _____ _____    ______ ____
ROOT
ATOM      1  C   UNL     1      -0.016   1.359   0.009  0.00  0.00    +0.001 A 
ATOM      2  C   UNL     1       1.158   2.101   0.002  0.00  0.00    +0.001 A 
ATOM      3  C   UNL     1       2.381   1.458  -0.013  0.00  0.00    +0.016 A 
ATOM      4  C   UNL     1       2.412   0.080  -0.021  0.00  0.00    +0.025 A 
ATOM      5  C   UNL     1       1.228  -0.691  -0.013  0.00  0.00    +0.030 A 
ATOM      6  C   UNL     1       0.002  -0.004   0.002  0.00  0.00    +0.012 A 
ATOM      7  C   UNL     1       1.267  -2.142  -0.022  0.00  0.00    +0.127 A 
ATOM      8  C   UNL     1       2.305  -2.992  -0.038  0.00  0.00    +0.076 A 
ATOM      9  C   UNL     1       3.663  -2.610  -0.049  0.00  0.00    +0.076 A 
ATOM     10  N   UNL     1       4.668  -3.496  -0.064  0.00  0.00    -0.279 N 
ATOM     11  C   UNL     1       5.924  -3.073  -0.073  0.00  0.00    +0.228 C 
ATOM     12  O   UNL     1       6.164  -1.880  -0.068  0.00  0.00    -0.275 OA
ATOM     13  S   UNL     1       3.928  -0.843  -0.041  0.00  0.00    -0.073 S 
ATOM     14  H   UNL     1       4.476  -4.447  -0.069  0.00  0.00    +0.155 HD
ENDROOT
BRANCH   7  15
ATOM     15  O   UNL     1       0.052  -2.738  -0.013  0.00  0.00    -0.506 OA
ATOM     16  H   UNL     1       0.088  -3.704  -0.020  0.00  0.00    +0.292 HD
ENDBRANCH   7  15
BRANCH  11  17
ATOM     17  C   UNL     1       7.054  -4.069  -0.091  0.00  0.00    +0.173 C 
BRANCH  17  18
ATOM     18  S   UNL     1       8.639  -3.186  -0.101  0.00  0.00    -0.079 S 
BRANCH  18  19
ATOM     19  C   UNL     1       9.844  -4.472  -0.121  0.00  0.00    +0.168 A 
ATOM     20  N   UNL     1      11.196  -4.280  -0.127  0.00  0.00    -0.333 N 
ATOM     21  H   UNL     1      11.657  -3.426  -0.121  0.00  0.00    +0.168 HD
ATOM     22  C   UNL     1      11.788  -5.533  -0.143  0.00  0.00    +0.067 A 
ATOM     23  C   UNL     1      13.102  -5.975  -0.156  0.00  0.00    +0.028 A 
ATOM     24  C   UNL     1      13.372  -7.328  -0.171  0.00  0.00    +0.002 A 
ATOM     25  C   UNL     1      12.336  -8.251  -0.174  0.00  0.00    +0.002 A 
ATOM     26  C   UNL     1      11.025  -7.829  -0.162  0.00  0.00    +0.030 A 
ATOM     27  C   UNL     1      10.735  -6.463  -0.146  0.00  0.00    +0.090 A 
ATOM     28  N   UNL     1       9.576  -5.755  -0.126  0.00  0.00    -0.222 NA
ENDBRANCH  18  19
ENDBRANCH  17  18
ENDBRANCH  11  17
TORSDOF 4
