REMARK  Name = ZINC39631147
REMARK  11 active torsions:
REMARK  status: ('A' for Active; 'I' for Inactive)
REMARK    1  A    between atoms: C_1  and  C_2
REMARK    2  A    between atoms: C_2  and  C_4
REMARK    3  A    between atoms: C_2  and  N_11
REMARK    4  A    between atoms: C_4  and  C_5
REMARK    5  A    between atoms: C_5  and  C_6
REMARK    6  A    between atoms: C_6  and  C_7
REMARK    7  A    between atoms: C_7  and  C_8
REMARK    8  A    between atoms: C_7  and  C_9
REMARK    9  A    between atoms: C_7  and  O_10
REMARK   10  A    between atoms: C_12  and  C_14
REMARK   11  A    between atoms: C_25  and  C_27
REMARK                            x       y       z     vdW  Elec       q    Type
REMARK                         _______ _______ _______ _____ _____    ______ ____
ROOT
ATOM      1  C   UNL     1       2.736  -1.073  -2.455  0.00  0.00    +0.100 C 
ATOM      2  C   UNL     1       2.403  -0.160  -3.656  0.00  0.00    +0.121 C 
ATOM      3  N   UNL     1       3.518   0.815  -3.706  0.00  0.00    -0.300 N 
ATOM      4  C   UNL     1       4.723   0.013  -3.386  0.00  0.00    +0.115 C 
ATOM      5  C   UNL     1       4.260  -0.959  -2.283  0.00  0.00    -0.004 C 
ATOM      6  C   UNL     1       4.596  -0.393  -0.907  0.00  0.00    -0.010 C 
ATOM      7  C   UNL     1       6.117  -0.343  -0.739  0.00  0.00    -0.082 C 
ATOM      8  N   UNL     1       6.673  -1.694  -0.882  0.00  0.00    +0.379 N 
ATOM      9  C   UNL     1       6.425  -2.195  -2.240  0.00  0.00    -0.082 C 
ATOM     10  C   UNL     1       4.917  -2.323  -2.472  0.00  0.00    -0.010 C 
ATOM     11  C   UNL     1       3.452   2.133  -3.981  0.00  0.00    +0.212 C 
ATOM     12  O   UNL     1       4.462   2.803  -3.983  0.00  0.00    -0.276 OA
ATOM     13  C   UNL     1       2.122   2.773  -4.284  0.00  0.00    +0.109 C 
ATOM     14  H   UNL     1       7.666  -1.668  -0.711  0.00  0.00    -0.086 HD
ATOM     15  H   UNL     1       6.234  -2.309  -0.213  0.00  0.00    -0.086 HD
ENDROOT
BRANCH   1  17
ATOM     16  N   UNL     1       1.676  -1.463  -0.254  0.00  0.00    -0.312 N 
ATOM     17  C   UNL     1       2.031  -0.587  -1.215  0.00  0.00    +0.218 C 
ATOM     18  O   UNL     1       1.782   0.593  -1.082  0.00  0.00    -0.275 OA
ATOM     19  H   UNL     1       1.875  -2.407  -0.361  0.00  0.00    +0.149 HD
BRANCH  16  21
ATOM     20  C   UNL     1      -0.513  -0.903   0.681  0.00  0.00    +0.028 C 
ATOM     21  C   UNL     1       0.991  -0.991   0.951  0.00  0.00    +0.070 C 
BRANCH  21  22
ATOM     22  C   UNL     1       1.246  -1.968   2.100  0.00  0.00    +0.022 C 
BRANCH  22  23
ATOM     23  C   UNL     1       2.735  -1.963   2.453  0.00  0.00    +0.005 C 
BRANCH  23  24
ATOM     24  C   UNL     1       2.991  -2.941   3.601  0.00  0.00    +0.034 C 
BRANCH  24  25
ATOM     25  C   UNL     1       4.479  -2.935   3.954  0.00  0.00    +0.061 C 
ATOM     26  C   UNL     1       4.756  -4.001   5.016  0.00  0.00    +0.041 C 
ATOM     27  C   UNL     1       5.302  -3.238   2.700  0.00  0.00    +0.041 C 
BRANCH  25  28
ATOM     28  O   UNL     1       4.843  -1.650   4.463  0.00  0.00    -0.389 OA
ATOM     29  H   UNL     1       5.776  -1.574   4.708  0.00  0.00    +0.210 HD
ENDBRANCH  25  28
ENDBRANCH  24  25
ENDBRANCH  23  24
ENDBRANCH  22  23
ENDBRANCH  21  22
ENDBRANCH  16  21
ENDBRANCH   1  17
TORSDOF 7
