REMARK  Name = ZINC42014997
REMARK  6 active torsions:
REMARK  status: ('A' for Active; 'I' for Inactive)
REMARK    1  A    between atoms: C_1  and  C_2
REMARK    2  A    between atoms: C_2  and  C_3
REMARK    3  A    between atoms: C_3  and  C_4
REMARK    4  A    between atoms: C_4  and  N_5
REMARK    5  A    between atoms: C_6  and  C_10
REMARK    6  A    between atoms: C_15  and  N_16
REMARK                            x       y       z     vdW  Elec       q    Type
REMARK                         _______ _______ _______ _____ _____    ______ ____
ROOT
ATOM      1  C   UNL     1      -0.580  -2.850  -3.977  0.00  0.00    +0.043 A 
ATOM      2  C   UNL     1      -1.516  -3.263  -3.027  0.00  0.00    +0.033 A 
ATOM      3  C   UNL     1      -2.861  -3.253  -3.337  0.00  0.00    +0.042 A 
ATOM      4  C   UNL     1      -3.287  -2.834  -4.587  0.00  0.00    +0.022 A 
ATOM      5  C   UNL     1      -2.371  -2.423  -5.535  0.00  0.00    +0.025 A 
ATOM      6  C   UNL     1      -1.015  -2.422  -5.238  0.00  0.00    +0.035 A 
ATOM      7 CL   UNL     1      -4.023  -3.768  -2.155  0.00  0.00    -0.084 Cl
ENDROOT
BRANCH   1   9
ATOM      8  N   UNL     1       1.441  -2.343  -2.538  0.00  0.00    -0.225 N 
ATOM      9  C   UNL     1       0.862  -2.859  -3.651  0.00  0.00    +0.184 A 
ATOM     10  N   UNL     1       1.827  -3.370  -4.387  0.00  0.00    -0.108 NA
ATOM     11  N   UNL     1       2.964  -3.208  -3.812  0.00  0.00    -0.023 NA
ATOM     12  N   UNL     1       2.817  -2.589  -2.691  0.00  0.00    -0.044 NA
BRANCH   8  13
ATOM     13  C   UNL     1       0.776  -1.668  -1.421  0.00  0.00    +0.147 C 
BRANCH  13  14
ATOM     14  C   UNL     1       0.663  -0.173  -1.723  0.00  0.00    +0.023 C 
BRANCH  14  16
ATOM     15  C   UNL     1      -0.145   2.028  -0.858  0.00  0.00    +0.004 C 
ATOM     16  C   UNL     1      -0.031   0.532  -0.556  0.00  0.00    -0.002 C 
ENDBRANCH  14  16
ENDBRANCH  13  14
ENDBRANCH   8  13
ENDBRANCH   1   9
BRANCH   6  17
ATOM     17  N   UNL     1      -0.090  -2.001  -6.191  0.00  0.00    -0.357 N 
ATOM     18  H   UNL     1       0.857  -2.005  -5.983  0.00  0.00    +0.142 HD
ATOM     19  H   UNL     1      -0.394  -1.705  -7.064  0.00  0.00    +0.142 HD
ENDBRANCH   6  17
TORSDOF 5
