REMARK  Name = ZINC56206800
REMARK  9 active torsions:
REMARK  status: ('A' for Active; 'I' for Inactive)
REMARK    1  A    between atoms: C_1  and  C_2
REMARK    2  A    between atoms: C_4  and  O_22
REMARK    3  A    between atoms: C_7  and  N_8
REMARK    4  A    between atoms: N_8  and  C_9
REMARK    5  A    between atoms: C_9  and  C_11
REMARK    6  A    between atoms: C_9  and  C_12
REMARK    7  A    between atoms: N_14  and  C_15
REMARK    8  A    between atoms: O_22  and  C_23
REMARK    9  A    between atoms: C_23  and  C_24
REMARK                            x       y       z     vdW  Elec       q    Type
REMARK                         _______ _______ _______ _____ _____    ______ ____
ROOT
ATOM      1  N   UNL     1       0.023  -0.014   2.416  0.00  0.00    -0.333 N 
ATOM      2  H   UNL     1       0.017   0.956   2.423  0.00  0.00    +0.147 HD
ENDROOT
BRANCH   1   9
ATOM      3  C   UNL     1      -0.013   1.504   0.011  0.00  0.00    +0.046 C 
ATOM      4  C   UNL     1      -0.004  -0.003   0.002  0.00  0.00    -0.026 A 
ATOM      5  C   UNL     1      -0.006  -0.686  -1.199  0.00  0.00    +0.050 A 
ATOM      6  C   UNL     1       0.003  -2.073  -1.208  0.00  0.00    +0.122 A 
ATOM      7  C   UNL     1       0.014  -2.775  -0.012  0.00  0.00    +0.047 A 
ATOM      8  C   UNL     1       0.017  -2.094   1.189  0.00  0.00    +0.027 A 
ATOM      9  C   UNL     1       0.014  -0.705   1.199  0.00  0.00    +0.031 A 
BRANCH   6  10
ATOM     10  O   UNL     1      -0.001  -2.745  -2.391  0.00  0.00    -0.483 OA
BRANCH  10  11
ATOM     11  C   UNL     1       0.009  -4.172  -2.326  0.00  0.00    +0.324 C 
BRANCH  11  12
ATOM     12  C   UNL     1       0.003  -4.739  -3.722  0.00  0.00    +0.248 C 
ATOM     13  O   UNL     1      -0.007  -3.993  -4.679  0.00  0.00    -0.272 OA
ATOM     14  N   UNL     1       0.011  -6.074  -3.908  0.00  0.00    -0.327 N 
ATOM     15  H   UNL     1       0.019  -6.670  -3.143  0.00  0.00    +0.145 HD
ATOM     16  H   UNL     1       0.007  -6.438  -4.807  0.00  0.00    +0.145 HD
ENDBRANCH  11  12
ENDBRANCH  10  11
ENDBRANCH   6  10
ENDBRANCH   1   9
BRANCH   1  17
ATOM     17  C   UNL     1       0.041  -0.755   3.679  0.00  0.00    +0.154 C 
ATOM     18  C   UNL     1       1.485  -1.112   4.040  0.00  0.00    +0.038 C 
BRANCH  17  19
ATOM     19  C   UNL     1      -0.553   0.098   4.771  0.00  0.00    +0.237 C 
ATOM     20  O   UNL     1      -0.953   1.215   4.518  0.00  0.00    -0.273 OA
ATOM     21  N   UNL     1      -0.640  -0.381   6.028  0.00  0.00    -0.284 N 
ATOM     22  H   UNL     1      -0.383  -1.297   6.217  0.00  0.00    +0.155 HD
BRANCH  21  23
ATOM     23  C   UNL     1      -1.102   0.444   7.060  0.00  0.00    +0.036 A 
ATOM     24  C   UNL     1      -0.566   0.327   8.336  0.00  0.00    +0.023 A 
ATOM     25  C   UNL     1      -1.022   1.142   9.353  0.00  0.00    +0.005 A 
ATOM     26  C   UNL     1      -2.012   2.074   9.104  0.00  0.00    +0.038 A 
ATOM     27  C   UNL     1      -2.549   2.194   7.833  0.00  0.00    +0.125 A 
ATOM     28  C   UNL     1      -2.092   1.384   6.809  0.00  0.00    +0.061 A 
ATOM     29  F   UNL     1      -3.517   3.105   7.592  0.00  0.00    -0.205 F 
ENDBRANCH  21  23
ENDBRANCH  17  19
ENDBRANCH   1  17
TORSDOF 7
