REMARK  Name = ZINC03843277
REMARK  8 active torsions:
REMARK  status: ('A' for Active; 'I' for Inactive)
REMARK    1  A    between atoms: C_1  and  O_2
REMARK    2  A    between atoms: O_2  and  C_3
REMARK    3  A    between atoms: C_5  and  C_10
REMARK    4  A    between atoms: C_8  and  O_9
REMARK    5  A    between atoms: N_14  and  C_18
REMARK    6  A    between atoms: C_18  and  N_19
REMARK    7  A    between atoms: N_19  and  C_20
REMARK    8  A    between atoms: C_23  and  N_26
REMARK                            x       y       z     vdW  Elec       q    Type
REMARK                         _______ _______ _______ _____ _____    ______ ____
ROOT
ATOM      1  C   UNL     1      -7.841   6.902  -3.777  0.00  0.00    +0.028 C 
ATOM      2  C   UNL     1      -6.717   6.835  -3.019  0.00  0.00    +0.077 C 
ATOM      3  C   UNL     1      -6.575   6.678  -1.557  0.00  0.00    +0.260 C 
ATOM      4  O   UNL     1      -7.544   6.587  -0.827  0.00  0.00    -0.269 OA
ATOM      5  N   UNL     1      -5.341   6.643  -1.082  0.00  0.00    -0.239 N 
ATOM      6  C   UNL     1      -4.270   6.750  -1.894  0.00  0.00    +0.122 C 
ATOM      7  S   UNL     1      -2.611   6.734  -1.473  0.00  0.00    -0.027 S 
ATOM      8  S   UNL     1      -5.001   6.911  -3.515  0.00  0.00    -0.061 S 
ENDROOT
BRANCH   1  11
ATOM      9  C   UNL     1     -10.522   5.416  -1.617  0.00  0.00    +0.162 A 
ATOM     10  C   UNL     1      -9.287   5.653  -2.187  0.00  0.00    +0.057 A 
ATOM     11  C   UNL     1      -9.152   6.641  -3.170  0.00  0.00    -0.020 A 
ATOM     12  C   UNL     1     -10.273   7.374  -3.578  0.00  0.00    +0.012 A 
ATOM     13  C   UNL     1     -11.502   7.127  -3.007  0.00  0.00    +0.050 A 
ATOM     14  C   UNL     1     -11.633   6.151  -2.028  0.00  0.00    +0.158 A 
BRANCH   9  16
ATOM     15  C   UNL     1      -9.476   3.747  -0.284  0.00  0.00    +0.277 C 
ATOM     16  O   UNL     1     -10.655   4.461  -0.657  0.00  0.00    -0.491 OA
ENDBRANCH   9  16
BRANCH  14  17
ATOM     17  O   UNL     1     -12.848   5.910  -1.470  0.00  0.00    -0.503 OA
ATOM     18  H   UNL     1     -13.367   5.238  -1.931  0.00  0.00    +0.292 HD
ENDBRANCH  14  17
ENDBRANCH   1  11
BRANCH   5  19
ATOM     19  C   UNL     1      -5.134   6.489   0.360  0.00  0.00    +0.219 C 
BRANCH  19  20
ATOM     20  N   UNL     1      -4.945   5.072   0.678  0.00  0.00    -0.328 N 
ATOM     21  H   UNL     1      -4.901   4.416  -0.035  0.00  0.00    +0.148 HD
BRANCH  20  22
ATOM     22  C   UNL     1      -4.829   4.664   2.009  0.00  0.00    +0.028 A 
ATOM     23  C   UNL     1      -4.775   3.312   2.321  0.00  0.00    +0.025 A 
ATOM     24  C   UNL     1      -4.661   2.912   3.638  0.00  0.00    +0.034 A 
ATOM     25  C   UNL     1      -4.599   3.857   4.646  0.00  0.00    +0.126 A 
ATOM     26  C   UNL     1      -4.658   5.204   4.340  0.00  0.00    +0.034 A 
ATOM     27  C   UNL     1      -4.767   5.611   3.024  0.00  0.00    +0.025 A 
BRANCH  25  28
ATOM     28  N   UNL     1      -4.477   3.425   6.056  0.00  0.00    +0.056 N 
ATOM     29  O   UNL     1      -4.431   2.239   6.328  0.00  0.00    -0.126 OA
ATOM     30  O   UNL     1      -4.418   4.256   6.945  0.00  0.00    -0.126 OA
ENDBRANCH  25  28
ENDBRANCH  20  22
ENDBRANCH  19  20
ENDBRANCH   5  19
TORSDOF 7
