REMARK  Name = ZINC20046191
REMARK  9 active torsions:
REMARK  status: ('A' for Active; 'I' for Inactive)
REMARK    1  A    between atoms: C_1  and  C_2
REMARK    2  A    between atoms: C_2  and  C_4
REMARK    3  A    between atoms: C_2  and  N_21
REMARK    4  A    between atoms: C_4  and  O_6
REMARK    5  A    between atoms: O_6  and  C_7
REMARK    6  A    between atoms: C_7  and  C_8
REMARK    7  A    between atoms: N_13  and  C_14
REMARK    8  A    between atoms: C_14  and  C_15
REMARK    9  A    between atoms: C_15  and  C_16
REMARK                            x       y       z     vdW  Elec       q    Type
REMARK                         _______ _______ _______ _____ _____    ______ ____
ROOT
ATOM      1  O   UNL     1      -3.784   6.096   0.053  0.00  0.00    -0.454 OA
ENDROOT
BRANCH   1   2
ATOM      2  C   UNL     1      -3.978   7.425   0.061  0.00  0.00    +0.328 C 
ATOM      3  O   UNL     1      -3.030   8.174   0.061  0.00  0.00    -0.249 OA
BRANCH   2   5
ATOM      4  C   UNL     1      -6.113   7.493   1.321  0.00  0.00    +0.040 C 
ATOM      5  C   UNL     1      -5.378   7.982   0.071  0.00  0.00    +0.190 C 
BRANCH   5   6
ATOM      6  N   UNL     1      -5.322   9.445   0.079  0.00  0.00    -0.220 N 
ATOM      7  C   UNL     1      -4.739  10.180   1.043  0.00  0.00    +0.255 C 
ATOM      8  O   UNL     1      -4.184   9.741   2.030  0.00  0.00    -0.270 OA
ATOM      9  C   UNL     1      -4.883  11.610   0.699  0.00  0.00    +0.049 A 
ATOM     10  C   UNL     1      -4.490  12.795   1.301  0.00  0.00    +0.014 A 
ATOM     11  C   UNL     1      -4.798  14.005   0.701  0.00  0.00    +0.001 A 
ATOM     12  C   UNL     1      -5.494  14.039  -0.493  0.00  0.00    +0.001 A 
ATOM     13  C   UNL     1      -5.894  12.862  -1.107  0.00  0.00    +0.014 A 
ATOM     14  C   UNL     1      -5.593  11.644  -0.518  0.00  0.00    +0.049 A 
ATOM     15  C   UNL     1      -5.851  10.233  -0.875  0.00  0.00    +0.255 C 
ATOM     16  O   UNL     1      -6.442   9.849  -1.864  0.00  0.00    -0.270 OA
ENDBRANCH   5   6
ENDBRANCH   2   5
ENDBRANCH   1   2
BRANCH   1  17
ATOM     17  C   UNL     1      -2.409   5.631   0.044  0.00  0.00    +0.328 C 
BRANCH  17  18
ATOM     18  C   UNL     1      -2.389   4.124   0.036  0.00  0.00    +0.258 C 
ATOM     19  O   UNL     1      -3.430   3.504   0.037  0.00  0.00    -0.272 OA
ATOM     20  N   UNL     1      -1.212   3.466   0.027  0.00  0.00    -0.237 N 
ATOM     21  C   UNL     1      -1.194   2.119   0.019  0.00  0.00    +0.306 C 
ATOM     22  O   UNL     1      -2.238   1.497   0.021  0.00  0.00    -0.252 OA
ATOM     23  N   UNL     1      -0.018   1.461   0.010  0.00  0.00    -0.299 N 
ATOM     24  H   UNL     1      -0.267   4.029   0.025  0.00  0.00    +0.159 HD
ATOM     25  H   UNL     1       0.927   2.024   0.009  0.00  0.00    +0.150 HD
BRANCH  23  26
ATOM     26  C   UNL     1       0.002  -0.004   0.002  0.00  0.00    +0.111 C 
BRANCH  26  27
ATOM     27  C   UNL     1       1.451  -0.494  -0.015  0.00  0.00    +0.061 C 
BRANCH  27  28
ATOM     28  C   UNL     1       1.472  -2.001  -0.023  0.00  0.00    -0.009 A 
ATOM     29  C   UNL     1       1.468  -2.849  -1.080  0.00  0.00    +0.011 A 
ATOM     30  C   UNL     1       1.494  -4.211  -0.847  0.00  0.00    +0.008 A 
ATOM     31  C   UNL     1       1.511  -4.659   0.432  0.00  0.00    +0.045 A 
ATOM     32  S   UNL     1       1.500  -3.133   1.358  0.00  0.00    -0.102 S 
ENDBRANCH  27  28
ENDBRANCH  26  27
ENDBRANCH  23  26
ENDBRANCH  17  18
ENDBRANCH   1  17
TORSDOF 8
