REMARK  Name = ZINC25611157
REMARK  10 active torsions:
REMARK  status: ('A' for Active; 'I' for Inactive)
REMARK    1  A    between atoms: C_1  and  C_2
REMARK    2  A    between atoms: C_2  and  C_3
REMARK    3  A    between atoms: C_2  and  C_4
REMARK    4  A    between atoms: C_4  and  C_6
REMARK    5  A    between atoms: C_4  and  N_16
REMARK    6  A    between atoms: C_9  and  C_12
REMARK    7  A    between atoms: C_12  and  C_13
REMARK    8  A    between atoms: C_12  and  C_14
REMARK    9  A    between atoms: C_12  and  C_15
REMARK   10  A    between atoms: C_17  and  C_19
REMARK                            x       y       z     vdW  Elec       q    Type
REMARK                         _______ _______ _______ _____ _____    ______ ____
ROOT
ATOM      1  N   UNL     1       3.626   1.801  -0.124  0.00  0.00    -0.304 N 
ATOM      2  C   UNL     1       2.482   1.098  -0.015  0.00  0.00    +0.251 C 
ATOM      3  O   UNL     1       2.519  -0.115   0.072  0.00  0.00    -0.270 OA
ATOM      4  H   UNL     1       3.598   2.901  -0.118  0.00  0.00    +0.150 HD
ENDROOT
BRANCH   2   5
ATOM      5  C   UNL     1       1.190   1.795  -0.002  0.00  0.00    +0.119 A 
ATOM      6  C   UNL     1      -0.013   1.076  -0.011  0.00  0.00    +0.131 A 
ATOM      7  N   UNL     1      -1.161   1.720  -0.005  0.00  0.00    -0.237 NA
ATOM      8  C   UNL     1      -1.217   3.055   0.022  0.00  0.00    +0.140 A 
ATOM      9  C   UNL     1      -2.470   3.689   0.035  0.00  0.00    +0.047 A 
ATOM     10  C   UNL     1      -2.534   5.052   0.057  0.00  0.00    +0.005 A 
ATOM     11  C   UNL     1      -1.349   5.798   0.068  0.00  0.00    +0.018 A 
ATOM     12  C   UNL     1      -0.151   5.169   0.054  0.00  0.00    +0.096 A 
ATOM     13  N   UNL     1      -0.079   3.810   0.033  0.00  0.00    -0.268 N 
ATOM     14  C   UNL     1       1.131   3.209   0.021  0.00  0.00    +0.270 A 
ATOM     15  O   UNL     1       2.154   3.873   0.029  0.00  0.00    -0.266 OA
ENDBRANCH   2   5
BRANCH   1  16
ATOM     16  C   UNL     1       4.907   1.101  -0.250  0.00  0.00    +0.106 C 
BRANCH  16  17
ATOM     17  C   UNL     1       6.016   1.991   0.248  0.00  0.00    -0.027 A 
ATOM     18  C   UNL     1       6.004   3.341  -0.046  0.00  0.00    +0.006 A 
ATOM     19  C   UNL     1       7.020   4.158   0.415  0.00  0.00    +0.004 A 
ATOM     20  C   UNL     1       8.053   3.623   1.162  0.00  0.00    -0.042 A 
ATOM     21  C   UNL     1       8.068   2.271   1.451  0.00  0.00    +0.004 A 
ATOM     22  C   UNL     1       7.050   1.455   0.994  0.00  0.00    +0.006 A 
BRANCH  20  23
ATOM     23  C   UNL     1       9.162   4.512   1.660  0.00  0.00    -0.013 C 
ATOM     24  C   UNL     1      10.498   4.028   1.093  0.00  0.00    +0.015 C 
ATOM     25  C   UNL     1       8.906   5.950   1.205  0.00  0.00    +0.015 C 
ATOM     26  C   UNL     1       9.209   4.462   3.189  0.00  0.00    +0.015 C 
ENDBRANCH  20  23
ENDBRANCH  16  17
BRANCH  16  28
ATOM     27  C   UNL     1       5.315   2.038  -2.530  0.00  0.00    +0.009 C 
ATOM     28  C   UNL     1       5.154   0.751  -1.719  0.00  0.00    +0.008 C 
ATOM     29  C   UNL     1       6.429  -0.088  -1.835  0.00  0.00    +0.009 C 
ENDBRANCH  16  28
ENDBRANCH   1  16
TORSDOF 5
