REMARK  Name = ZINC01440781
REMARK  7 active torsions:
REMARK  status: ('A' for Active; 'I' for Inactive)
REMARK    1  A    between atoms: C_1  and  N_2
REMARK    2  A    between atoms: N_2  and  C_3
REMARK    3  A    between atoms: N_2  and  N_4
REMARK    4  A    between atoms: C_7  and  C_14
REMARK    5  A    between atoms: C_9  and  C_12
REMARK    6  A    between atoms: C_10  and  N_11
REMARK    7  A    between atoms: C_27  and  C_30
REMARK                            x       y       z     vdW  Elec       q    Type
REMARK                         _______ _______ _______ _____ _____    ______ ____
ROOT
ATOM      1  N   UNL     1      -1.246  -0.584  -0.045  0.00  0.00    -0.223 N 
ATOM      2  C   UNL     1      -1.415  -1.424  -1.112  0.00  0.00    +0.037 C 
ATOM      3  C   UNL     1      -2.651  -1.719  -1.566  0.00  0.00    +0.026 C 
ATOM      4  C   UNL     1      -3.877  -1.133  -0.913  0.00  0.00    +0.098 C 
ATOM      5  C   UNL     1      -3.561  -0.603   0.454  0.00  0.00    +0.078 C 
ATOM      6  C   UNL     1      -2.278  -0.353   0.833  0.00  0.00    +0.117 C 
ATOM      7  C   UNL     1      -2.834  -2.578  -2.664  0.00  0.00    +0.162 C 
ATOM      8  O   UNL     1      -3.961  -2.837  -3.037  0.00  0.00    -0.292 OA
ATOM      9  C   UNL     1      -1.660  -3.183  -3.386  0.00  0.00    +0.088 C 
ATOM     10  C   UNL     1      -0.456  -2.245  -3.251  0.00  0.00    +0.032 C 
ATOM     11  C   UNL     1      -0.187  -2.012  -1.763  0.00  0.00    +0.061 C 
ENDROOT
BRANCH   4  12
ATOM     12  C   UNL     1      -4.403  -0.009  -1.768  0.00  0.00    -0.027 A 
ATOM     13  C   UNL     1      -3.638   1.094  -1.994  0.00  0.00    +0.005 A 
ATOM     14  C   UNL     1      -4.107   2.143  -2.782  0.00  0.00    +0.001 A 
ATOM     15  C   UNL     1      -5.344   2.096  -3.348  0.00  0.00    +0.008 A 
ATOM     16  C   UNL     1      -6.162   0.973  -3.137  0.00  0.00    -0.018 A 
ATOM     17  C   UNL     1      -5.683  -0.097  -2.341  0.00  0.00    -0.014 A 
ATOM     18  C   UNL     1      -6.499  -1.222  -2.135  0.00  0.00    +0.009 A 
ATOM     19  C   UNL     1      -7.733  -1.272  -2.706  0.00  0.00    +0.001 A 
ATOM     20  C   UNL     1      -8.203  -0.223  -3.495  0.00  0.00    +0.001 A 
ATOM     21  C   UNL     1      -7.446   0.888  -3.705  0.00  0.00    +0.008 A 
ENDBRANCH   4  12
BRANCH  10  22
ATOM     22  C   UNL     1       0.751  -2.875  -3.896  0.00  0.00    -0.044 A 
ATOM     23  C   UNL     1       1.221  -4.093  -3.441  0.00  0.00    +0.004 A 
ATOM     24  C   UNL     1       2.329  -4.671  -4.033  0.00  0.00    +0.000 A 
ATOM     25  C   UNL     1       2.966  -4.032  -5.080  0.00  0.00    +0.000 A 
ATOM     26  C   UNL     1       2.495  -2.814  -5.535  0.00  0.00    +0.000 A 
ATOM     27  C   UNL     1       1.385  -2.238  -4.947  0.00  0.00    +0.004 A 
ENDBRANCH  10  22
BRANCH   1  29
ATOM     28  C   UNL     1       0.992  -0.955   0.520  0.00  0.00    +0.128 C 
ATOM     29  N   UNL     1      -0.039   0.025   0.153  0.00  0.00    -0.227 NA
ATOM     30  C   UNL     1       0.363   0.794  -1.032  0.00  0.00    +0.128 C 
ENDBRANCH   1  29
BRANCH   6  31
ATOM     31  N   UNL     1      -2.014   0.135   2.090  0.00  0.00    -0.344 N 
ATOM     32  H   UNL     1      -1.109   0.387   2.332  0.00  0.00    +0.144 HD
ATOM     33  H   UNL     1      -2.732   0.227   2.735  0.00  0.00    +0.144 HD
ENDBRANCH   6  31
BRANCH   5  34
ATOM     34  C   UNL     1      -4.627  -0.361   1.380  0.00  0.00    +0.099 C 
ATOM     35  N   UNL     1      -5.472  -0.169   2.114  0.00  0.00    -0.191 NA
ENDBRANCH   5  34
TORSDOF 5
