REMARK  Name = ZINC05034544
REMARK  8 active torsions:
REMARK  status: ('A' for Active; 'I' for Inactive)
REMARK    1  A    between atoms: C_1  and  C_2
REMARK    2  A    between atoms: C_2  and  O_3
REMARK    3  A    between atoms: O_3  and  C_4
REMARK    4  A    between atoms: C_6  and  C_11
REMARK    5  A    between atoms: C_9  and  O_10
REMARK    6  A    between atoms: N_12  and  N_13
REMARK    7  A    between atoms: C_14  and  C_16
REMARK    8  A    between atoms: C_18  and  C_22
REMARK                            x       y       z     vdW  Elec       q    Type
REMARK                         _______ _______ _______ _____ _____    ______ ____
ROOT
ATOM      1  N   UNL     1      -2.540   4.098   0.036  0.00  0.00    -0.202 N 
ATOM      2  C   UNL     1      -2.556   5.446   0.044  0.00  0.00    +0.281 C 
ATOM      3  O   UNL     1      -1.510   6.067   0.042  0.00  0.00    -0.267 OA
ATOM      4  H   UNL     1      -3.374   3.603   0.038  0.00  0.00    +0.178 HD
ENDROOT
BRANCH   2   5
ATOM      5  C   UNL     1      -3.839   6.166   0.054  0.00  0.00    +0.122 A 
ATOM      6  C   UNL     1      -4.021   7.538   0.062  0.00  0.00    +0.058 A 
ATOM      7  C   UNL     1      -5.405   7.727   0.069  0.00  0.00    +0.070 A 
ATOM      8  N   UNL     1      -5.971   6.547   0.065  0.00  0.00    -0.178 NA
ATOM      9  N   UNL     1      -5.089   5.615   0.051  0.00  0.00    -0.272 N 
ATOM     10  H   UNL     1      -5.286   4.634   0.039  0.00  0.00    +0.189 HD
BRANCH   7  11
ATOM     11  C   UNL     1      -6.120   9.054   0.080  0.00  0.00    +0.015 C 
ATOM     12  C   UNL     1      -5.467   9.993  -0.937  0.00  0.00    +0.016 C 
ATOM     13  C   UNL     1      -6.192  11.340  -0.926  0.00  0.00    -0.010 C 
ATOM     14  C   UNL     1      -7.663  11.131  -1.295  0.00  0.00    +0.007 C 
ATOM     15  C   UNL     1      -8.315  10.192  -0.278  0.00  0.00    -0.010 C 
ATOM     16  C   UNL     1      -7.590   8.845  -0.289  0.00  0.00    +0.016 C 
ATOM     17  C   UNL     1      -8.222  10.810   1.119  0.00  0.00    +0.007 C 
ATOM     18  C   UNL     1      -6.752  11.019   1.488  0.00  0.00    -0.010 C 
ATOM     19  C   UNL     1      -6.100  11.958   0.471  0.00  0.00    +0.007 C 
ATOM     20  C   UNL     1      -6.027   9.672   1.477  0.00  0.00    +0.016 C 
ENDBRANCH   7  11
ENDBRANCH   2   5
BRANCH   1  22
ATOM     21  C   UNL     1      -1.302   2.115   0.020  0.00  0.00    +0.138 C 
ATOM     22  N   UNL     1      -1.318   3.413   0.027  0.00  0.00    -0.187 NA
BRANCH  21  25
ATOM     23  C   UNL     1       1.210  -0.675  -0.013  0.00  0.00    +0.162 A 
ATOM     24  C   UNL     1       0.002  -0.004   0.002  0.00  0.00    +0.059 A 
ATOM     25  C   UNL     1      -0.017   1.393   0.010  0.00  0.00    -0.002 A 
ATOM     26  C   UNL     1       1.186   2.105   0.002  0.00  0.00    +0.013 A 
ATOM     27  C   UNL     1       2.387   1.428  -0.013  0.00  0.00    +0.050 A 
ATOM     28  C   UNL     1       2.405   0.041  -0.020  0.00  0.00    +0.158 A 
BRANCH  28  29
ATOM     29  O   UNL     1       3.592  -0.622  -0.035  0.00  0.00    -0.503 OA
ATOM     30  H   UNL     1       3.928  -0.808  -0.923  0.00  0.00    +0.292 HD
ENDBRANCH  28  29
BRANCH  23  31
ATOM     31  O   UNL     1       1.232  -2.035  -0.021  0.00  0.00    -0.489 OA
BRANCH  31  33
ATOM     32  C   UNL     1       0.195  -4.218  -0.022  0.00  0.00    +0.048 C 
ATOM     33  C   UNL     1      -0.030  -2.705  -0.012  0.00  0.00    +0.226 C 
ENDBRANCH  31  33
ENDBRANCH  23  31
ENDBRANCH  21  25
ENDBRANCH   1  22
TORSDOF 7
