REMARK  Name = ZINC40554253
REMARK  6 active torsions:
REMARK  status: ('A' for Active; 'I' for Inactive)
REMARK    1  A    between atoms: C_1  and  N_2
REMARK    2  A    between atoms: C_4  and  C_7
REMARK    3  A    between atoms: N_8  and  O_9
REMARK    4  A    between atoms: O_9  and  C_10
REMARK    5  A    between atoms: C_10  and  C_11
REMARK    6  A    between atoms: N_13  and  C_14
REMARK                            x       y       z     vdW  Elec       q    Type
REMARK                         _______ _______ _______ _____ _____    ______ ____
ROOT
ATOM      1  C   UNL     1       0.101  -8.006  -2.088  0.00  0.00    +0.254 C 
ATOM      2  O   UNL     1       0.093  -7.788  -3.282  0.00  0.00    -0.272 OA
ATOM      3  N   UNL     1       0.120  -9.275  -1.635  0.00  0.00    -0.307 N 
ATOM      4  H   UNL     1       0.127  -9.448  -0.680  0.00  0.00    +0.149 HD
ENDROOT
BRANCH   3   5
ATOM      5  C   UNL     1       0.131 -10.392  -2.583  0.00  0.00    +0.035 C 
ATOM      6  C   UNL     1      -1.123 -10.331  -3.457  0.00  0.00    +0.029 C 
ATOM      7  C   UNL     1      -1.111 -11.497  -4.447  0.00  0.00    -0.008 C 
ATOM      8  C   UNL     1      -1.090 -12.819  -3.677  0.00  0.00    +0.007 C 
ATOM      9  C   UNL     1       0.164 -12.880  -2.803  0.00  0.00    -0.008 C 
ATOM     10  C   UNL     1       0.153 -11.714  -1.813  0.00  0.00    +0.029 C 
ATOM     11  C   UNL     1       1.408 -12.785  -3.688  0.00  0.00    +0.007 C 
ATOM     12  C   UNL     1       1.387 -11.463  -4.458  0.00  0.00    -0.008 C 
ATOM     13  C   UNL     1       0.133 -11.402  -5.332  0.00  0.00    +0.007 C 
ATOM     14  C   UNL     1       1.375 -10.297  -3.468  0.00  0.00    +0.029 C 
ENDBRANCH   3   5
BRANCH   1  15
ATOM     15  C   UNL     1       0.090  -6.857  -1.113  0.00  0.00    +0.358 C 
BRANCH  15  16
ATOM     16  O   UNL     1       0.070  -5.622  -1.832  0.00  0.00    -0.383 OA
BRANCH  16  18
ATOM     17  C   UNL     1       0.040  -3.287  -1.538  0.00  0.00    +0.166 C 
ATOM     18  N   UNL     1       0.058  -4.474  -1.004  0.00  0.00    -0.068 NA
ATOM     19  N   UNL     1       0.032  -3.147  -2.915  0.00  0.00    -0.340 N 
ATOM     20  H   UNL     1       0.018  -2.262  -3.312  0.00  0.00    +0.144 HD
ATOM     21  H   UNL     1       0.040  -3.934  -3.482  0.00  0.00    +0.144 HD
BRANCH  17  25
ATOM     22  C   UNL     1      -0.018   1.461   0.010  0.00  0.00    +0.172 C 
ATOM     23  N   UNL     1       0.002  -0.004   0.002  0.00  0.00    -0.274 N 
ATOM     24  C   UNL     1       0.008  -0.786  -1.093  0.00  0.00    +0.119 A 
ATOM     25  C   UNL     1       0.027  -2.087  -0.672  0.00  0.00    +0.055 A 
ATOM     26  C   UNL     1       0.034  -2.075   0.738  0.00  0.00    +0.145 A 
ATOM     27  N   UNL     1       0.025  -0.830   1.132  0.00  0.00    -0.179 NA
ENDBRANCH  17  25
ENDBRANCH  16  18
ENDBRANCH  15  16
ENDBRANCH   1  15
TORSDOF 5
