REMARK  Name = ZINC53044405
REMARK  7 active torsions:
REMARK  status: ('A' for Active; 'I' for Inactive)
REMARK    1  A    between atoms: C_1  and  C_2
REMARK    2  A    between atoms: C_5  and  S_9
REMARK    3  A    between atoms: C_6  and  N_8
REMARK    4  A    between atoms: S_9  and  N_12
REMARK    5  A    between atoms: N_12  and  C_13
REMARK    6  A    between atoms: C_13  and  C_18
REMARK    7  A    between atoms: C_18  and  O_19
REMARK                            x       y       z     vdW  Elec       q    Type
REMARK                         _______ _______ _______ _____ _____    ______ ____
ROOT
ATOM      1  S   UNL     1       0.365  -5.262  -0.297  0.00  0.00    +0.061 S 
ATOM      2  O   UNL     1       0.829  -5.692  -1.570  0.00  0.00    -0.153 OA
ATOM      3  O   UNL     1      -0.330  -4.037  -0.114  0.00  0.00    -0.153 OA
ENDROOT
BRANCH   1   8
ATOM      4  C   UNL     1      -3.259  -9.621   1.783  0.00  0.00    +0.044 C 
ATOM      5  C   UNL     1      -2.352  -8.536   1.264  0.00  0.00    -0.049 A 
ATOM      6  C   UNL     1      -2.804  -7.231   1.196  0.00  0.00    +0.005 A 
ATOM      7  C   UNL     1      -1.975  -6.232   0.719  0.00  0.00    +0.030 A 
ATOM      8  C   UNL     1      -0.691  -6.535   0.310  0.00  0.00    +0.126 A 
ATOM      9  C   UNL     1      -0.233  -7.845   0.377  0.00  0.00    +0.051 A 
ATOM     10  C   UNL     1      -1.067  -8.845   0.862  0.00  0.00    +0.028 A 
BRANCH   9  11
ATOM     11  N   UNL     1       1.065  -8.155  -0.035  0.00  0.00    -0.356 N 
ATOM     12  H   UNL     1       1.687  -7.444  -0.253  0.00  0.00    +0.142 HD
ATOM     13  H   UNL     1       1.343  -9.082  -0.104  0.00  0.00    +0.142 HD
ENDBRANCH   9  11
ENDBRANCH   1   8
BRANCH   1  14
ATOM     14  N   UNL     1       1.689  -5.209   0.696  0.00  0.00    -0.182 NA
ATOM     15  H   UNL     1       2.516  -5.638   0.424  0.00  0.00    +0.149 HD
BRANCH  14  16
ATOM     16  C   UNL     1       1.612  -4.515   1.983  0.00  0.00    +0.063 C 
ATOM     17  C   UNL     1       1.461  -2.989   1.768  0.00  0.00    +0.026 C 
ATOM     18  C   UNL     1       2.916  -2.537   1.490  0.00  0.00    +0.002 C 
ATOM     19  C   UNL     1       3.769  -3.401   2.441  0.00  0.00    +0.002 C 
ATOM     20  C   UNL     1       2.940  -4.659   2.755  0.00  0.00    +0.026 C 
BRANCH  16  21
ATOM     21  C   UNL     1       0.448  -5.059   2.814  0.00  0.00    +0.179 C 
BRANCH  21  22
ATOM     22  O   UNL     1      -0.789  -4.706   2.191  0.00  0.00    -0.393 OA
ATOM     23  H   UNL     1      -1.571  -5.019   2.664  0.00  0.00    +0.209 HD
ENDBRANCH  21  22
ENDBRANCH  16  21
ENDBRANCH  14  16
ENDBRANCH   1  14
TORSDOF 6
