REMARK  Name = ZINC38772300
REMARK  10 active torsions:
REMARK  status: ('A' for Active; 'I' for Inactive)
REMARK    1  A    between atoms: C_1  and  C_2
REMARK    2  A    between atoms: C_6  and  O_9
REMARK    3  A    between atoms: C_7  and  C_8
REMARK    4  A    between atoms: O_9  and  C_10
REMARK    5  A    between atoms: C_10  and  C_12
REMARK    6  A    between atoms: C_10  and  C_13
REMARK    7  A    between atoms: N_15  and  C_16
REMARK    8  A    between atoms: C_17  and  C_25
REMARK    9  A    between atoms: C_25  and  O_27
REMARK   10  A    between atoms: O_27  and  C_28
REMARK                            x       y       z     vdW  Elec       q    Type
REMARK                         _______ _______ _______ _____ _____    ______ ____
ROOT
ATOM      1  C   UNL     1       0.582  -4.814   3.503  0.00  0.00    +0.258 C 
ATOM      2  O   UNL     1       0.977  -4.104   4.403  0.00  0.00    -0.271 OA
ATOM      3  N   UNL     1       0.701  -6.153   3.599  0.00  0.00    -0.276 N 
ATOM      4  H   UNL     1       0.385  -6.721   2.879  0.00  0.00    +0.155 HD
ENDROOT
BRANCH   3   5
ATOM      5  C   UNL     1       1.274  -6.719   4.726  0.00  0.00    +0.086 A 
ATOM      6  C   UNL     1       1.483  -8.064   4.994  0.00  0.00    +0.091 A 
ATOM      7  C   UNL     1       2.110  -8.399   6.261  0.00  0.00    -0.021 A 
ATOM      8  C   UNL     1       2.413  -7.330   7.027  0.00  0.00    -0.004 A 
ATOM      9  S   UNL     1       1.884  -5.933   6.080  0.00  0.00    -0.077 S 
ATOM     10  C   UNL     1       3.059  -7.346   8.378  0.00  0.00    +0.043 C 
ATOM     11  C   UNL     1       2.986  -8.776   8.931  0.00  0.00    +0.005 C 
ATOM     12  C   UNL     1       3.453  -9.752   7.847  0.00  0.00    +0.005 C 
ATOM     13  C   UNL     1       2.417  -9.816   6.723  0.00  0.00    +0.037 C 
BRANCH   6  14
ATOM     14  C   UNL     1       1.087  -9.102   4.040  0.00  0.00    +0.342 C 
ATOM     15  O   UNL     1       1.871  -9.477   3.189  0.00  0.00    -0.245 OA
BRANCH  14  16
ATOM     16  O   UNL     1      -0.147  -9.642   4.105  0.00  0.00    -0.464 OA
ATOM     17  C   UNL     1      -0.466 -10.650   3.143  0.00  0.00    +0.280 C 
ENDBRANCH  14  16
ENDBRANCH   6  14
ENDBRANCH   3   5
BRANCH   1  18
ATOM     18  C   UNL     1      -0.043  -4.199   2.277  0.00  0.00    +0.256 C 
ATOM     19  C   UNL     1      -1.514  -4.611   2.192  0.00  0.00    +0.062 C 
BRANCH  18  20
ATOM     20  O   UNL     1       0.050  -2.776   2.358  0.00  0.00    -0.480 OA
BRANCH  20  26
ATOM     21  C   UNL     1       0.438   1.473  -0.013  0.00  0.00    +0.044 C 
ATOM     22  C   UNL     1       0.221  -0.018  -0.009  0.00  0.00    -0.044 A 
ATOM     23  C   UNL     1       0.006  -0.688  -1.200  0.00  0.00    +0.004 A 
ATOM     24  C   UNL     1      -0.194  -2.056  -1.200  0.00  0.00    +0.004 A 
ATOM     25  C   UNL     1      -0.179  -2.757  -0.009  0.00  0.00    +0.046 A 
ATOM     26  C   UNL     1       0.036  -2.088   1.186  0.00  0.00    +0.125 A 
ATOM     27  C   UNL     1       0.242  -0.716   1.183  0.00  0.00    -0.006 A 
ATOM     28  C   UNL     1       0.482   0.014   2.479  0.00  0.00    +0.048 C 
ENDBRANCH  20  26
ENDBRANCH  18  20
ENDBRANCH   1  18
TORSDOF 6
