REMARK  Name = ZINC10032539
REMARK  6 active torsions:
REMARK  status: ('A' for Active; 'I' for Inactive)
REMARK    1  A    between atoms: C_1  and  C_2
REMARK    2  A    between atoms: C_2  and  O_3
REMARK    3  A    between atoms: O_3  and  C_4
REMARK    4  A    between atoms: C_6  and  C_12
REMARK    5  A    between atoms: C_9  and  O_10
REMARK    6  A    between atoms: C_13  and  C_14
REMARK                            x       y       z     vdW  Elec       q    Type
REMARK                         _______ _______ _______ _____ _____    ______ ____
ROOT
ATOM      1  C   UNL     1      -0.658  -7.192  -1.356  0.00  0.00    +0.135 A 
ATOM      2  N   UNL     1      -0.545  -8.549  -1.193  0.00  0.00    -0.307 N 
ATOM      3  H   UNL     1      -0.088  -8.899  -0.413  0.00  0.00    +0.170 HD
ATOM      4  C   UNL     1      -1.058  -9.404  -2.098  0.00  0.00    +0.260 A 
ATOM      5  O   UNL     1      -0.951 -10.608  -1.940  0.00  0.00    -0.267 OA
ATOM      6  C   UNL     1      -1.732  -8.879  -3.248  0.00  0.00    +0.075 A 
ATOM      7  C   UNL     1      -2.357  -9.617  -4.345  0.00  0.00    -0.023 A 
ATOM      8  C   UNL     1      -2.934  -8.887  -5.324  0.00  0.00    -0.004 A 
ATOM      9  S   UNL     1      -2.684  -7.198  -4.848  0.00  0.00    -0.073 S 
ATOM     10  C   UNL     1      -1.801  -7.477  -3.333  0.00  0.00    +0.116 A 
ATOM     11  N   UNL     1      -1.280  -6.686  -2.406  0.00  0.00    -0.222 NA
ATOM     12  C   UNL     1      -3.633  -9.400  -6.546  0.00  0.00    +0.043 C 
ATOM     13  C   UNL     1      -3.276 -10.883  -6.721  0.00  0.00    +0.005 C 
ATOM     14  C   UNL     1      -3.455 -11.593  -5.376  0.00  0.00    +0.005 C 
ATOM     15  C   UNL     1      -2.367 -11.142  -4.401  0.00  0.00    +0.037 C 
ENDROOT
BRANCH   1  17
ATOM     16  C   UNL     1      -0.198  -4.958  -0.502  0.00  0.00    +0.011 C 
ATOM     17  C   UNL     1      -0.087  -6.294  -0.352  0.00  0.00    +0.047 C 
BRANCH  16  20
ATOM     18  C   UNL     1       0.802  -1.825   1.306  0.00  0.00    +0.163 A 
ATOM     19  C   UNL     1       0.262  -2.669   0.354  0.00  0.00    +0.057 A 
ATOM     20  C   UNL     1       0.376  -4.055   0.507  0.00  0.00    -0.020 A 
ATOM     21  C   UNL     1       1.037  -4.579   1.623  0.00  0.00    +0.027 A 
ATOM     22  C   UNL     1       1.573  -3.731   2.568  0.00  0.00    +0.063 A 
ATOM     23  C   UNL     1       1.464  -2.355   2.412  0.00  0.00    +0.173 A 
ATOM     24 BR   UNL     1       2.466  -4.441   4.076  0.00  0.00    -0.046 Br
BRANCH  23  25
ATOM     25  O   UNL     1       1.999  -1.523   3.344  0.00  0.00    -0.503 OA
ATOM     26  H   UNL     1       1.393  -1.295   4.062  0.00  0.00    +0.292 HD
ENDBRANCH  23  25
BRANCH  18  27
ATOM     27  O   UNL     1       0.693  -0.477   1.160  0.00  0.00    -0.489 OA
BRANCH  27  29
ATOM     28  C   UNL     1      -0.019   1.526   0.010  0.00  0.00    +0.048 C 
ATOM     29  C   UNL     1       0.002  -0.004   0.002  0.00  0.00    +0.226 C 
ENDBRANCH  27  29
ENDBRANCH  18  27
ENDBRANCH  16  20
ENDBRANCH   1  17
TORSDOF 5
