REMARK  Name = ZINC28289698
REMARK  7 active torsions:
REMARK  status: ('A' for Active; 'I' for Inactive)
REMARK    1  A    between atoms: C_1  and  C_2
REMARK    2  A    between atoms: C_6  and  C_30
REMARK    3  A    between atoms: C_7  and  C_11
REMARK    4  A    between atoms: N_13  and  C_14
REMARK    5  A    between atoms: C_14  and  C_15
REMARK    6  A    between atoms: C_15  and  C_17
REMARK    7  A    between atoms: C_15  and  N_24
REMARK                            x       y       z     vdW  Elec       q    Type
REMARK                         _______ _______ _______ _____ _____    ______ ____
ROOT
ATOM      1  C   UNL     1      -6.860   1.038   0.053  0.00  0.00    +0.094 C 
ENDROOT
BRANCH   1   4
ATOM      2  C   UNL     1      -6.949   2.968   1.538  0.00  0.00    +0.280 C 
ATOM      3  O   UNL     1      -6.381   3.617   0.680  0.00  0.00    -0.267 OA
ATOM      4  N   UNL     1      -7.234   1.668   1.322  0.00  0.00    -0.310 N 
ATOM      5  H   UNL     1      -7.747   1.081   2.097  0.00  0.00    +0.149 HD
BRANCH   2  12
ATOM      6  C   UNL     1      -9.450   4.607   8.317  0.00  0.00    +0.044 C 
ATOM      7  C   UNL     1      -8.808   4.766   6.963  0.00  0.00    -0.047 A 
ATOM      8  C   UNL     1      -8.284   5.997   6.592  0.00  0.00    +0.004 A 
ATOM      9  C   UNL     1      -7.699   6.159   5.368  0.00  0.00    +0.012 A 
ATOM     10  C   UNL     1      -7.627   5.079   4.486  0.00  0.00    +0.024 A 
ATOM     11  C   UNL     1      -7.088   4.897   3.138  0.00  0.00    +0.008 A 
ATOM     12  C   UNL     1      -7.324   3.600   2.811  0.00  0.00    +0.193 A 
ATOM     13  O   UNL     1      -7.953   2.980   3.830  0.00  0.00    -0.450 OA
ATOM     14  C   UNL     1      -8.152   3.827   4.859  0.00  0.00    +0.136 A 
ATOM     15  C   UNL     1      -8.748   3.687   6.107  0.00  0.00    +0.050 A 
ATOM     16  C   UNL     1      -6.409   5.938   2.286  0.00  0.00    +0.048 C 
ENDBRANCH   2  12
ENDBRANCH   1   4
BRANCH   1  17
ATOM     17  C   UNL     1      -7.198  -0.453   0.105  0.00  0.00    -0.019 C 
BRANCH  17  18
ATOM     18  C   UNL     1      -8.693  -0.627   0.189  0.00  0.00    -0.041 A 
ATOM     19  C   UNL     1      -9.303  -0.782   1.419  0.00  0.00    +0.003 A 
ATOM     20  C   UNL     1     -10.674  -0.942   1.496  0.00  0.00    +0.000 A 
ATOM     21  C   UNL     1     -11.435  -0.945   0.342  0.00  0.00    +0.001 A 
ATOM     22  C   UNL     1     -10.826  -0.789  -0.889  0.00  0.00    +0.020 A 
ATOM     23  C   UNL     1      -9.454  -0.625  -0.966  0.00  0.00    +0.043 A 
ATOM     24 CL   UNL     1      -8.689  -0.422  -2.511  0.00  0.00    -0.083 Cl
ENDBRANCH  17  18
BRANCH  17  25
ATOM     25  N   UNL     1      -6.568  -1.057   1.288  0.00  0.00    +0.385 N 
ATOM     26  C   UNL     1      -5.147  -0.696   1.369  0.00  0.00    -0.078 C 
ATOM     27  C   UNL     1      -4.561  -1.219   2.683  0.00  0.00    -0.019 C 
ATOM     28  C   UNL     1      -4.725  -2.740   2.739  0.00  0.00    -0.004 C 
ATOM     29  C   UNL     1      -6.209  -3.091   2.604  0.00  0.00    -0.019 C 
ATOM     30  C   UNL     1      -6.747  -2.514   1.293  0.00  0.00    -0.078 C 
ATOM     31  H   UNL     1      -7.068  -0.654   2.181  0.00  0.00    -0.081 HD
ENDBRANCH  17  25
ENDBRANCH   1  17
TORSDOF 5
