REMARK  Name = ZINC02249843
REMARK  8 active torsions:
REMARK  status: ('A' for Active; 'I' for Inactive)
REMARK    1  A    between atoms: C_1  and  C_2
REMARK    2  A    between atoms: C_2  and  C_3
REMARK    3  A    between atoms: C_2  and  C_4
REMARK    4  A    between atoms: C_4  and  N_5
REMARK    5  A    between atoms: C_6  and  C_8
REMARK    6  A    between atoms: N_19  and  C_22
REMARK    7  A    between atoms: C_20  and  N_21
REMARK    8  A    between atoms: C_22  and  C_23
REMARK                            x       y       z     vdW  Elec       q    Type
REMARK                         _______ _______ _______ _____ _____    ______ ____
ROOT
ATOM      1  C   UNL     1      -0.729  -1.228   3.384  0.00  0.00    +0.103 A 
ATOM      2  C   UNL     1       0.742  -1.228   3.426  0.00  0.00    +0.122 A 
ATOM      3  C   UNL     1       1.168  -0.755   2.106  0.00  0.00    +0.162 A 
ATOM      4  N   UNL     1       2.452  -0.639   1.843  0.00  0.00    -0.226 NA
ATOM      5  C   UNL     1       3.356  -0.965   2.776  0.00  0.00    +0.092 A 
ATOM      6  C   UNL     1       4.731  -0.851   2.501  0.00  0.00    +0.030 A 
ATOM      7  C   UNL     1       5.642  -1.183   3.454  0.00  0.00    +0.002 A 
ATOM      8  C   UNL     1       5.235  -1.639   4.707  0.00  0.00    +0.002 A 
ATOM      9  C   UNL     1       3.915  -1.763   5.010  0.00  0.00    +0.030 A 
ATOM     10  C   UNL     1       2.942  -1.428   4.050  0.00  0.00    +0.090 A 
ATOM     11  N   UNL     1       1.640  -1.546   4.337  0.00  0.00    -0.241 NA
ATOM     12  N   UNL     1       0.022  -0.500   1.381  0.00  0.00    -0.308 N 
ATOM     13  C   UNL     1      -1.087  -0.777   2.118  0.00  0.00    +0.113 A 
ENDROOT
BRANCH   1  15
ATOM     14  N   UNL     1      -2.063  -0.709   5.351  0.00  0.00    -0.311 N 
ATOM     15  C   UNL     1      -1.634  -1.625   4.460  0.00  0.00    +0.250 C 
ATOM     16  O   UNL     1      -2.001  -2.782   4.552  0.00  0.00    -0.270 OA
ATOM     17  H   UNL     1      -1.771   0.213   5.279  0.00  0.00    +0.149 HD
BRANCH  14  18
ATOM     18  C   UNL     1      -2.971  -1.107   6.431  0.00  0.00    +0.107 C 
BRANCH  18  20
ATOM     19  C   UNL     1      -4.083   1.130   6.462  0.00  0.00    +0.009 C 
ATOM     20  C   UNL     1      -3.301   0.112   7.294  0.00  0.00    -0.000 C 
ATOM     21  C   UNL     1      -4.147  -0.325   8.492  0.00  0.00    +0.009 C 
ENDBRANCH  18  20
ENDBRANCH  14  18
ENDBRANCH   1  15
BRANCH  13  22
ATOM     22  N   UNL     1      -2.377  -0.631   1.677  0.00  0.00    -0.344 N 
ATOM     23  H   UNL     1      -2.548  -0.310   0.778  0.00  0.00    +0.144 HD
ATOM     24  H   UNL     1      -3.118  -0.850   2.263  0.00  0.00    +0.144 HD
ENDBRANCH  13  22
BRANCH  12  25
ATOM     25  C   UNL     1       0.002  -0.004   0.002  0.00  0.00    +0.160 C 
BRANCH  25  26
ATOM     26  C   UNL     1      -0.018   1.503   0.010  0.00  0.00    -0.027 A 
ATOM     27  C   UNL     1      -1.225   2.177   0.020  0.00  0.00    +0.008 A 
ATOM     28  C   UNL     1      -1.245   3.559   0.032  0.00  0.00    +0.038 A 
ATOM     29  C   UNL     1      -0.056   4.268   0.025  0.00  0.00    +0.123 A 
ATOM     30  C   UNL     1       1.152   3.591   0.010  0.00  0.00    +0.038 A 
ATOM     31  C   UNL     1       1.170   2.210   0.003  0.00  0.00    +0.008 A 
ATOM     32  F   UNL     1      -0.074   5.619   0.032  0.00  0.00    -0.205 F 
ENDBRANCH  25  26
ENDBRANCH  12  25
TORSDOF 6
