REMARK  Name = ZINC15465932
REMARK  7 active torsions:
REMARK  status: ('A' for Active; 'I' for Inactive)
REMARK    1  A    between atoms: C_1  and  C_2
REMARK    2  A    between atoms: C_5  and  N_9
REMARK    3  A    between atoms: C_6  and  C_8
REMARK    4  A    between atoms: C_11  and  C_16
REMARK    5  A    between atoms: N_18  and  C_19
REMARK    6  A    between atoms: C_23  and  N_26
REMARK    7  A    between atoms: C_24  and  C_25
REMARK                            x       y       z     vdW  Elec       q    Type
REMARK                         _______ _______ _______ _____ _____    ______ ____
ROOT
ATOM      1  N   UNL     1      -1.948   7.258   1.459  0.00  0.00    -0.270 N 
ATOM      2  C   UNL     1      -1.966   6.120   0.532  0.00  0.00    +0.127 C 
ATOM      3  C   UNL     1      -0.483   5.748   0.307  0.00  0.00    +0.102 C 
ATOM      4  C   UNL     1       0.174   6.271   1.605  0.00  0.00    +0.110 C 
ATOM      5  C   UNL     1      -0.760   7.363   2.080  0.00  0.00    +0.221 C 
ATOM      6  O   UNL     1      -0.477   8.210   2.901  0.00  0.00    -0.275 OA
ENDROOT
BRANCH   1  11
ATOM      7  C   UNL     1      -6.328  10.760   2.316  0.00  0.00    +0.044 C 
ATOM      8  C   UNL     1      -5.164   9.829   2.089  0.00  0.00    -0.050 A 
ATOM      9  C   UNL     1      -5.027   8.693   2.864  0.00  0.00    +0.005 A 
ATOM     10  C   UNL     1      -3.966   7.835   2.654  0.00  0.00    +0.024 A 
ATOM     11  C   UNL     1      -3.028   8.121   1.671  0.00  0.00    +0.039 A 
ATOM     12  C   UNL     1      -3.168   9.263   0.893  0.00  0.00    -0.029 A 
ATOM     13  C   UNL     1      -4.236  10.114   1.104  0.00  0.00    +0.008 A 
ATOM     14  C   UNL     1      -2.156   9.574  -0.180  0.00  0.00    +0.045 C 
ENDBRANCH   1  11
BRANCH   3  15
ATOM     15  C   UNL     1      -0.315   4.256   0.180  0.00  0.00    +0.222 C 
ATOM     16  O   UNL     1      -1.281   3.528   0.259  0.00  0.00    -0.275 OA
ATOM     17  N   UNL     1       0.910   3.731  -0.022  0.00  0.00    -0.285 N 
ATOM     18  H   UNL     1       1.675   4.316  -0.142  0.00  0.00    +0.155 HD
BRANCH  17  19
ATOM     19  C   UNL     1       1.079   2.343  -0.057  0.00  0.00    +0.038 A 
ATOM     20  C   UNL     1       0.082   1.534  -0.587  0.00  0.00    +0.024 A 
ATOM     21  C   UNL     1       0.252   0.164  -0.622  0.00  0.00    +0.004 A 
ATOM     22  C   UNL     1       1.413  -0.403  -0.128  0.00  0.00    +0.033 A 
ATOM     23  C   UNL     1       2.407   0.399   0.400  0.00  0.00    +0.131 A 
ATOM     24  C   UNL     1       2.244   1.770   0.437  0.00  0.00    +0.001 A 
ATOM     25  C   UNL     1       3.328   2.644   1.013  0.00  0.00    +0.048 C 
BRANCH  23  26
ATOM     26  N   UNL     1       3.648  -0.211   0.926  0.00  0.00    +0.057 N 
ATOM     27  O   UNL     1       4.717   0.351   0.771  0.00  0.00    -0.126 OA
ATOM     28  O   UNL     1       3.601  -1.277   1.514  0.00  0.00    -0.126 OA
ENDBRANCH  23  26
ENDBRANCH  17  19
ENDBRANCH   3  15
TORSDOF 4
