REMARK  Name = ZINC26044859
REMARK  5 active torsions:
REMARK  status: ('A' for Active; 'I' for Inactive)
REMARK    1  A    between atoms: C_3  and  N_22
REMARK    2  A    between atoms: C_6  and  C_7
REMARK    3  A    between atoms: C_7  and  O_9
REMARK    4  A    between atoms: O_9  and  C_10
REMARK    5  A    between atoms: C_10  and  C_11
REMARK                            x       y       z     vdW  Elec       q    Type
REMARK                         _______ _______ _______ _____ _____    ______ ____
ROOT
ATOM      1  C   UNL     1       3.762  -3.036   5.907  0.00  0.00    +0.339 C 
ATOM      2  O   UNL     1       4.703  -3.748   5.617  0.00  0.00    -0.245 OA
ENDROOT
BRANCH   1   8
ATOM      3  C   UNL     1       2.233  -2.122   7.646  0.00  0.00    +0.017 A 
ATOM      4  C   UNL     1       1.812  -2.044   8.954  0.00  0.00    +0.024 A 
ATOM      5  C   UNL     1       2.465  -2.774   9.941  0.00  0.00    +0.035 A 
ATOM      6  C   UNL     1       3.542  -3.591   9.610  0.00  0.00    +0.024 A 
ATOM      7  C   UNL     1       3.965  -3.679   8.303  0.00  0.00    +0.017 A 
ATOM      8  C   UNL     1       3.312  -2.946   7.308  0.00  0.00    +0.059 A 
BRANCH   5   9
ATOM      9  N   UNL     1       2.039  -2.688  11.266  0.00  0.00    -0.270 N 
ATOM     10  C   UNL     1       2.935  -2.778  12.269  0.00  0.00    +0.301 C 
ATOM     11  O   UNL     1       4.123  -2.836  12.019  0.00  0.00    -0.253 OA
ATOM     12  N   UNL     1       2.513  -2.803  13.549  0.00  0.00    -0.313 N 
ATOM     13  H   UNL     1       0.972  -2.547  11.493  0.00  0.00    +0.156 HD
ATOM     14  H   UNL     1       3.244  -2.876  14.368  0.00  0.00    +0.146 HD
ATOM     15  H   UNL     1       1.438  -2.750  13.775  0.00  0.00    +0.146 HD
ENDBRANCH   5   9
ENDBRANCH   1   8
BRANCH   1  16
ATOM     16  O   UNL     1       3.131  -2.329   4.949  0.00  0.00    -0.456 OA
BRANCH  16  17
ATOM     17  C   UNL     1       3.629  -2.467   3.592  0.00  0.00    +0.268 C 
BRANCH  17  18
ATOM     18  C   UNL     1       2.806  -1.609   2.666  0.00  0.00    -0.005 A 
ATOM     19  C   UNL     1       3.180  -0.301   2.424  0.00  0.00    +0.056 A 
ATOM     20  C   UNL     1       2.425   0.491   1.571  0.00  0.00    +0.164 A 
ATOM     21  C   UNL     1       1.294  -0.035   0.959  0.00  0.00    +0.180 A 
ATOM     22  C   UNL     1       0.923  -1.349   1.207  0.00  0.00    +0.087 A 
ATOM     23  C   UNL     1       1.680  -2.133   2.059  0.00  0.00    +0.031 A 
ATOM     24 CL   UNL     1      -0.490  -2.010   0.447  0.00  0.00    -0.080 Cl
ATOM     25  O   UNL     1       0.542   0.724   0.115  0.00  0.00    -0.483 OA
ATOM     26  C   UNL     1       0.730   2.141   0.183  0.00  0.00    +0.270 C 
ATOM     27  C   UNL     1       2.238   2.426   0.201  0.00  0.00    +0.270 C 
ATOM     28  O   UNL     1       2.803   1.780   1.347  0.00  0.00    -0.485 OA
ENDBRANCH  17  18
ENDBRANCH  16  17
ENDBRANCH   1  16
TORSDOF 5
