REMARK  Name = ZINC66523641
REMARK  6 active torsions:
REMARK  status: ('A' for Active; 'I' for Inactive)
REMARK    1  A    between atoms: C_1  and  C_2
REMARK    2  A    between atoms: C_2  and  C_3
REMARK    3  A    between atoms: C_3  and  C_5
REMARK    4  A    between atoms: C_3  and  N_15
REMARK    5  A    between atoms: C_16  and  C_18
REMARK    6  A    between atoms: C_19  and  C_20
REMARK                            x       y       z     vdW  Elec       q    Type
REMARK                         _______ _______ _______ _____ _____    ______ ____
ROOT
ATOM      1  N   UNL     1      -2.082  -0.162   1.273  0.00  0.00    -0.302 N 
ATOM      2  C   UNL     1      -2.664   1.047   1.400  0.00  0.00    +0.237 C 
ATOM      3  O   UNL     1      -2.651   1.830   0.468  0.00  0.00    -0.271 OA
ATOM      4  H   UNL     1      -2.092  -0.785   2.016  0.00  0.00    +0.150 HD
ENDROOT
BRANCH   2   5
ATOM      5  C   UNL     1      -3.311   1.418   2.658  0.00  0.00    +0.068 C 
ATOM      6  C   UNL     1      -3.894   2.630   2.785  0.00  0.00    +0.015 C 
BRANCH   6   7
ATOM      7  C   UNL     1      -4.544   3.003   4.048  0.00  0.00    +0.001 A 
ATOM      8  C   UNL     1      -4.561   2.121   5.124  0.00  0.00    +0.010 A 
ATOM      9  C   UNL     1      -5.175   2.474   6.317  0.00  0.00    +0.001 A 
ATOM     10  C   UNL     1      -5.779   3.684   6.481  0.00  0.00    +0.010 A 
ATOM     11  C   UNL     1      -5.799   4.623   5.437  0.00  0.00    +0.001 A 
ATOM     12  C   UNL     1      -5.181   4.311   4.202  0.00  0.00    +0.078 A 
ATOM     13  N   UNL     1      -5.191   5.197   3.208  0.00  0.00    -0.254 NA
ATOM     14  C   UNL     1      -5.762   6.371   3.347  0.00  0.00    +0.111 A 
ATOM     15  C   UNL     1      -6.383   6.746   4.535  0.00  0.00    +0.020 A 
ATOM     16  C   UNL     1      -6.418   5.878   5.590  0.00  0.00    +0.011 A 
ENDBRANCH   6   7
ENDBRANCH   2   5
BRANCH   1  17
ATOM     17  C   UNL     1      -1.433  -0.534   0.013  0.00  0.00    +0.139 C 
BRANCH  17  18
ATOM     18  C   UNL     1      -1.416  -2.035  -0.119  0.00  0.00    +0.129 A 
ATOM     19  N   UNL     1      -2.014  -2.900   0.743  0.00  0.00    -0.340 N 
ATOM     20  H   UNL     1      -2.518  -2.663   1.538  0.00  0.00    +0.167 HD
ATOM     21  C   UNL     1      -1.771  -4.177   0.279  0.00  0.00    +0.066 A 
ATOM     22  C   UNL     1      -2.115  -5.448   0.719  0.00  0.00    +0.028 A 
ATOM     23  C   UNL     1      -1.702  -6.553   0.006  0.00  0.00    +0.002 A 
ATOM     24  C   UNL     1      -0.947  -6.402  -1.149  0.00  0.00    +0.002 A 
ATOM     25  C   UNL     1      -0.599  -5.160  -1.597  0.00  0.00    +0.030 A 
ATOM     26  C   UNL     1      -1.007  -4.025  -0.890  0.00  0.00    +0.089 A 
ATOM     27  N   UNL     1      -0.831  -2.692  -1.078  0.00  0.00    -0.231 NA
ENDBRANCH  17  18
BRANCH  17  29
ATOM     28  C   UNL     1      -0.019   1.526   0.010  0.00  0.00    +0.006 C 
ATOM     29  C   UNL     1       0.002  -0.004   0.002  0.00  0.00    +0.027 C 
ENDBRANCH  17  29
ENDBRANCH   1  17
TORSDOF 5
