REMARK  Name = ZINC40370553
REMARK  9 active torsions:
REMARK  status: ('A' for Active; 'I' for Inactive)
REMARK    1  A    between atoms: C_1  and  C_2
REMARK    2  A    between atoms: C_2  and  C_3
REMARK    3  A    between atoms: C_3  and  C_4
REMARK    4  A    between atoms: C_4  and  C_6
REMARK    5  A    between atoms: C_4  and  N_10
REMARK    6  A    between atoms: N_7  and  O_8
REMARK    7  A    between atoms: C_11  and  C_13
REMARK    8  A    between atoms: C_15  and  C_19
REMARK    9  A    between atoms: C_17  and  C_18
REMARK                            x       y       z     vdW  Elec       q    Type
REMARK                         _______ _______ _______ _____ _____    ______ ____
ROOT
ATOM      1  C   UNL     1       0.763  -2.041   1.233  0.00  0.00    +0.140 C 
ENDROOT
BRANCH   1   2
ATOM      2  C   UNL     1       1.596  -2.538   2.386  0.00  0.00    +0.152 C 
ATOM      3  N   UNL     1       1.063  -2.675   3.556  0.00  0.00    -0.075 NA
ATOM      4  N   UNL     1       2.924  -2.847   2.194  0.00  0.00    -0.342 N 
ATOM      5  H   UNL     1       3.324  -2.744   1.316  0.00  0.00    +0.144 HD
ATOM      6  H   UNL     1       3.460  -3.167   2.936  0.00  0.00    +0.144 HD
BRANCH   3   7
ATOM      7  O   UNL     1       1.846  -3.143   4.639  0.00  0.00    -0.408 OA
ATOM      8  H   UNL     1       1.361  -3.212   5.473  0.00  0.00    +0.328 HD
ENDBRANCH   3   7
ENDBRANCH   1   2
BRANCH   1   9
ATOM      9  N   UNL     1      -0.605  -2.548   1.364  0.00  0.00    -0.302 N 
ATOM     10  C   UNL     1      -0.918  -3.772   0.893  0.00  0.00    +0.248 C 
ATOM     11  O   UNL     1      -0.064  -4.455   0.360  0.00  0.00    -0.270 OA
ATOM     12  H   UNL     1      -1.286  -2.004   1.789  0.00  0.00    +0.150 HD
BRANCH  10  13
ATOM     13  C   UNL     1      -2.294  -4.283   1.025  0.00  0.00    +0.077 A 
ATOM     14  C   UNL     1      -3.443  -3.595   1.631  0.00  0.00    +0.057 A 
ATOM     15  C   UNL     1      -4.479  -4.441   1.523  0.00  0.00    +0.103 A 
ATOM     16  O   UNL     1      -4.067  -5.565   0.915  0.00  0.00    -0.464 OA
ATOM     17  C   UNL     1      -2.769  -5.490   0.605  0.00  0.00    +0.114 A 
ATOM     18  C   UNL     1      -1.966  -6.561  -0.089  0.00  0.00    +0.087 C 
ATOM     19  C   UNL     1      -5.880  -4.173   2.007  0.00  0.00    +0.086 C 
ENDBRANCH  10  13
ENDBRANCH   1   9
BRANCH   1  20
ATOM     20  C   UNL     1       0.742  -0.511   1.242  0.00  0.00    +0.030 C 
BRANCH  20  22
ATOM     21  C   UNL     1      -0.019   1.526   0.010  0.00  0.00    +0.004 C 
ATOM     22  C   UNL     1       0.002  -0.004   0.002  0.00  0.00    -0.001 C 
ENDBRANCH  20  22
ENDBRANCH   1  20
TORSDOF 6
