REMARK  Name = ZINC31042168
REMARK  8 active torsions:
REMARK  status: ('A' for Active; 'I' for Inactive)
REMARK    1  A    between atoms: C_1  and  C_2
REMARK    2  A    between atoms: C_6  and  O_8
REMARK    3  A    between atoms: O_8  and  C_9
REMARK    4  A    between atoms: C_9  and  C_10
REMARK    5  A    between atoms: C_10  and  N_11
REMARK    6  A    between atoms: N_14  and  C_15
REMARK    7  A    between atoms: C_15  and  C_16
REMARK    8  A    between atoms: C_21  and  N_22
REMARK                            x       y       z     vdW  Elec       q    Type
REMARK                         _______ _______ _______ _____ _____    ______ ____
ROOT
ATOM      1  N   UNL     1      -4.703  -1.405  -1.109  0.00  0.00    -0.296 N 
ATOM      2  C   UNL     1      -5.986  -1.675  -1.424  0.00  0.00    +0.300 C 
ATOM      3  O   UNL     1      -6.628  -2.453  -0.746  0.00  0.00    -0.253 OA
ATOM      4  N   UNL     1      -6.556  -1.081  -2.491  0.00  0.00    -0.295 N 
ATOM      5  H   UNL     1      -4.122  -0.701  -1.722  0.00  0.00    +0.150 HD
ATOM      6  H   UNL     1      -5.975  -0.377  -3.105  0.00  0.00    +0.151 HD
ENDROOT
BRANCH   1   7
ATOM      7  C   UNL     1      -4.083  -2.050   0.051  0.00  0.00    +0.146 C 
BRANCH   7   8
ATOM      8  C   UNL     1      -2.635  -1.575   0.185  0.00  0.00    +0.247 C 
BRANCH   8   9
ATOM      9  O   UNL     1      -2.618  -0.176   0.476  0.00  0.00    -0.490 OA
BRANCH   9  15
ATOM     10  C   UNL     1       0.030   3.825   1.370  0.00  0.00    +0.044 C 
ATOM     11  C   UNL     1      -0.069   2.353   1.063  0.00  0.00    -0.047 A 
ATOM     12  C   UNL     1       1.080   1.596   0.928  0.00  0.00    +0.003 A 
ATOM     13  C   UNL     1       0.992   0.246   0.646  0.00  0.00    +0.004 A 
ATOM     14  C   UNL     1      -0.245  -0.351   0.498  0.00  0.00    +0.045 A 
ATOM     15  C   UNL     1      -1.399   0.407   0.627  0.00  0.00    +0.121 A 
ATOM     16  C   UNL     1      -1.308   1.761   0.915  0.00  0.00    +0.049 A 
ENDBRANCH   9  15
ENDBRANCH   8   9
ENDBRANCH   7   8
ENDBRANCH   1   7
BRANCH   4  17
ATOM     17  C   UNL     1      -7.950  -1.374  -2.834  0.00  0.00    +0.144 C 
BRANCH  17  18
ATOM     18  C   UNL     1      -8.307  -0.679  -4.122  0.00  0.00    +0.008 A 
ATOM     19  C   UNL     1      -9.055   0.485  -4.107  0.00  0.00    +0.010 A 
ATOM     20  C   UNL     1      -9.360   1.093  -5.318  0.00  0.00    +0.018 A 
ATOM     21  C   UNL     1      -8.913   0.521  -6.492  0.00  0.00    +0.084 A 
ATOM     22  N   UNL     1      -8.202  -0.590  -6.477  0.00  0.00    -0.349 N 
ATOM     23  C   UNL     1      -7.886  -1.196  -5.343  0.00  0.00    +0.104 A 
ATOM     24  H   UNL     1      -7.856  -1.035  -7.421  0.00  0.00    +0.167 HD
BRANCH  23  25
ATOM     25  N   UNL     1      -7.130  -2.362  -5.372  0.00  0.00    -0.312 N 
ATOM     26  C   UNL     1      -5.816  -2.123  -5.986  0.00  0.00    +0.134 C 
ATOM     27  C   UNL     1      -4.996  -3.415  -5.944  0.00  0.00    +0.178 C 
ATOM     28  O   UNL     1      -5.721  -4.455  -6.606  0.00  0.00    -0.377 OA
ATOM     29  C   UNL     1      -7.005  -4.715  -6.033  0.00  0.00    +0.178 C 
ATOM     30  C   UNL     1      -7.846  -3.436  -6.076  0.00  0.00    +0.134 C 
ENDBRANCH  23  25
ENDBRANCH  17  18
ENDBRANCH   4  17
TORSDOF 7
