REMARK  Name = ZINC05188763
REMARK  7 active torsions:
REMARK  status: ('A' for Active; 'I' for Inactive)
REMARK    1  A    between atoms: C_1  and  C_2
REMARK    2  A    between atoms: C_5  and  N_9
REMARK    3  A    between atoms: C_7  and  C_8
REMARK    4  A    between atoms: C_11  and  N_16
REMARK    5  A    between atoms: N_19  and  N_20
REMARK    6  A    between atoms: C_21  and  O_23
REMARK    7  A    between atoms: O_23  and  C_24
REMARK                            x       y       z     vdW  Elec       q    Type
REMARK                         _______ _______ _______ _____ _____    ______ ____
ROOT
ATOM      1  N   UNL     1      -0.737   1.577   1.186  0.00  0.00    -0.270 N 
ATOM      2  C   UNL     1      -0.013   1.086   0.008  0.00  0.00    +0.136 C 
ATOM      3  C   UNL     1      -0.798   1.617  -1.212  0.00  0.00    +0.101 C 
ATOM      4  C   UNL     1      -2.216   1.792  -0.622  0.00  0.00    +0.120 C 
ATOM      5  C   UNL     1      -1.981   1.975   0.862  0.00  0.00    +0.222 C 
ATOM      6  O   UNL     1      -2.795   2.417   1.645  0.00  0.00    -0.275 OA
ENDROOT
BRANCH   1  11
ATOM      7  C   UNL     1       1.433   1.774   6.424  0.00  0.00    +0.044 C 
ATOM      8  C   UNL     1       0.857   1.722   5.033  0.00  0.00    -0.047 A 
ATOM      9  C   UNL     1       1.622   1.240   3.987  0.00  0.00    +0.005 A 
ATOM     10  C   UNL     1       1.095   1.186   2.711  0.00  0.00    +0.024 A 
ATOM     11  C   UNL     1      -0.201   1.626   2.478  0.00  0.00    +0.037 A 
ATOM     12  C   UNL     1      -0.967   2.109   3.531  0.00  0.00    +0.027 A 
ATOM     13  C   UNL     1      -0.436   2.156   4.805  0.00  0.00    -0.046 A 
ATOM     14  C   UNL     1      -1.266   2.680   5.948  0.00  0.00    +0.044 C 
ENDBRANCH   1  11
BRANCH   3  15
ATOM     15  N   UNL     1      -0.801   0.636  -2.300  0.00  0.00    -0.293 N 
ATOM     16  C   UNL     1      -0.963   1.044  -3.575  0.00  0.00    +0.316 C 
ATOM     17  O   UNL     1      -1.108   2.227  -3.820  0.00  0.00    -0.251 OA
ATOM     18  N   UNL     1      -0.966   0.143  -4.576  0.00  0.00    -0.216 N 
ATOM     19  H   UNL     1      -0.686  -0.307  -2.104  0.00  0.00    +0.151 HD
ATOM     20  H   UNL     1      -1.083   0.437  -5.493  0.00  0.00    +0.174 HD
BRANCH  18  21
ATOM     21  N   UNL     1      -0.800  -1.219  -4.293  0.00  0.00    -0.198 N 
ATOM     22  C   UNL     1      -0.802  -2.121  -5.294  0.00  0.00    +0.417 C 
ATOM     23  O   UNL     1      -0.658  -3.302  -5.049  0.00  0.00    -0.225 OA
ATOM     24  H   UNL     1      -0.683  -1.513  -3.376  0.00  0.00    +0.176 HD
BRANCH  22  25
ATOM     25  O   UNL     1      -0.965  -1.713  -6.567  0.00  0.00    -0.453 OA
ATOM     26  C   UNL     1      -0.957  -2.739  -7.594  0.00  0.00    +0.282 C 
ENDBRANCH  22  25
ENDBRANCH  18  21
ENDBRANCH   3  15
TORSDOF 4
