REMARK  Name = ZINC01858929
REMARK  3 active torsions:
REMARK  status: ('A' for Active; 'I' for Inactive)
REMARK    1  A    between atoms: C_14  and  C_16
REMARK    2  A    between atoms: C_16  and  C_18
REMARK    3  A    between atoms: C_22  and  N_24
REMARK                            x       y       z     vdW  Elec       q    Type
REMARK                         _______ _______ _______ _____ _____    ______ ____
ROOT
ATOM      1  C   UNL     1      -1.556   2.500  -3.394  0.00  0.00    +0.000 A 
ATOM      2  C   UNL     1      -2.463   3.416  -2.894  0.00  0.00    +0.002 A 
ATOM      3  C   UNL     1      -2.561   3.622  -1.534  0.00  0.00    +0.023 A 
ATOM      4  C   UNL     1      -1.740   2.917  -0.656  0.00  0.00    +0.038 A 
ATOM      5  C   UNL     1      -0.781   2.050  -1.173  0.00  0.00    -0.012 A 
ATOM      6  C   UNL     1      -0.725   1.811  -2.529  0.00  0.00    +0.006 A 
ATOM      7  C   UNL     1      -0.019   1.517   0.010  0.00  0.00    +0.071 C 
ATOM      8  C   UNL     1       0.002  -0.004   0.002  0.00  0.00    -0.046 C 
ATOM      9  C   UNL     1      -0.346  -0.604   1.379  0.00  0.00    -0.016 C 
ATOM     10  C   UNL     1       0.501  -1.915   1.353  0.00  0.00    -0.020 C 
ATOM     11  C   UNL     1       1.832  -1.342   0.779  0.00  0.00    -0.076 C 
ATOM     12  C   UNL     1       2.238   0.735  -0.477  0.00  0.00    +0.052 C 
ATOM     13  C   UNL     1       1.450   1.962  -0.001  0.00  0.00    +0.080 C 
ATOM     14  C   UNL     1       3.538   0.649   0.283  0.00  0.00    -0.027 A 
ATOM     15  C   UNL     1       3.854   0.646   1.623  0.00  0.00    +0.004 A 
ATOM     16  C   UNL     1       5.172   0.537   2.028  0.00  0.00    +0.000 A 
ATOM     17  C   UNL     1       6.178   0.448   1.082  0.00  0.00    +0.002 A 
ATOM     18  C   UNL     1       5.871   0.484  -0.262  0.00  0.00    +0.023 A 
ATOM     19  C   UNL     1       4.546   0.613  -0.674  0.00  0.00    +0.036 A 
ATOM     20  N   UNL     1       4.000   0.713  -1.953  0.00  0.00    -0.286 N 
ATOM     21  C   UNL     1       2.661   0.859  -1.919  0.00  0.00    +0.212 C 
ATOM     22  O   UNL     1       1.954   1.032  -2.888  0.00  0.00    -0.277 OA
ATOM     23  C   UNL     1      -0.718   2.104   1.207  0.00  0.00    +0.227 C 
ATOM     24  O   UNL     1      -0.462   1.922   2.379  0.00  0.00    -0.275 OA
ATOM     25  N   UNL     1      -1.681   2.922   0.738  0.00  0.00    -0.285 N 
ATOM     26  H   UNL     1       4.521   0.696  -2.770  0.00  0.00    +0.155 HD
ATOM     27  H   UNL     1      -2.264   3.451   1.303  0.00  0.00    +0.155 HD
ATOM     28  N   UNL     1       1.357  -0.449  -0.315  0.00  0.00    +0.395 N 
ATOM     29  H   UNL     1       1.346  -0.977  -1.196  0.00  0.00    -0.079 HD
ENDROOT
BRANCH  13  30
ATOM     30  C   UNL     1       1.674   3.159  -0.882  0.00  0.00    +0.167 C 
ATOM     31  O   UNL     1       0.916   3.385  -1.801  0.00  0.00    -0.292 OA
BRANCH  30  32
ATOM     32  C   UNL     1       2.812   4.057  -0.628  0.00  0.00    +0.020 A 
ATOM     33  C   UNL     1       3.687   3.800   0.432  0.00  0.00    +0.011 A 
ATOM     34  C   UNL     1       4.751   4.646   0.663  0.00  0.00    +0.003 A 
ATOM     35  C   UNL     1       4.954   5.747  -0.150  0.00  0.00    +0.033 A 
ATOM     36  C   UNL     1       4.092   6.008  -1.201  0.00  0.00    +0.127 A 
ATOM     37  C   UNL     1       3.026   5.168  -1.448  0.00  0.00    +0.044 A 
BRANCH  36  38
ATOM     38  N   UNL     1       4.317   7.189  -2.065  0.00  0.00    +0.056 N 
ATOM     39  O   UNL     1       5.260   7.929  -1.851  0.00  0.00    -0.126 OA
ATOM     40  O   UNL     1       3.560   7.420  -2.990  0.00  0.00    -0.126 OA
ENDBRANCH  36  38
ENDBRANCH  30  32
ENDBRANCH  13  30
TORSDOF 3
