REMARK  Name = ZINC12864281
REMARK  5 active torsions:
REMARK  status: ('A' for Active; 'I' for Inactive)
REMARK    1  A    between atoms: C_6  and  N_7
REMARK    2  A    between atoms: C_8  and  C_10
REMARK    3  A    between atoms: C_10  and  C_11
REMARK    4  A    between atoms: C_11  and  N_12
REMARK    5  A    between atoms: N_15  and  C_16
REMARK                            x       y       z     vdW  Elec       q    Type
REMARK                         _______ _______ _______ _____ _____    ______ ____
ROOT
ATOM      1  N   UNL     1      -7.246   0.685   0.040  0.00  0.00    -0.285 N 
ATOM      2  C   UNL     1      -6.088   1.375   0.040  0.00  0.00    +0.219 C 
ATOM      3  O   UNL     1      -6.104   2.588   0.056  0.00  0.00    -0.275 OA
ATOM      4  H   UNL     1      -7.235  -0.281  -0.040  0.00  0.00    +0.155 HD
ENDROOT
BRANCH   1  10
ATOM      5  C   UNL     1      -9.520   0.785   0.849  0.00  0.00    +0.027 A 
ATOM      6  C   UNL     1     -10.724   1.454   0.970  0.00  0.00    +0.049 A 
ATOM      7  C   UNL     1     -10.884   2.700   0.390  0.00  0.00    +0.142 A 
ATOM      8  C   UNL     1      -9.829   3.282  -0.313  0.00  0.00    +0.077 A 
ATOM      9  C   UNL     1      -8.622   2.615  -0.429  0.00  0.00    +0.050 A 
ATOM     10  C   UNL     1      -8.466   1.365   0.155  0.00  0.00    +0.035 A 
ATOM     11  N   UNL     1     -10.008   4.544  -0.897  0.00  0.00    -0.280 N 
ATOM     12  C   UNL     1     -11.058   5.301  -0.512  0.00  0.00    +0.255 C 
ATOM     13  O   UNL     1     -11.250   6.383  -1.025  0.00  0.00    -0.272 OA
ATOM     14  C   UNL     1     -11.992   4.795   0.559  0.00  0.00    +0.325 C 
ATOM     15  O   UNL     1     -12.064   3.369   0.498  0.00  0.00    -0.481 OA
ATOM     16  H   UNL     1      -9.387   4.869  -1.568  0.00  0.00    +0.155 HD
ENDBRANCH   1  10
BRANCH   2  17
ATOM     17  C   UNL     1      -4.773   0.639   0.021  0.00  0.00    +0.115 C 
BRANCH  17  18
ATOM     18  C   UNL     1      -3.624   1.649   0.025  0.00  0.00    +0.115 C 
BRANCH  18  19
ATOM     19  N   UNL     1      -2.345   0.934   0.007  0.00  0.00    -0.299 N 
ATOM     20  C   UNL     1      -1.187   1.623   0.007  0.00  0.00    +0.300 C 
ATOM     21  O   UNL     1      -1.204   2.839   0.022  0.00  0.00    -0.253 OA
ATOM     22  N   UNL     1      -0.011   0.965  -0.010  0.00  0.00    -0.297 N 
ATOM     23  H   UNL     1      -2.332  -0.036  -0.005  0.00  0.00    +0.150 HD
ATOM     24  H   UNL     1       0.002  -0.005  -0.022  0.00  0.00    +0.151 HD
BRANCH  22  25
ATOM     25  C   UNL     1       1.248   1.715  -0.016  0.00  0.00    +0.074 C 
ATOM     26  C   UNL     1       1.604   2.102  -1.452  0.00  0.00    +0.022 C 
ATOM     27  C   UNL     1       2.918   2.884  -1.459  0.00  0.00    +0.002 C 
ATOM     28  C   UNL     1       4.033   2.015  -0.873  0.00  0.00    +0.000 C 
ATOM     29  C   UNL     1       3.676   1.628   0.563  0.00  0.00    +0.002 C 
ATOM     30  C   UNL     1       2.362   0.845   0.570  0.00  0.00    +0.022 C 
ENDBRANCH  22  25
ENDBRANCH  18  19
ENDBRANCH  17  18
ENDBRANCH   2  17
TORSDOF 5
