REMARK  Name = ZINC05743480
REMARK  7 active torsions:
REMARK  status: ('A' for Active; 'I' for Inactive)
REMARK    1  A    between atoms: C_1  and  N_2
REMARK    2  A    between atoms: C_6  and  C_8
REMARK    3  A    between atoms: C_8  and  C_10
REMARK    4  A    between atoms: C_8  and  O_16
REMARK    5  A    between atoms: O_16  and  C_17
REMARK    6  A    between atoms: C_17  and  C_19
REMARK    7  A    between atoms: C_24  and  O_25
REMARK                            x       y       z     vdW  Elec       q    Type
REMARK                         _______ _______ _______ _____ _____    ______ ____
ROOT
ATOM      1  C   UNL     1      -2.397   1.061   0.019  0.00  0.00    +0.292 C 
ENDROOT
BRANCH   1   7
ATOM      2  C   UNL     1      -8.006   2.086  -2.231  0.00  0.00    +0.129 C 
ATOM      3  N   UNL     1      -6.932   1.359  -1.550  0.00  0.00    -0.302 N 
ATOM      4  C   UNL     1      -5.711   1.918  -1.429  0.00  0.00    +0.306 C 
ATOM      5  O   UNL     1      -5.502   3.025  -1.886  0.00  0.00    -0.252 OA
ATOM      6  N   UNL     1      -4.723   1.250  -0.802  0.00  0.00    -0.237 N 
ATOM      7  C   UNL     1      -3.502   1.809  -0.682  0.00  0.00    +0.266 C 
ATOM      8  O   UNL     1      -3.293   2.913  -1.138  0.00  0.00    -0.271 OA
ATOM      9  H   UNL     1      -7.099   0.476  -1.185  0.00  0.00    +0.150 HD
ATOM     10  H   UNL     1      -4.890   0.367  -0.438  0.00  0.00    +0.159 HD
ENDBRANCH   1   7
BRANCH   1  11
ATOM     11  C   UNL     1      -2.808   0.774   1.440  0.00  0.00    +0.002 A 
ATOM     12  C   UNL     1      -2.699   1.760   2.404  0.00  0.00    +0.008 A 
ATOM     13  C   UNL     1      -3.080   1.498   3.707  0.00  0.00    +0.000 A 
ATOM     14  C   UNL     1      -3.561   0.248   4.048  0.00  0.00    +0.000 A 
ATOM     15  C   UNL     1      -3.666  -0.739   3.086  0.00  0.00    +0.000 A 
ATOM     16  C   UNL     1      -3.289  -0.476   1.782  0.00  0.00    +0.008 A 
ENDBRANCH   1  11
BRANCH   1  17
ATOM     17  O   UNL     1      -1.190   1.869   0.018  0.00  0.00    -0.443 OA
BRANCH  17  18
ATOM     18  C   UNL     1      -0.014   1.211   0.009  0.00  0.00    +0.344 C 
ATOM     19  O   UNL     1       0.002  -0.004   0.002  0.00  0.00    -0.245 OA
BRANCH  18  20
ATOM     20  C   UNL     1       1.252   1.965   0.001  0.00  0.00    +0.101 A 
ATOM     21  C   UNL     1       1.238   3.363   0.003  0.00  0.00    +0.034 A 
ATOM     22  C   UNL     1       2.426   4.062   0.001  0.00  0.00    +0.019 A 
ATOM     23  C   UNL     1       3.635   3.385  -0.014  0.00  0.00    +0.019 A 
ATOM     24  C   UNL     1       3.663   2.005  -0.022  0.00  0.00    +0.047 A 
ATOM     25  C   UNL     1       2.478   1.285  -0.015  0.00  0.00    +0.131 A 
ATOM     26 BR   UNL     1       2.405   5.953   0.011  0.00  0.00    -0.050 Br
BRANCH  25  27
ATOM     27  O   UNL     1       2.504  -0.071  -0.023  0.00  0.00    -0.506 OA
ATOM     28  H   UNL     1       2.503  -0.459  -0.908  0.00  0.00    +0.292 HD
ENDBRANCH  25  27
ENDBRANCH  18  20
ENDBRANCH  17  18
ENDBRANCH   1  17
TORSDOF 6
