REMARK  Name = ZINC15931189
REMARK  4 active torsions:
REMARK  status: ('A' for Active; 'I' for Inactive)
REMARK    1  A    between atoms: C_1  and  C_2
REMARK    2  A    between atoms: C_5  and  C_8
REMARK    3  A    between atoms: C_11  and  C_30
REMARK    4  A    between atoms: C_16  and  C_18
REMARK                            x       y       z     vdW  Elec       q    Type
REMARK                         _______ _______ _______ _____ _____    ______ ____
ROOT
ATOM      1  C   UNL     1      -0.853   1.565   1.285  0.00  0.00    +0.104 C 
ATOM      2  C   UNL     1      -0.200   1.030   0.006  0.00  0.00    +0.063 C 
ATOM      3  C   UNL     1      -0.949   1.561  -1.222  0.00  0.00    +0.215 C 
ATOM      4  N   UNL     1      -1.099   3.013  -1.094  0.00  0.00    -0.238 N 
ATOM      5  C   UNL     1      -0.988   3.686   0.090  0.00  0.00    +0.119 A 
ATOM      6  C   UNL     1      -1.177   4.997  -0.152  0.00  0.00    +0.078 A 
ATOM      7  C   UNL     1      -1.417   5.145  -1.537  0.00  0.00    +0.149 A 
ATOM      8  N   UNL     1      -1.368   3.947  -2.093  0.00  0.00    -0.164 NA
ATOM      9  N   UNL     1      -0.723   3.035   1.299  0.00  0.00    -0.322 N 
ATOM     10  H   UNL     1      -0.470   3.522   2.099  0.00  0.00    +0.148 HD
ENDROOT
BRANCH   7  11
ATOM     11  C   UNL     1      -1.677   6.418  -2.241  0.00  0.00    +0.267 C 
ATOM     12  O   UNL     1      -1.823   7.444  -1.607  0.00  0.00    -0.268 OA
ATOM     13  N   UNL     1      -1.753   6.440  -3.587  0.00  0.00    -0.300 N 
ATOM     14  C   UNL     1      -1.941   7.713  -4.295  0.00  0.00    +0.089 C 
ATOM     15  C   UNL     1      -0.952   7.809  -5.469  0.00  0.00    -0.059 C 
ATOM     16  C   UNL     1      -0.256   6.515  -7.475  0.00  0.00    -0.078 C 
ATOM     17  C   UNL     1      -0.239   5.002  -7.814  0.00  0.00    -0.020 C 
ATOM     18  C   UNL     1      -0.513   4.287  -6.467  0.00  0.00    -0.016 C 
ATOM     19  C   UNL     1      -0.607   5.428  -5.447  0.00  0.00    -0.051 C 
ATOM     20  C   UNL     1      -1.642   5.186  -4.359  0.00  0.00    +0.093 C 
ATOM     21  N   UNL     1      -1.074   6.532  -6.257  0.00  0.00    +0.384 N 
ATOM     22  H   UNL     1      -2.060   6.394  -6.509  0.00  0.00    -0.081 HD
ENDBRANCH   7  11
BRANCH   1  27
ATOM     23  C   UNL     1      -6.443   0.103   1.370  0.00  0.00    +0.044 C 
ATOM     24  C   UNL     1      -4.985   0.484   1.348  0.00  0.00    -0.050 A 
ATOM     25  C   UNL     1      -4.067  -0.249   2.078  0.00  0.00    +0.004 A 
ATOM     26  C   UNL     1      -2.730   0.101   2.058  0.00  0.00    +0.006 A 
ATOM     27  C   UNL     1      -2.310   1.183   1.307  0.00  0.00    -0.027 A 
ATOM     28  C   UNL     1      -3.228   1.919   0.581  0.00  0.00    +0.006 A 
ATOM     29  C   UNL     1      -4.565   1.566   0.597  0.00  0.00    +0.004 A 
ENDBRANCH   1  27
BRANCH   3  30
ATOM     30  C   UNL     1      -0.153   1.238  -2.488  0.00  0.00    +0.412 C 
ATOM     31  F   UNL     1       0.001  -0.148  -2.600  0.00  0.00    -0.168 F 
ATOM     32  F   UNL     1      -0.838   1.723  -3.606  0.00  0.00    -0.168 F 
ATOM     33  F   UNL     1       1.107   1.842  -2.414  0.00  0.00    -0.168 F 
ENDBRANCH   3  30
TORSDOF 3
