REMARK  Name = ZINC12360115
REMARK  4 active torsions:
REMARK  status: ('A' for Active; 'I' for Inactive)
REMARK    1  A    between atoms: C_10  and  S_12
REMARK    2  A    between atoms: S_12  and  C_13
REMARK    3  A    between atoms: C_13  and  C_14
REMARK    4  A    between atoms: N_19  and  C_22
REMARK                            x       y       z     vdW  Elec       q    Type
REMARK                         _______ _______ _______ _____ _____    ______ ____
ROOT
ATOM      1  C   UNL     1      -5.847  -5.493   0.002  0.00  0.00    +0.226 C 
ATOM      2  O   UNL     1      -6.945  -4.979   0.010  0.00  0.00    -0.275 OA
ATOM      3  N   UNL     1      -5.731  -6.835  -0.006  0.00  0.00    -0.304 N 
ATOM      4  C   UNL     1      -4.409  -7.481  -0.010  0.00  0.00    +0.089 C 
ATOM      5  C   UNL     1      -4.379  -8.520  -1.136  0.00  0.00    -0.059 C 
ATOM      6  N   UNL     1      -5.505  -9.447  -0.974  0.00  0.00    +0.385 N 
ATOM      7  C   UNL     1      -6.774  -8.726  -1.136  0.00  0.00    -0.059 C 
ATOM      8  C   UNL     1      -6.923  -7.697  -0.005  0.00  0.00    +0.089 C 
ATOM      9  H   UNL     1      -5.470  -9.861  -0.055  0.00  0.00    -0.081 HD
ENDROOT
BRANCH   6  10
ATOM     10  C   UNL     1      -5.414 -10.507  -1.988  0.00  0.00    -0.065 C 
ATOM     11  C   UNL     1      -5.462  -9.883  -3.384  0.00  0.00    -0.009 C 
ATOM     12  C   UNL     1      -5.366 -10.986  -4.439  0.00  0.00    -0.012 C 
ATOM     13  C   UNL     1      -6.540 -11.954  -4.273  0.00  0.00    +0.007 C 
ATOM     14  C   UNL     1      -6.492 -12.578  -2.877  0.00  0.00    -0.012 C 
ATOM     15  C   UNL     1      -6.587 -11.475  -1.821  0.00  0.00    -0.009 C 
ATOM     16  C   UNL     1      -5.175 -13.338  -2.702  0.00  0.00    +0.007 C 
ATOM     17  C   UNL     1      -4.002 -12.370  -2.869  0.00  0.00    -0.012 C 
ATOM     18  C   UNL     1      -4.050 -11.746  -4.265  0.00  0.00    +0.007 C 
ATOM     19  C   UNL     1      -4.097 -11.267  -1.814  0.00  0.00    -0.009 C 
ENDBRANCH   6  10
BRANCH   1  20
ATOM     20  C   UNL     1      -4.611  -4.630   0.001  0.00  0.00    +0.173 C 
BRANCH  20  21
ATOM     21  S   UNL     1      -5.095  -2.881   0.013  0.00  0.00    -0.077 S 
BRANCH  21  31
ATOM     22  C   UNL     1      -0.016   1.360   0.009  0.00  0.00    +0.001 A 
ATOM     23  C   UNL     1      -1.220   2.058   0.019  0.00  0.00    +0.002 A 
ATOM     24  C   UNL     1      -2.414   1.401   0.021  0.00  0.00    +0.028 A 
ATOM     25  C   UNL     1      -2.433  -0.001   0.014  0.00  0.00    +0.079 A 
ATOM     26  C   UNL     1      -1.206  -0.710   0.004  0.00  0.00    +0.067 A 
ATOM     27  C   UNL     1       0.002  -0.004   0.002  0.00  0.00    +0.015 A 
ATOM     28  C   UNL     1      -1.249  -2.125  -0.003  0.00  0.00    +0.282 A 
ATOM     29  O   UNL     1      -0.108  -2.853  -0.013  0.00  0.00    -0.265 OA
ATOM     30  N   UNL     1      -2.430  -2.718  -0.000  0.00  0.00    -0.183 NA
ATOM     31  C   UNL     1      -3.561  -2.015   0.009  0.00  0.00    +0.193 A 
ATOM     32  N   UNL     1      -3.580  -0.695   0.016  0.00  0.00    -0.222 NA
ENDBRANCH  21  31
ENDBRANCH  20  21
ENDBRANCH   1  20
TORSDOF 4
