REMARK  Name = ZINC36207232
REMARK  16 active torsions:
REMARK  status: ('A' for Active; 'I' for Inactive)
REMARK    1  A    between atoms: C_1  and  C_2
REMARK    2  A    between atoms: C_2  and  O_3
REMARK    3  A    between atoms: O_3  and  C_4
REMARK    4  A    between atoms: C_4  and  C_6
REMARK    5  A    between atoms: C_7  and  C_29
REMARK    6  A    between atoms: C_13  and  C_17
REMARK    7  A    between atoms: C_17  and  N_18
REMARK    8  A    between atoms: N_18  and  C_19
REMARK    9  A    between atoms: N_18  and  C_26
REMARK   10  A    between atoms: C_19  and  C_20
REMARK   11  A    between atoms: C_20  and  C_22
REMARK   12  A    between atoms: C_20  and  O_25
REMARK   13  A    between atoms: C_22  and  O_23
REMARK   14  A    between atoms: O_23  and  C_24
REMARK   15  A    between atoms: C_26  and  C_27
REMARK   16  A    between atoms: C_26  and  C_28
REMARK                            x       y       z     vdW  Elec       q    Type
REMARK                         _______ _______ _______ _____ _____    ______ ____
ROOT
ATOM      1  C   UNL     1      -4.321  -2.378  -4.480  0.00  0.00    +0.102 A 
ATOM      2  C   UNL     1      -4.422  -3.659  -4.018  0.00  0.00    -0.015 A 
ATOM      3  C   UNL     1      -5.465  -4.006  -3.158  0.00  0.00    +0.076 A 
ATOM      4  C   UNL     1      -5.771  -5.316  -2.539  0.00  0.00    +0.260 A 
ATOM      5  O   UNL     1      -5.067  -6.287  -2.752  0.00  0.00    -0.267 OA
ATOM      6  N   UNL     1      -6.847  -5.406  -1.733  0.00  0.00    -0.312 N 
ATOM      7  H   UNL     1      -7.062  -6.257  -1.320  0.00  0.00    +0.170 HD
ATOM      8  C   UNL     1      -7.637  -4.332  -1.488  0.00  0.00    +0.094 A 
ATOM      9  N   UNL     1      -7.396  -3.163  -2.018  0.00  0.00    -0.229 NA
ATOM     10  C   UNL     1      -6.363  -2.965  -2.825  0.00  0.00    +0.116 A 
ATOM     11  S   UNL     1      -5.713  -1.570  -3.710  0.00  0.00    -0.062 S 
ATOM     12  C   UNL     1      -3.410  -4.695  -4.435  0.00  0.00    +0.046 C 
ENDROOT
BRANCH   1  13
ATOM     13  C   UNL     1      -3.316  -1.808  -5.380  0.00  0.00    +0.346 C 
ATOM     14  O   UNL     1      -2.425  -2.510  -5.819  0.00  0.00    -0.244 OA
BRANCH  13  15
ATOM     15  O   UNL     1      -3.380  -0.505  -5.723  0.00  0.00    -0.461 OA
BRANCH  15  17
ATOM     16  C   UNL     1      -2.602   1.471  -6.878  0.00  0.00    +0.048 C 
ATOM     17  C   UNL     1      -2.367  -0.016  -6.605  0.00  0.00    +0.229 C 
ENDBRANCH  15  17
ENDBRANCH  13  15
ENDBRANCH   1  13
BRANCH   8  18
ATOM     18  C   UNL     1      -8.828  -4.492  -0.579  0.00  0.00    -0.003 C 
BRANCH  18  19
ATOM     19  N   UNL     1      -9.428  -3.175  -0.322  0.00  0.00    +0.388 N 
ATOM     20  H   UNL     1      -9.334  -2.597  -1.143  0.00  0.00    -0.081 HD
BRANCH  19  21
ATOM     21  C   UNL     1      -8.742  -2.537   0.809  0.00  0.00    -0.074 C 
ATOM     22  C   UNL     1      -8.867  -3.425   2.048  0.00  0.00    -0.014 C 
ATOM     23  C   UNL     1      -7.263  -2.345   0.466  0.00  0.00    -0.014 C 
ENDBRANCH  19  21
BRANCH  19  24
ATOM     24  C   UNL     1     -10.852  -3.341  -0.001  0.00  0.00    -0.044 C 
BRANCH  24  25
ATOM     25  C   UNL     1     -11.513  -1.965   0.110  0.00  0.00    +0.124 C 
BRANCH  25  26
ATOM     26  O   UNL     1     -11.034  -1.300   1.281  0.00  0.00    -0.391 OA
ATOM     27  H   UNL     1     -11.163  -1.800   2.098  0.00  0.00    +0.210 HD
ENDBRANCH  25  26
BRANCH  25  28
ATOM     28  C   UNL     1     -13.030  -2.135   0.205  0.00  0.00    +0.188 C 
BRANCH  28  29
ATOM     29  O   UNL     1     -13.655  -0.849   0.191  0.00  0.00    -0.381 OA
ATOM     30  C   UNL     1     -15.081  -0.895   0.275  0.00  0.00    +0.194 C 
ENDBRANCH  28  29
ENDBRANCH  25  28
ENDBRANCH  24  25
ENDBRANCH  19  24
ENDBRANCH  18  19
ENDBRANCH   8  18
TORSDOF 11
