REMARK  Name = ZINC39938631
REMARK  8 active torsions:
REMARK  status: ('A' for Active; 'I' for Inactive)
REMARK    1  A    between atoms: C_1  and  C_2
REMARK    2  A    between atoms: C_6  and  N_12
REMARK    3  A    between atoms: C_9  and  C_11
REMARK    4  A    between atoms: C_13  and  C_15
REMARK    5  A    between atoms: C_15  and  S_16
REMARK    6  A    between atoms: S_16  and  C_17
REMARK    7  A    between atoms: N_22  and  C_23
REMARK    8  A    between atoms: C_23  and  C_24
REMARK                            x       y       z     vdW  Elec       q    Type
REMARK                         _______ _______ _______ _____ _____    ______ ____
ROOT
ATOM      1  S   UNL     1       6.898  -3.507  -4.475  0.00  0.00    -0.109 S 
ENDROOT
BRANCH   1   2
ATOM      2  C   UNL     1       7.679  -5.125  -4.220  0.00  0.00    +0.236 C 
ATOM      3  N   UNL     1       6.678  -6.202  -4.307  0.00  0.00    -0.259 N 
ATOM      4  N   UNL     1       6.677  -6.835  -3.058  0.00  0.00    -0.283 N 
ATOM      5  C   UNL     1       7.526  -6.292  -2.253  0.00  0.00    +0.179 C 
ATOM      6  N   UNL     1       8.203  -5.235  -2.848  0.00  0.00    -0.271 N 
ATOM      7  N   UNL     1       7.738  -6.714  -0.948  0.00  0.00    -0.299 N 
ATOM      8  C   UNL     1       7.988  -5.744   0.130  0.00  0.00    +0.136 C 
ATOM      9  C   UNL     1       7.037  -6.056   1.292  0.00  0.00    +0.179 C 
ATOM     10  O   UNL     1       7.157  -7.437   1.640  0.00  0.00    -0.377 OA
ATOM     11  C   UNL     1       6.781  -8.338   0.596  0.00  0.00    +0.179 C 
ATOM     12  C   UNL     1       7.713  -8.143  -0.600  0.00  0.00    +0.136 C 
ATOM     13  H   UNL     1       6.130  -6.427  -5.075  0.00  0.00    +0.169 HD
ATOM     14  H   UNL     1       6.110  -7.587  -2.827  0.00  0.00    +0.187 HD
BRANCH   6  15
ATOM     15  C   UNL     1       9.235  -4.395  -2.234  0.00  0.00    +0.145 C 
BRANCH  15  16
ATOM     16  C   UNL     1      10.597  -4.928  -2.594  0.00  0.00    -0.030 A 
ATOM     17  C   UNL     1      11.161  -5.945  -1.847  0.00  0.00    +0.005 A 
ATOM     18  C   UNL     1      12.411  -6.435  -2.177  0.00  0.00    +0.000 A 
ATOM     19  C   UNL     1      13.097  -5.908  -3.255  0.00  0.00    +0.000 A 
ATOM     20  C   UNL     1      12.533  -4.892  -4.003  0.00  0.00    +0.000 A 
ATOM     21  C   UNL     1      11.281  -4.405  -3.676  0.00  0.00    +0.005 A 
ENDBRANCH  15  16
ENDBRANCH   6  15
ENDBRANCH   1   2
BRANCH   1  22
ATOM     22  C   UNL     1       5.606  -3.439  -3.204  0.00  0.00    +0.168 C 
BRANCH  22  24
ATOM     23  N   UNL     1       3.860  -1.854  -2.456  0.00  0.00    -0.285 N 
ATOM     24  C   UNL     1       4.870  -2.128  -3.306  0.00  0.00    +0.225 C 
ATOM     25  O   UNL     1       5.186  -1.319  -4.153  0.00  0.00    -0.275 OA
ATOM     26  H   UNL     1       3.607  -2.501  -1.779  0.00  0.00    +0.151 HD
BRANCH  23  31
ATOM     27  C   UNL     1       1.176   2.529   0.036  0.00  0.00    +0.030 C 
ATOM     28  C   UNL     1       0.992   1.011   0.072  0.00  0.00    +0.099 C 
ATOM     29  C   UNL     1       1.583   0.402  -1.170  0.00  0.00    -0.011 C 
ATOM     30  C   UNL     1       2.852  -0.044  -1.190  0.00  0.00    +0.065 C 
ATOM     31  C   UNL     1       3.145  -0.579  -2.555  0.00  0.00    +0.243 C 
ATOM     32  O   UNL     1       1.859  -0.775  -3.183  0.00  0.00    -0.347 OA
ATOM     33  C   UNL     1       0.987   0.170  -2.525  0.00  0.00    +0.146 C 
ATOM     34  C   UNL     1       0.940   1.481  -3.312  0.00  0.00    +0.043 C 
ATOM     35  C   UNL     1       3.680   0.042   0.023  0.00  0.00    +0.258 C 
ATOM     36  O   UNL     1       4.870  -0.212   0.012  0.00  0.00    -0.269 OA
ATOM     37  N   UNL     1       3.036   0.422   1.154  0.00  0.00    -0.247 N 
ATOM     38  N   UNL     1       1.679   0.459   1.247  0.00  0.00    -0.233 NA
ATOM     39  H   UNL     1       3.562   0.678   1.927  0.00  0.00    +0.169 HD
ATOM     40  H   UNL     1       1.384   0.926   2.091  0.00  0.00    +0.145 HD
ENDBRANCH  23  31
ENDBRANCH  22  24
ENDBRANCH   1  22
TORSDOF 6
