REMARK  Name = ZINC09547036
REMARK  4 active torsions:
REMARK  status: ('A' for Active; 'I' for Inactive)
REMARK    1  A    between atoms: C_6  and  C_7
REMARK    2  A    between atoms: C_13  and  C_15
REMARK    3  A    between atoms: C_15  and  S_16
REMARK    4  A    between atoms: S_16  and  C_17
REMARK                            x       y       z     vdW  Elec       q    Type
REMARK                         _______ _______ _______ _____ _____    ______ ____
ROOT
ATOM      1  C   UNL     1      -1.293  -0.774   0.009  0.00  0.00    +0.106 C 
ATOM      2  C   UNL     1      -1.865  -0.826   1.441  0.00  0.00    +0.029 C 
ATOM      3  C   UNL     1      -3.392  -0.672   1.211  0.00  0.00    +0.021 C 
ATOM      4  C   UNL     1      -3.429   0.305   0.010  0.00  0.00    +0.108 C 
ATOM      5  N   UNL     1      -2.285  -0.092  -0.836  0.00  0.00    -0.294 N 
ATOM      6  C   UNL     1      -2.167   0.134  -2.159  0.00  0.00    +0.226 C 
ATOM      7  O   UNL     1      -1.176  -0.238  -2.752  0.00  0.00    -0.275 OA
ENDROOT
BRANCH   1  13
ATOM      8  C   UNL     1      -0.017   1.378   0.010  0.00  0.00    +0.009 A 
ATOM      9  C   UNL     1       1.170   2.088   0.002  0.00  0.00    +0.050 A 
ATOM     10  C   UNL     1       2.382   1.415  -0.013  0.00  0.00    +0.162 A 
ATOM     11  C   UNL     1       2.401   0.025  -0.018  0.00  0.00    +0.162 A 
ATOM     12  C   UNL     1       1.207  -0.681  -0.011  0.00  0.00    +0.055 A 
ATOM     13  C   UNL     1       0.002  -0.004   0.002  0.00  0.00    -0.023 A 
ATOM     14  O   UNL     1       3.579  -0.656  -0.024  0.00  0.00    -0.485 OA
ATOM     15  C   UNL     1       4.746   0.081  -0.406  0.00  0.00    +0.270 C 
ATOM     16  C   UNL     1       4.733   1.422   0.340  0.00  0.00    +0.270 C 
ATOM     17  O   UNL     1       3.542   2.127  -0.024  0.00  0.00    -0.485 OA
ENDBRANCH   1  13
BRANCH   6  18
ATOM     18  C   UNL     1      -3.266   0.848  -2.903  0.00  0.00    +0.173 C 
BRANCH  18  19
ATOM     19  S   UNL     1      -2.813   0.998  -4.653  0.00  0.00    -0.075 S 
BRANCH  19  20
ATOM     20  C   UNL     1      -4.180   1.843  -5.376  0.00  0.00    +0.210 A 
ATOM     21  N   UNL     1      -4.296   2.173  -6.668  0.00  0.00    -0.188 NA
ATOM     22  C   UNL     1      -5.439   2.794  -6.865  0.00  0.00    +0.209 A 
ATOM     23  N   UNL     1      -6.082   2.870  -5.681  0.00  0.00    -0.246 N 
ATOM     24  H   UNL     1      -6.948   3.274  -5.516  0.00  0.00    +0.192 HD
ATOM     25  N   UNL     1      -5.252   2.245  -4.737  0.00  0.00    -0.144 NA
ATOM     26  N   UNL     1      -5.900   3.283  -8.074  0.00  0.00    -0.328 N 
ATOM     27  H   UNL     1      -5.364   3.180  -8.875  0.00  0.00    +0.145 HD
ATOM     28  H   UNL     1      -6.761   3.729  -8.120  0.00  0.00    +0.145 HD
ENDBRANCH  19  20
ENDBRANCH  18  19
ENDBRANCH   6  18
TORSDOF 4
