REMARK  Name = ZINC49435619
REMARK  9 active torsions:
REMARK  status: ('A' for Active; 'I' for Inactive)
REMARK    1  A    between atoms: C_1  and  C_2
REMARK    2  A    between atoms: C_7  and  C_8
REMARK    3  A    between atoms: C_8  and  C_9
REMARK    4  A    between atoms: C_8  and  C_10
REMARK    5  A    between atoms: C_11  and  C_14
REMARK    6  A    between atoms: C_14  and  C_15
REMARK    7  A    between atoms: C_15  and  C_17
REMARK    8  A    between atoms: C_17  and  C_19
REMARK    9  A    between atoms: C_17  and  C_21
REMARK                            x       y       z     vdW  Elec       q    Type
REMARK                         _______ _______ _______ _____ _____    ______ ____
ROOT
ATOM      1  C   UNL     1      -0.409  -5.856   1.132  0.00  0.00    +0.162 C 
ATOM      2  O   UNL     1      -1.489  -5.369   0.897  0.00  0.00    -0.295 OA
ENDROOT
BRANCH   1   3
ATOM      3  C   UNL     1       0.827  -5.299   0.474  0.00  0.00    +0.115 C 
BRANCH   3  11
ATOM      4  C   UNL     1      -0.485   1.457   0.078  0.00  0.00    +0.044 C 
ATOM      5  C   UNL     1      -0.222  -0.026   0.035  0.00  0.00    -0.044 A 
ATOM      6  C   UNL     1      -0.327  -0.702  -1.162  0.00  0.00    +0.050 A 
ATOM      7  C   UNL     1      -0.086  -2.069  -1.210  0.00  0.00    +0.135 A 
ATOM      8  C   UNL     1       0.264  -2.748  -0.030  0.00  0.00    +0.024 A 
ATOM      9  C   UNL     1       0.366  -2.052   1.174  0.00  0.00    +0.016 A 
ATOM     10  C   UNL     1       0.128  -0.695   1.198  0.00  0.00    -0.041 A 
ATOM     11  C   UNL     1       0.445  -4.150  -0.423  0.00  0.00    +0.005 A 
ATOM     12  C   UNL     1       0.203  -4.203  -1.740  0.00  0.00    +0.200 A 
ATOM     13  O   UNL     1      -0.109  -2.980  -2.203  0.00  0.00    -0.463 OA
BRANCH  10  14
ATOM     14  C   UNL     1       0.243   0.064   2.495  0.00  0.00    +0.013 C 
ATOM     15  C   UNL     1      -0.844  -0.411   3.462  0.00  0.00    +0.012 C 
ATOM     16  C   UNL     1       1.620  -0.188   3.112  0.00  0.00    +0.012 C 
ENDBRANCH  10  14
ENDBRANCH   3  11
ENDBRANCH   1   3
BRANCH   1  17
ATOM     17  C   UNL     1      -0.298  -7.019   2.084  0.00  0.00    +0.225 C 
BRANCH  17  18
ATOM     18  C   UNL     1      -1.464  -7.000   3.039  0.00  0.00    +0.160 A 
ATOM     19  N   UNL     1      -2.698  -7.089   2.574  0.00  0.00    -0.198 NA
ATOM     20  C   UNL     1      -3.730  -7.073   3.414  0.00  0.00    +0.217 A 
ATOM     21  N   UNL     1      -3.518  -6.967   4.722  0.00  0.00    -0.181 NA
ATOM     22  C   UNL     1      -2.276  -6.878   5.185  0.00  0.00    +0.217 A 
ATOM     23  N   UNL     1      -2.051  -6.768   6.542  0.00  0.00    -0.327 N 
ATOM     24  N   UNL     1      -1.249  -6.900   4.339  0.00  0.00    -0.198 NA
ATOM     25  N   UNL     1      -5.018  -7.165   2.928  0.00  0.00    -0.327 N 
ATOM     26  H   UNL     1      -2.800  -6.756   7.158  0.00  0.00    +0.145 HD
ATOM     27  H   UNL     1      -5.172  -7.242   1.974  0.00  0.00    +0.145 HD
ATOM     28  H   UNL     1      -5.770  -7.153   3.541  0.00  0.00    +0.145 HD
ATOM     29  H   UNL     1      -1.144  -6.703   6.880  0.00  0.00    +0.145 HD
ENDBRANCH  17  18
BRANCH  17  30
ATOM     30  C   UNL     1      -0.308  -8.278   1.322  0.00  0.00    +0.081 C 
ATOM     31  N   UNL     1      -0.316  -9.251   0.734  0.00  0.00    -0.195 NA
ENDBRANCH  17  30
ENDBRANCH   1  17
TORSDOF 6
