REMARK  Name = ZINC08483365
REMARK  7 active torsions:
REMARK  status: ('A' for Active; 'I' for Inactive)
REMARK    1  A    between atoms: C_1  and  C_2
REMARK    2  A    between atoms: C_2  and  C_3
REMARK    3  A    between atoms: C_2  and  C_4
REMARK    4  A    between atoms: C_7  and  N_10
REMARK    5  A    between atoms: C_14  and  S_15
REMARK    6  A    between atoms: S_15  and  C_16
REMARK    7  A    between atoms: C_16  and  C_17
REMARK                            x       y       z     vdW  Elec       q    Type
REMARK                         _______ _______ _______ _____ _____    ______ ____
ROOT
ATOM      1  N   UNL     1      -2.670   2.916   4.678  0.00  0.00    -0.295 N 
ATOM      2  C   UNL     1      -3.903   2.504   5.135  0.00  0.00    +0.113 A 
ATOM      3  C   UNL     1      -4.149   3.185   6.266  0.00  0.00    +0.131 A 
ATOM      4  N   UNL     1      -3.110   4.003   6.504  0.00  0.00    -0.230 NA
ATOM      5  C   UNL     1      -2.213   3.852   5.558  0.00  0.00    +0.174 A 
ENDROOT
BRANCH   1   9
ATOM      6  C   UNL     1      -0.718   1.572   1.248  0.00  0.00    -0.045 A 
ATOM      7  C   UNL     1      -0.855   2.929   1.477  0.00  0.00    +0.006 A 
ATOM      8  C   UNL     1      -1.506   3.377   2.610  0.00  0.00    +0.026 A 
ATOM      9  C   UNL     1      -2.013   2.464   3.524  0.00  0.00    +0.048 A 
ATOM     10  C   UNL     1      -1.869   1.103   3.295  0.00  0.00    +0.026 A 
ATOM     11  C   UNL     1      -1.222   0.660   2.157  0.00  0.00    +0.006 A 
BRANCH   6  13
ATOM     12  C   UNL     1       1.423   1.615  -0.003  0.00  0.00    +0.012 C 
ATOM     13  C   UNL     1      -0.013   1.086   0.008  0.00  0.00    +0.013 C 
ATOM     14  C   UNL     1      -0.753   1.593  -1.232  0.00  0.00    +0.012 C 
ENDBRANCH   6  13
ENDBRANCH   1   9
BRANCH   5  15
ATOM     15  S   UNL     1      -0.679   4.713   5.444  0.00  0.00    -0.080 S 
BRANCH  15  16
ATOM     16  C   UNL     1      -0.789   5.747   6.926  0.00  0.00    +0.153 C 
BRANCH  16  17
ATOM     17  C   UNL     1       0.452   6.595   7.039  0.00  0.00    +0.146 A 
ATOM     18  N   UNL     1       1.500   6.144   7.706  0.00  0.00    -0.199 NA
ATOM     19  C   UNL     1       2.599   6.889   7.804  0.00  0.00    +0.217 A 
ATOM     20  N   UNL     1       2.638   8.090   7.239  0.00  0.00    -0.181 NA
ATOM     21  C   UNL     1       1.581   8.542   6.574  0.00  0.00    +0.217 A 
ATOM     22  N   UNL     1       0.487   7.790   6.476  0.00  0.00    -0.199 NA
ATOM     23  N   UNL     1       1.616   9.790   5.986  0.00  0.00    -0.327 N 
ATOM     24  N   UNL     1       3.695   6.415   8.497  0.00  0.00    -0.327 N 
ATOM     25  H   UNL     1       0.740  10.164   5.435  0.00  0.00    +0.145 HD
ATOM     26  H   UNL     1       2.520  10.411   6.068  0.00  0.00    +0.145 HD
ATOM     27  H   UNL     1       4.603   7.031   8.577  0.00  0.00    +0.145 HD
ATOM     28  H   UNL     1       3.660   5.421   8.968  0.00  0.00    +0.145 HD
ENDBRANCH  16  17
ENDBRANCH  15  16
ENDBRANCH   5  15
TORSDOF 5
