REMARK  Name = ZINC65181826
REMARK  10 active torsions:
REMARK  status: ('A' for Active; 'I' for Inactive)
REMARK    1  A    between atoms: C_1  and  C_2
REMARK    2  A    between atoms: C_5  and  C_9
REMARK    3  A    between atoms: C_6  and  C_8
REMARK    4  A    between atoms: N_11  and  C_12
REMARK    5  A    between atoms: N_11  and  C_13
REMARK    6  A    between atoms: C_13  and  C_14
REMARK    7  A    between atoms: C_14  and  C_15
REMARK    8  A    between atoms: C_18  and  C_21
REMARK    9  A    between atoms: C_27  and  O_31
REMARK   10  A    between atoms: O_31  and  C_32
REMARK                            x       y       z     vdW  Elec       q    Type
REMARK                         _______ _______ _______ _____ _____    ______ ____
ROOT
ATOM      1  C   UNL     1      -1.538  -8.367  -1.126  0.00  0.00    +0.139 C 
ATOM      2  N   UNL     1      -0.507  -9.130  -1.173  0.00  0.00    -0.072 NA
ATOM      3  O   UNL     1      -0.884 -10.494  -1.155  0.00  0.00    -0.367 OA
ATOM      4  C   UNL     1      -2.319 -10.515  -1.090  0.00  0.00    +0.318 C 
ATOM      5  N   UNL     1      -2.703  -9.095  -1.067  0.00  0.00    -0.291 N 
ATOM      6  H   UNL     1      -3.604  -8.740  -1.022  0.00  0.00    +0.151 HD
ENDROOT
BRANCH   4   7
ATOM      7  C   UNL     1      -2.786 -11.214   0.189  0.00  0.00    +0.165 C 
ATOM      8  C   UNL     1      -4.297 -11.253   0.239  0.00  0.00    +0.012 C 
ATOM      9  C   UNL     1      -4.639 -12.560   0.264  0.00  0.00    -0.004 A 
ATOM     10  C   UNL     1      -5.937 -13.246   0.315  0.00  0.00    +0.013 A 
ATOM     11  C   UNL     1      -5.966 -14.596   0.331  0.00  0.00    +0.046 A 
ATOM     12  C   UNL     1      -4.784 -15.360   0.300  0.00  0.00    +0.122 A 
ATOM     13  C   UNL     1      -3.550 -14.795   0.253  0.00  0.00    +0.071 A 
ATOM     14  C   UNL     1      -3.409 -13.385   0.232  0.00  0.00    +0.046 A 
ATOM     15  N   UNL     1      -2.345 -12.614   0.190  0.00  0.00    -0.373 N 
ATOM     16  H   UNL     1      -1.425 -12.918   0.163  0.00  0.00    +0.160 HD
BRANCH  12  17
ATOM     17  O   UNL     1      -4.881 -16.713   0.318  0.00  0.00    -0.495 OA
ATOM     18  C   UNL     1      -6.197 -17.268   0.368  0.00  0.00    +0.277 C 
ENDBRANCH  12  17
ENDBRANCH   4   7
BRANCH   1  19
ATOM     19  C   UNL     1      -1.478  -6.861  -1.128  0.00  0.00    +0.094 C 
BRANCH  19  20
ATOM     20  C   UNL     1      -0.018  -6.409  -1.201  0.00  0.00    +0.115 C 
BRANCH  20  23
ATOM     21  C   UNL     1       0.126  -4.272  -0.038  0.00  0.00    +0.247 C 
ATOM     22  O   UNL     1       0.234  -4.881   1.008  0.00  0.00    -0.270 OA
ATOM     23  N   UNL     1       0.040  -4.945  -1.203  0.00  0.00    -0.300 N 
ATOM     24  C   UNL     1       0.005  -4.212  -2.471  0.00  0.00    +0.132 C 
BRANCH  21  29
ATOM     25  C   UNL     1      -0.021   1.480  -0.021  0.00  0.00    +0.044 C 
ATOM     26  C   UNL     1       0.017  -0.026  -0.025  0.00  0.00    -0.050 A 
ATOM     27  C   UNL     1       0.878  -0.691  -0.881  0.00  0.00    +0.004 A 
ATOM     28  C   UNL     1       0.918  -2.069  -0.890  0.00  0.00    +0.013 A 
ATOM     29  C   UNL     1       0.088  -2.794  -0.034  0.00  0.00    +0.040 A 
ATOM     30  C   UNL     1      -0.778  -2.118   0.827  0.00  0.00    -0.038 A 
ATOM     31  C   UNL     1      -0.805  -0.739   0.830  0.00  0.00    +0.007 A 
ATOM     32  C   UNL     1      -1.678  -2.893   1.755  0.00  0.00    +0.044 C 
ENDBRANCH  21  29
ENDBRANCH  20  23
ENDBRANCH  19  20
ENDBRANCH   1  19
TORSDOF 6
