REMARK  Name = ZINC41224239
REMARK  5 active torsions:
REMARK  status: ('A' for Active; 'I' for Inactive)
REMARK    1  A    between atoms: C_1  and  O_2
REMARK    2  A    between atoms: O_2  and  C_3
REMARK    3  A    between atoms: C_6  and  C_11
REMARK    4  A    between atoms: C_8  and  O_9
REMARK    5  A    between atoms: N_12  and  N_13
REMARK                            x       y       z     vdW  Elec       q    Type
REMARK                         _______ _______ _______ _____ _____    ______ ____
ROOT
ATOM      1  C   UNL     1       0.606  -0.607  -1.056  0.00  0.00    +0.162 A 
ATOM      2  C   UNL     1       1.172   0.164  -2.061  0.00  0.00    +0.050 A 
ATOM      3  C   UNL     1       1.786  -0.443  -3.137  0.00  0.00    +0.014 A 
ATOM      4  C   UNL     1       1.839  -1.837  -3.217  0.00  0.00    +0.012 A 
ATOM      5  C   UNL     1       1.269  -2.613  -2.204  0.00  0.00    +0.072 A 
ATOM      6  C   UNL     1       0.660  -1.997  -1.125  0.00  0.00    +0.173 A 
ATOM      7 BR   UNL     1       1.336  -4.500  -2.304  0.00  0.00    -0.046 Br
ENDROOT
BRANCH   1   9
ATOM      8  C   UNL     1      -0.017   1.425   0.010  0.00  0.00    +0.277 C 
ATOM      9  O   UNL     1       0.002  -0.004   0.002  0.00  0.00    -0.491 OA
ENDBRANCH   1   9
BRANCH   6  10
ATOM     10  O   UNL     1       0.109  -2.749  -0.135  0.00  0.00    -0.503 OA
ATOM     11  H   UNL     1      -0.820  -2.975  -0.283  0.00  0.00    +0.292 HD
ENDBRANCH   6  10
BRANCH   4  12
ATOM     12  C   UNL     1       2.494  -2.487  -4.367  0.00  0.00    +0.141 C 
ATOM     13  N   UNL     1       2.542  -3.781  -4.439  0.00  0.00    -0.179 NA
BRANCH  13  14
ATOM     14  N   UNL     1       3.164  -4.399  -5.531  0.00  0.00    -0.249 N 
ATOM     15  C   UNL     1       3.215  -5.766  -5.608  0.00  0.00    +0.187 C 
ATOM     16  N   UNL     1       3.807  -6.354  -6.647  0.00  0.00    -0.370 N 
ATOM     17  N   UNL     1       2.673  -6.508  -4.643  0.00  0.00    -0.370 N 
ATOM     18  H   UNL     1       3.559  -3.859  -6.234  0.00  0.00    +0.192 HD
ATOM     19  H   UNL     1       4.202  -5.814  -7.349  0.00  0.00    +0.159 HD
ATOM     20  H   UNL     1       2.242  -6.080  -3.886  0.00  0.00    +0.159 HD
ATOM     21  H   UNL     1       2.709  -7.476  -4.697  0.00  0.00    +0.159 HD
ATOM     22  H   UNL     1       3.844  -7.322  -6.701  0.00  0.00    +0.159 HD
ENDBRANCH  13  14
ENDBRANCH   4  12
TORSDOF 4
