REMARK  Name = ZINC63221985
REMARK  2 active torsions:
REMARK  status: ('A' for Active; 'I' for Inactive)
REMARK    1  A    between atoms: C_4  and  C_7
REMARK    2  A    between atoms: C_10  and  C_12
REMARK                            x       y       z     vdW  Elec       q    Type
REMARK                         _______ _______ _______ _____ _____    ______ ____
ROOT
ATOM      1  C   UNL     1       7.345  -0.845  -0.069  0.00  0.00    +0.109 C 
ATOM      2  C   UNL     1       7.727  -0.051  -1.319  0.00  0.00    +0.151 C 
ATOM      3  C   UNL     1       9.130   0.469  -1.115  0.00  0.00    +0.106 C 
ATOM      4  N   UNL     1      10.095   0.205  -1.941  0.00  0.00    -0.151 NA
ATOM      5  C   UNL     1       9.928  -0.567  -3.023  0.00  0.00    +0.331 C 
ATOM      6  O   UNL     1      10.870  -0.754  -3.771  0.00  0.00    -0.250 OA
ATOM      7  N   UNL     1       8.746  -1.139  -3.303  0.00  0.00    -0.238 N 
ATOM      8  C   UNL     1       7.661  -0.934  -2.530  0.00  0.00    +0.231 C 
ATOM      9  O   UNL     1       6.613  -1.475  -2.813  0.00  0.00    -0.275 OA
ATOM     10  N   UNL     1       9.339   1.228   0.004  0.00  0.00    -0.307 N 
ATOM     11  C   UNL     1       8.687   0.872   1.163  0.00  0.00    +0.016 C 
ATOM     12  C   UNL     1       7.742  -0.084   1.175  0.00  0.00    +0.023 C 
ATOM     13  C   UNL     1       7.079  -0.424   2.373  0.00  0.00    +0.161 C 
ATOM     14  O   UNL     1       6.213  -1.276   2.352  0.00  0.00    -0.292 OA
ATOM     15  C   UNL     1       7.422   0.244   3.675  0.00  0.00    +0.080 C 
ATOM     16  C   UNL     1       8.885   0.698   3.630  0.00  0.00    +0.014 C 
ATOM     17  C   UNL     1       9.068   1.608   2.426  0.00  0.00    +0.051 C 
ATOM     18  H   UNL     1       8.669  -1.712  -4.082  0.00  0.00    +0.159 HD
ATOM     19  H   UNL     1       9.931   1.996  -0.019  0.00  0.00    +0.153 HD
ENDROOT
BRANCH   1  23
ATOM     20  C   UNL     1       3.695  -0.684  -0.038  0.00  0.00    +0.135 A 
ATOM     21  C   UNL     1       3.857  -2.034  -0.052  0.00  0.00    +0.050 A 
ATOM     22  C   UNL     1       5.246  -2.276  -0.066  0.00  0.00    +0.046 A 
ATOM     23  C   UNL     1       5.856  -1.075  -0.059  0.00  0.00    +0.114 A 
ATOM     24  O   UNL     1       4.916  -0.115  -0.048  0.00  0.00    -0.459 OA
BRANCH  20  28
ATOM     25  C   UNL     1      -0.017   1.379   0.010  0.00  0.00    +0.000 A 
ATOM     26  C   UNL     1       1.168   2.094   0.002  0.00  0.00    +0.001 A 
ATOM     27  C   UNL     1       2.377   1.429  -0.013  0.00  0.00    +0.011 A 
ATOM     28  C   UNL     1       2.404   0.034  -0.021  0.00  0.00    +0.017 A 
ATOM     29  C   UNL     1       1.204  -0.681  -0.013  0.00  0.00    +0.011 A 
ATOM     30  C   UNL     1       0.002  -0.004   0.002  0.00  0.00    +0.001 A 
ENDBRANCH  20  28
ENDBRANCH   1  23
TORSDOF 2
