REMARK  Name = ZINC32533090
REMARK  6 active torsions:
REMARK  status: ('A' for Active; 'I' for Inactive)
REMARK    1  A    between atoms: C_1  and  N_2
REMARK    2  A    between atoms: C_5  and  C_7
REMARK    3  A    between atoms: C_15  and  N_19
REMARK    4  A    between atoms: N_19  and  C_20
REMARK    5  A    between atoms: C_20  and  C_21
REMARK    6  A    between atoms: C_21  and  N_27
REMARK                            x       y       z     vdW  Elec       q    Type
REMARK                         _______ _______ _______ _____ _____    ______ ____
ROOT
ATOM      1  C   UNL     1      -1.365   0.200   0.968  0.00  0.00    +0.172 C 
ATOM      2  N   UNL     1      -1.164  -1.225   0.692  0.00  0.00    -0.270 N 
ATOM      3  C   UNL     1      -0.920  -1.748  -0.521  0.00  0.00    +0.043 A 
ATOM      4  C   UNL     1      -0.797  -3.088  -0.362  0.00  0.00    +0.004 A 
ATOM      5  C   UNL     1      -0.978  -3.333   1.009  0.00  0.00    +0.151 A 
ATOM      6  N   UNL     1      -1.190  -2.159   1.579  0.00  0.00    -0.166 NA
ATOM      7  C   UNL     1      -0.523  -4.059  -1.478  0.00  0.00    +0.023 C 
ATOM      8  C   UNL     1      -0.814  -3.355  -2.810  0.00  0.00    -0.067 C 
ATOM      9  C   UNL     1      -0.109  -1.996  -2.836  0.00  0.00    -0.009 C 
ATOM     10  C   UNL     1      -0.792  -1.043  -1.847  0.00  0.00    +0.054 C 
ENDROOT
BRANCH   5  11
ATOM     11  C   UNL     1      -0.934  -4.646   1.684  0.00  0.00    +0.267 C 
ATOM     12  O   UNL     1      -0.723  -5.655   1.039  0.00  0.00    -0.268 OA
ATOM     13  N   UNL     1      -1.127  -4.726   3.016  0.00  0.00    -0.296 N 
ATOM     14  C   UNL     1      -1.396  -3.593   3.912  0.00  0.00    +0.108 C 
ATOM     15  C   UNL     1      -1.521  -4.159   5.343  0.00  0.00    +0.020 C 
ATOM     16  C   UNL     1      -0.754  -5.505   5.251  0.00  0.00    +0.020 C 
ATOM     17  C   UNL     1      -1.110  -5.966   3.814  0.00  0.00    +0.108 C 
ENDBRANCH   5  11
BRANCH   8  18
ATOM     18  N   UNL     1      -0.320  -4.183  -3.919  0.00  0.00    +0.380 N 
ATOM     19  H   UNL     1       0.685  -4.251  -3.866  0.00  0.00    -0.086 HD
ATOM     20  H   UNL     1      -0.723  -5.106  -3.855  0.00  0.00    -0.086 HD
BRANCH  18  21
ATOM     21  C   UNL     1      -0.703  -3.569  -5.197  0.00  0.00    -0.095 C 
BRANCH  21  22
ATOM     22  C   UNL     1      -0.308  -4.497  -6.348  0.00  0.00    -0.081 C 
ATOM     23  C   UNL     1      -0.586  -3.802  -7.682  0.00  0.00    -0.014 C 
ATOM     24  C   UNL     1      -2.076  -3.470  -7.784  0.00  0.00    -0.001 C 
ATOM     25  C   UNL     1      -2.893  -4.760  -7.701  0.00  0.00    -0.000 C 
ATOM     26  C   UNL     1      -2.615  -5.456  -6.367  0.00  0.00    -0.001 C 
ATOM     27  C   UNL     1      -1.125  -5.788  -6.265  0.00  0.00    -0.014 C 
BRANCH  22  28
ATOM     28  N   UNL     1       1.123  -4.816  -6.250  0.00  0.00    +0.382 N 
ATOM     29  C   UNL     1       1.907  -3.581  -6.369  0.00  0.00    -0.078 C 
ATOM     30  C   UNL     1       3.393  -3.897  -6.188  0.00  0.00    -0.019 C 
ATOM     31  C   UNL     1       3.834  -4.890  -7.267  0.00  0.00    -0.004 C 
ATOM     32  C   UNL     1       2.960  -6.144  -7.181  0.00  0.00    -0.019 C 
ATOM     33  C   UNL     1       1.490  -5.745  -7.326  0.00  0.00    -0.078 C 
ATOM     34  H   UNL     1       1.310  -5.246  -5.357  0.00  0.00    -0.081 HD
ENDBRANCH  22  28
ENDBRANCH  21  22
ENDBRANCH  18  21
ENDBRANCH   8  18
TORSDOF 5
