REMARK  Name = ZINC39006869
REMARK  10 active torsions:
REMARK  status: ('A' for Active; 'I' for Inactive)
REMARK    1  A    between atoms: C_1  and  C_2
REMARK    2  A    between atoms: C_2  and  C_3
REMARK    3  A    between atoms: C_2  and  C_4
REMARK    4  A    between atoms: C_7  and  N_10
REMARK    5  A    between atoms: C_11  and  C_13
REMARK    6  A    between atoms: C_13  and  S_14
REMARK    7  A    between atoms: S_14  and  C_15
REMARK    8  A    between atoms: C_19  and  C_23
REMARK    9  A    between atoms: N_21  and  N_22
REMARK   10  A    between atoms: C_26  and  C_29
REMARK                            x       y       z     vdW  Elec       q    Type
REMARK                         _______ _______ _______ _____ _____    ______ ____
ROOT
ATOM      1  C   UNL     1      -9.315  -4.431  -2.480  0.00  0.00    +0.214 C 
ATOM      2  N   UNL     1      -9.569  -5.223  -1.255  0.00  0.00    -0.228 NA
ATOM      3  N   UNL     1     -10.885  -4.763  -0.785  0.00  0.00    -0.234 NA
ATOM      4  C   UNL     1     -10.853  -3.305  -1.075  0.00  0.00    +0.185 C 
ATOM      5  N   UNL     1     -10.133  -3.206  -2.367  0.00  0.00    -0.197 NA
ATOM      6  H   UNL     1      -8.857  -5.053  -0.561  0.00  0.00    +0.143 HD
ATOM      7  H   UNL     1     -11.629  -5.216  -1.294  0.00  0.00    +0.143 HD
ENDROOT
BRANCH   4   8
ATOM      8  C   UNL     1     -12.274  -2.755  -1.208  0.00  0.00    +0.187 C 
ATOM      9  C   UNL     1     -13.022  -2.878   0.108  0.00  0.00    +0.034 C 
ATOM     10  C   UNL     1     -14.058  -3.688  -0.184  0.00  0.00    +0.091 C 
ATOM     11  N   UNL     1     -14.018  -4.056  -1.492  0.00  0.00    -0.154 NA
ATOM     12  N   UNL     1     -13.069  -3.584  -2.129  0.00  0.00    -0.176 NA
BRANCH  10  13
ATOM     13  C   UNL     1     -15.095  -4.119   0.785  0.00  0.00    +0.002 A 
ATOM     14  C   UNL     1     -15.044  -3.677   2.106  0.00  0.00    +0.011 A 
ATOM     15  C   UNL     1     -16.012  -4.081   3.004  0.00  0.00    +0.020 A 
ATOM     16  C   UNL     1     -17.032  -4.923   2.594  0.00  0.00    +0.041 A 
ATOM     17  C   UNL     1     -17.087  -5.364   1.283  0.00  0.00    +0.020 A 
ATOM     18  C   UNL     1     -16.128  -4.961   0.376  0.00  0.00    +0.011 A 
ATOM     19 CL   UNL     1     -18.245  -5.427   3.728  0.00  0.00    -0.084 Cl
ENDBRANCH  10  13
ENDBRANCH   4   8
BRANCH   5  20
ATOM     20  N   UNL     1     -11.066  -3.098  -3.477  0.00  0.00    -0.264 NA
ATOM     21  H   UNL     1     -10.577  -3.066  -4.359  0.00  0.00    +0.137 HD
ATOM     22  H   UNL     1     -11.735  -3.854  -3.462  0.00  0.00    +0.137 HD
ENDBRANCH   5  20
BRANCH   1  23
ATOM     23  S   UNL     1      -7.557  -3.997  -2.587  0.00  0.00    -0.115 S 
BRANCH  23  24
ATOM     24  C   UNL     1      -7.236  -3.087  -1.052  0.00  0.00    +0.168 C 
BRANCH  24  26
ATOM     25  N   UNL     1      -5.320  -1.968   0.042  0.00  0.00    -0.285 N 
ATOM     26  C   UNL     1      -5.790  -2.663  -1.013  0.00  0.00    +0.227 C 
ATOM     27  O   UNL     1      -5.050  -2.946  -1.931  0.00  0.00    -0.275 OA
ATOM     28  H   UNL     1      -5.891  -1.807   0.810  0.00  0.00    +0.155 HD
BRANCH  25  32
ATOM     29  C   UNL     1      -1.418  -0.509   0.005  0.00  0.00    -0.045 A 
ATOM     30  C   UNL     1      -2.137  -0.586  -1.174  0.00  0.00    +0.006 A 
ATOM     31  C   UNL     1      -3.431  -1.069  -1.165  0.00  0.00    +0.023 A 
ATOM     32  C   UNL     1      -4.010  -1.478   0.030  0.00  0.00    +0.033 A 
ATOM     33  C   UNL     1      -3.284  -1.400   1.212  0.00  0.00    +0.023 A 
ATOM     34  C   UNL     1      -1.989  -0.920   1.195  0.00  0.00    +0.006 A 
BRANCH  29  36
ATOM     35  C   UNL     1       0.857  -0.856  -0.919  0.00  0.00    +0.012 C 
ATOM     36  C   UNL     1      -0.007   0.019  -0.009  0.00  0.00    +0.013 C 
ATOM     37  C   UNL     1      -0.005   1.457  -0.532  0.00  0.00    +0.012 C 
ENDBRANCH  29  36
ENDBRANCH  25  32
ENDBRANCH  24  26
ENDBRANCH  23  24
ENDBRANCH   1  23
TORSDOF 8
