REMARK  Name = ZINC21004820
REMARK  10 active torsions:
REMARK  status: ('A' for Active; 'I' for Inactive)
REMARK    1  A    between atoms: C_1  and  C_2
REMARK    2  A    between atoms: C_5  and  N_22
REMARK    3  A    between atoms: C_6  and  N_8
REMARK    4  A    between atoms: C_9  and  C_11
REMARK    5  A    between atoms: C_17  and  C_19
REMARK    6  A    between atoms: C_23  and  C_25
REMARK    7  A    between atoms: C_25  and  O_26
REMARK    8  A    between atoms: O_26  and  C_27
REMARK    9  A    between atoms: C_30  and  C_34
REMARK   10  A    between atoms: C_31  and  C_33
REMARK                            x       y       z     vdW  Elec       q    Type
REMARK                         _______ _______ _______ _____ _____    ______ ____
ROOT
ATOM      1  C   UNL     1      -1.412  -0.615  -0.162  0.00  0.00    +0.044 C 
ATOM      2  C   UNL     1      -0.086   0.102  -0.134  0.00  0.00    -0.049 A 
ATOM      3  C   UNL     1       1.090  -0.625  -0.123  0.00  0.00    +0.005 A 
ATOM      4  C   UNL     1       2.309   0.026  -0.097  0.00  0.00    +0.025 A 
ATOM      5  C   UNL     1       2.355   1.412  -0.083  0.00  0.00    +0.055 A 
ATOM      6  C   UNL     1       1.168   2.145  -0.095  0.00  0.00    +0.055 A 
ATOM      7  C   UNL     1      -0.050   1.483  -0.120  0.00  0.00    +0.028 A 
ENDROOT
BRANCH   6   8
ATOM      8  N   UNL     1       1.207   3.545  -0.081  0.00  0.00    -0.284 N 
ATOM      9  C   UNL     1       0.175   4.253  -0.580  0.00  0.00    +0.221 C 
ATOM     10  O   UNL     1      -0.742   3.681  -1.132  0.00  0.00    -0.275 OA
ATOM     11  H   UNL     1       2.081   4.067   0.338  0.00  0.00    +0.155 HD
BRANCH   9  12
ATOM     12  C   UNL     1       0.159   5.754  -0.452  0.00  0.00    +0.089 C 
ATOM     13  C   UNL     1       0.190   6.140   1.028  0.00  0.00    +0.013 C 
ATOM     14  C   UNL     1       0.174   7.665   1.158  0.00  0.00    +0.001 C 
ATOM     15  C   UNL     1      -1.099   8.218   0.514  0.00  0.00    +0.001 C 
ATOM     16  C   UNL     1      -1.130   7.832  -0.967  0.00  0.00    +0.015 C 
ATOM     17  C   UNL     1      -1.114   6.307  -1.096  0.00  0.00    +0.114 C 
BRANCH  17  18
ATOM     18  C   UNL     1      -1.145   5.927  -2.554  0.00  0.00    +0.360 C 
ATOM     19  O   UNL     1      -0.242   5.280  -3.029  0.00  0.00    -0.246 OA
ATOM     20  O   UNL     1      -2.176   6.307  -3.325  0.00  0.00    -0.246 OA
ENDBRANCH  17  18
ENDBRANCH   9  12
ENDBRANCH   6   8
BRANCH   5  21
ATOM     21  N   UNL     1       3.589   2.074  -0.057  0.00  0.00    -0.281 N 
ATOM     22  C   UNL     1       4.625   1.542   0.622  0.00  0.00    +0.255 C 
ATOM     23  O   UNL     1       4.515   0.450   1.138  0.00  0.00    -0.272 OA
ATOM     24  H   UNL     1       3.713   3.028  -0.590  0.00  0.00    +0.155 HD
BRANCH  22  25
ATOM     25  C   UNL     1       5.919   2.305   0.741  0.00  0.00    +0.324 C 
BRANCH  25  26
ATOM     26  O   UNL     1       6.855   1.538   1.501  0.00  0.00    -0.483 OA
BRANCH  26  27
ATOM     27  C   UNL     1       8.082   2.087   1.702  0.00  0.00    +0.121 A 
ATOM     28  C   UNL     1       8.379   3.337   1.179  0.00  0.00    +0.046 A 
ATOM     29  C   UNL     1       9.627   3.892   1.386  0.00  0.00    +0.007 A 
ATOM     30  C   UNL     1      10.580   3.203   2.113  0.00  0.00    -0.047 A 
ATOM     31  C   UNL     1      10.287   1.957   2.635  0.00  0.00    -0.044 A 
ATOM     32  C   UNL     1       9.038   1.399   2.436  0.00  0.00    +0.049 A 
ATOM     33  C   UNL     1      11.328   1.209   3.428  0.00  0.00    +0.044 C 
ATOM     34  C   UNL     1      11.940   3.811   2.337  0.00  0.00    +0.044 C 
ENDBRANCH  26  27
ENDBRANCH  25  26
ENDBRANCH  22  25
ENDBRANCH   5  21
TORSDOF 7
