REMARK  Name = ZINC63809455
REMARK  6 active torsions:
REMARK  status: ('A' for Active; 'I' for Inactive)
REMARK    1  A    between atoms: C_1  and  C_2
REMARK    2  A    between atoms: C_2  and  C_3
REMARK    3  A    between atoms: C_3  and  C_4
REMARK    4  A    between atoms: C_3  and  N_11
REMARK    5  A    between atoms: C_7  and  C_10
REMARK    6  A    between atoms: C_12  and  C_14
REMARK                            x       y       z     vdW  Elec       q    Type
REMARK                         _______ _______ _______ _____ _____    ______ ____
ROOT
ATOM      1  N   UNL     1       2.125  -0.091  -1.209  0.00  0.00    -0.305 N 
ATOM      2  C   UNL     1       2.487   1.134  -1.640  0.00  0.00    +0.245 C 
ATOM      3  O   UNL     1       1.647   1.901  -2.067  0.00  0.00    -0.270 OA
ATOM      4  H   UNL     1       2.795  -0.703  -0.868  0.00  0.00    +0.150 HD
ENDROOT
BRANCH   2   5
ATOM      5  C   UNL     1       3.910   1.545  -1.592  0.00  0.00    +0.039 A 
ATOM      6  C   UNL     1       4.875   0.651  -1.102  0.00  0.00    +0.014 A 
ATOM      7  C   UNL     1       6.189   1.006  -1.048  0.00  0.00    +0.016 A 
ATOM      8  C   UNL     1       6.588   2.277  -1.485  0.00  0.00    +0.065 A 
ATOM      9  C   UNL     1       5.622   3.190  -1.982  0.00  0.00    +0.080 A 
ATOM     10  C   UNL     1       4.275   2.805  -2.036  0.00  0.00    +0.041 A 
ATOM     11  N   UNL     1       6.021   4.401  -2.397  0.00  0.00    -0.223 NA
ATOM     12  C   UNL     1       7.298   4.748  -2.345  0.00  0.00    +0.180 A 
ATOM     13  N   UNL     1       8.250   3.920  -1.884  0.00  0.00    -0.301 N 
ATOM     14  H   UNL     1       9.174   4.217  -1.865  0.00  0.00    +0.171 HD
ATOM     15  C   UNL     1       7.940   2.681  -1.446  0.00  0.00    +0.260 A 
ATOM     16  O   UNL     1       8.894   1.854  -0.984  0.00  0.00    -0.267 OA
ATOM     17  S   UNL     1       7.752   6.307  -2.887  0.00  0.00    -0.011 S 
ENDBRANCH   2   5
BRANCH   1  18
ATOM     18  C   UNL     1       0.718  -0.497  -1.257  0.00  0.00    +0.103 C 
BRANCH  18  19
ATOM     19  C   UNL     1       0.632  -2.000  -1.327  0.00  0.00    -0.027 A 
ATOM     20  C   UNL     1       1.488  -2.778  -0.571  0.00  0.00    +0.006 A 
ATOM     21  C   UNL     1       1.408  -4.157  -0.636  0.00  0.00    +0.004 A 
ATOM     22  C   UNL     1       0.472  -4.757  -1.457  0.00  0.00    -0.050 A 
ATOM     23  C   UNL     1      -0.384  -3.979  -2.213  0.00  0.00    +0.004 A 
ATOM     24  C   UNL     1      -0.308  -2.601  -2.145  0.00  0.00    +0.006 A 
ATOM     25  C   UNL     1       0.387  -6.260  -1.528  0.00  0.00    +0.044 C 
ENDBRANCH  18  19
BRANCH  18  27
ATOM     26  C   UNL     1      -0.019   1.526   0.010  0.00  0.00    +0.006 C 
ATOM     27  C   UNL     1       0.002  -0.004   0.002  0.00  0.00    +0.024 C 
ENDBRANCH  18  27
ENDBRANCH   1  18
TORSDOF 4
