REMARK  Name = ZINC12389460
REMARK  4 active torsions:
REMARK  status: ('A' for Active; 'I' for Inactive)
REMARK    1  A    between atoms: C_2  and  C_3
REMARK    2  A    between atoms: C_3  and  N_4
REMARK    3  A    between atoms: C_5  and  C_7
REMARK    4  A    between atoms: C_12  and  N_13
REMARK                            x       y       z     vdW  Elec       q    Type
REMARK                         _______ _______ _______ _____ _____    ______ ____
ROOT
ATOM      1  C   UNL     1      -0.900   1.889  -3.607  0.00  0.00    +0.062 A 
ATOM      2  C   UNL     1      -2.105   2.581  -3.470  0.00  0.00    +0.016 A 
ATOM      3  C   UNL     1      -2.846   2.900  -4.588  0.00  0.00    +0.021 A 
ATOM      4  C   UNL     1      -2.406   2.526  -5.848  0.00  0.00    +0.043 A 
ATOM      5  C   UNL     1      -1.217   1.836  -5.997  0.00  0.00    +0.048 A 
ATOM      6  C   UNL     1      -0.457   1.513  -4.883  0.00  0.00    +0.082 A 
ATOM      7 CL   UNL     1      -3.352   2.928  -7.247  0.00  0.00    -0.083 Cl
ENDROOT
BRANCH   6   8
ATOM      8  N   UNL     1       0.746   0.815  -5.032  0.00  0.00    -0.199 N 
ATOM      9  C   UNL     1       1.820   1.177  -5.768  0.00  0.00    +0.250 A 
ATOM     10  N   UNL     1       2.721   0.242  -5.624  0.00  0.00    -0.116 NA
ATOM     11  N   UNL     1       2.289  -0.691  -4.855  0.00  0.00    -0.023 NA
ATOM     12  N   UNL     1       1.094  -0.418  -4.453  0.00  0.00    -0.039 NA
ENDBRANCH   6   8
BRANCH   1  14
ATOM     13  N   UNL     1      -0.587   1.797  -1.183  0.00  0.00    -0.308 N 
ATOM     14  C   UNL     1      -0.099   1.551  -2.415  0.00  0.00    +0.246 C 
ATOM     15  O   UNL     1       1.001   1.050  -2.544  0.00  0.00    -0.270 OA
ATOM     16  H   UNL     1      -1.465   2.197  -1.080  0.00  0.00    +0.149 HD
BRANCH  13  17
ATOM     17  C   UNL     1       0.207   1.461   0.001  0.00  0.00    +0.131 C 
BRANCH  17  19
ATOM     18  C   UNL     1      -0.785   0.934   2.168  0.00  0.00    +0.005 C 
ATOM     19  C   UNL     1      -0.560   1.834   1.243  0.00  0.00    -0.016 C 
ENDBRANCH  17  19
ENDBRANCH  13  17
ENDBRANCH   1  14
TORSDOF 4
