REMARK  Name = ZINC63110953
REMARK  11 active torsions:
REMARK  status: ('A' for Active; 'I' for Inactive)
REMARK    1  A    between atoms: C_1  and  C_2
REMARK    2  A    between atoms: N_4  and  C_5
REMARK    3  A    between atoms: C_5  and  C_7
REMARK    4  A    between atoms: C_5  and  C_17
REMARK    5  A    between atoms: C_7  and  C_8
REMARK    6  A    between atoms: N_19  and  C_20
REMARK    7  A    between atoms: C_20  and  C_21
REMARK    8  A    between atoms: C_21  and  C_23
REMARK    9  A    between atoms: C_21  and  N_30
REMARK   10  A    between atoms: N_30  and  C_31
REMARK   11  A    between atoms: N_30  and  C_32
REMARK                            x       y       z     vdW  Elec       q    Type
REMARK                         _______ _______ _______ _____ _____    ______ ____
ROOT
ATOM      1  C   UNL     1      -0.058  -2.109   0.004  0.00  0.00    +0.163 C 
ENDROOT
BRANCH   1   5
ATOM      2  C   UNL     1       1.495   1.377   0.298  0.00  0.00    +0.109 C 
ATOM      3  C   UNL     1       1.325  -0.120   0.262  0.00  0.00    +0.211 C 
ATOM      4  O   UNL     1       2.283  -0.844   0.432  0.00  0.00    -0.276 OA
ATOM      5  N   UNL     1       0.107  -0.654   0.039  0.00  0.00    -0.304 N 
ATOM      6  H   UNL     1      -0.659  -0.075  -0.098  0.00  0.00    +0.149 HD
ENDBRANCH   1   5
BRANCH   1   7
ATOM      7  C   UNL     1       0.360  -2.695   1.328  0.00  0.00    +0.234 C 
ATOM      8  O   UNL     1       1.079  -2.062   2.071  0.00  0.00    -0.274 OA
ATOM      9  N   UNL     1      -0.066  -3.922   1.686  0.00  0.00    -0.315 N 
ATOM     10  H   UNL     1      -0.642  -4.429   1.092  0.00  0.00    +0.149 HD
BRANCH   9  11
ATOM     11  C   UNL     1       0.341  -4.492   2.974  0.00  0.00    +0.093 C 
BRANCH  11  12
ATOM     12  C   UNL     1      -0.371  -5.829   3.187  0.00  0.00    -0.020 C 
BRANCH  12  13
ATOM     13  C   UNL     1      -1.855  -5.596   3.302  0.00  0.00    -0.041 A 
ATOM     14  C   UNL     1      -2.678  -5.826   2.215  0.00  0.00    +0.003 A 
ATOM     15  C   UNL     1      -4.039  -5.612   2.321  0.00  0.00    +0.000 A 
ATOM     16  C   UNL     1      -4.579  -5.168   3.514  0.00  0.00    +0.001 A 
ATOM     17  C   UNL     1      -3.758  -4.938   4.601  0.00  0.00    +0.020 A 
ATOM     18  C   UNL     1      -2.396  -5.157   4.498  0.00  0.00    +0.043 A 
ATOM     19 CL   UNL     1      -1.365  -4.874   5.865  0.00  0.00    -0.083 Cl
ENDBRANCH  12  13
BRANCH  12  20
ATOM     20  N   UNL     1      -0.102  -6.715   2.046  0.00  0.00    +0.382 N 
ATOM     21  C   UNL     1       1.349  -6.837   1.853  0.00  0.00    -0.096 C 
ATOM     22  C   UNL     1      -0.674  -8.042   2.311  0.00  0.00    -0.096 C 
ATOM     23  H   UNL     1      -0.520  -6.328   1.214  0.00  0.00    -0.082 HD
ENDBRANCH  12  20
ENDBRANCH  11  12
ENDBRANCH   9  11
ENDBRANCH   1   7
BRANCH   1  24
ATOM     24  C   UNL     1       0.812  -2.695  -1.111  0.00  0.00    +0.065 C 
BRANCH  24  25
ATOM     25  C   UNL     1       0.315  -2.204  -2.446  0.00  0.00    -0.039 C 
ATOM     26  C   UNL     1       0.776  -1.142  -3.145  0.00  0.00    -0.001 A 
ATOM     27  C   UNL     1       1.837  -0.163  -2.881  0.00  0.00    +0.010 A 
ATOM     28  C   UNL     1       2.072   0.811  -3.790  0.00  0.00    +0.001 A 
ATOM     29  C   UNL     1       1.329   0.908  -4.974  0.00  0.00    +0.002 A 
ATOM     30  C   UNL     1       0.338   0.046  -5.287  0.00  0.00    +0.026 A 
ATOM     31  C   UNL     1       0.006  -1.018  -4.404  0.00  0.00    +0.043 A 
ATOM     32  N   UNL     1      -0.896  -1.966  -4.479  0.00  0.00    -0.380 N 
ATOM     33  C   UNL     1      -0.796  -2.804  -3.279  0.00  0.00    +0.144 C 
ATOM     34  H   UNL     1      -1.522  -2.095  -5.209  0.00  0.00    +0.160 HD
ENDBRANCH  24  25
ENDBRANCH   1  24
TORSDOF 8
