REMARK  Name = ZINC16202775
REMARK  8 active torsions:
REMARK  status: ('A' for Active; 'I' for Inactive)
REMARK    1  A    between atoms: C_1  and  C_2
REMARK    2  A    between atoms: C_2  and  N_3
REMARK    3  A    between atoms: C_4  and  C_34
REMARK    4  A    between atoms: C_10  and  C_12
REMARK    5  A    between atoms: N_14  and  N_15
REMARK    6  A    between atoms: C_16  and  C_18
REMARK    7  A    between atoms: C_18  and  C_19
REMARK    8  A    between atoms: C_19  and  N_20
REMARK                            x       y       z     vdW  Elec       q    Type
REMARK                         _______ _______ _______ _____ _____    ______ ____
ROOT
ATOM      1  N   UNL     1       3.201  -7.695  -3.612  0.00  0.00    -0.234 N 
ATOM      2  C   UNL     1       3.091  -7.187  -2.368  0.00  0.00    +0.231 C 
ATOM      3  O   UNL     1       3.752  -7.650  -1.463  0.00  0.00    -0.274 OA
ATOM      4  H   UNL     1       2.672  -7.325  -4.335  0.00  0.00    +0.173 HD
ENDROOT
BRANCH   1   7
ATOM      5  C   UNL     1       4.188  -9.267  -5.102  0.00  0.00    +0.260 C 
ATOM      6  O   UNL     1       3.525  -8.803  -6.009  0.00  0.00    -0.269 OA
ATOM      7  N   UNL     1       4.079  -8.759  -3.859  0.00  0.00    -0.230 N 
ATOM      8  H   UNL     1       4.607  -9.129  -3.135  0.00  0.00    +0.173 HD
BRANCH   5  16
ATOM      9  N   UNL     1       7.617 -13.510  -6.359  0.00  0.00    -0.328 N 
ATOM     10  C   UNL     1       7.317 -13.583  -7.684  0.00  0.00    +0.108 A 
ATOM     11  N   UNL     1       6.430 -12.682  -7.992  0.00  0.00    -0.233 NA
ATOM     12  C   UNL     1       6.101 -11.969  -6.883  0.00  0.00    +0.090 A 
ATOM     13  C   UNL     1       6.860 -12.493  -5.820  0.00  0.00    +0.069 A 
ATOM     14  C   UNL     1       6.735 -11.957  -4.543  0.00  0.00    +0.029 A 
ATOM     15  C   UNL     1       5.877 -10.921  -4.315  0.00  0.00    +0.015 A 
ATOM     16  C   UNL     1       5.114 -10.388  -5.362  0.00  0.00    +0.040 A 
ATOM     17  C   UNL     1       5.221 -10.915  -6.646  0.00  0.00    +0.043 A 
ATOM     18  C   UNL     1       7.923 -14.564  -8.654  0.00  0.00    +0.086 C 
BRANCH   9  20
ATOM     19  C   UNL     1       7.846 -15.592  -5.097  0.00  0.00    +0.027 C 
ATOM     20  C   UNL     1       8.570 -14.358  -5.638  0.00  0.00    +0.120 C 
ENDBRANCH   9  20
ENDBRANCH   5  16
ENDBRANCH   1   7
BRANCH   2  21
ATOM     21  C   UNL     1       2.147  -6.043  -2.103  0.00  0.00    +0.119 C 
BRANCH  21  22
ATOM     22  C   UNL     1       2.213  -5.659  -0.623  0.00  0.00    +0.135 C 
BRANCH  22  23
ATOM     23  N   UNL     1       1.295  -4.547  -0.365  0.00  0.00    -0.298 N 
ATOM     24  C   UNL     1       0.019  -4.832  -0.011  0.00  0.00    +0.203 A 
ATOM     25  N   UNL     1      -0.879  -3.905   0.240  0.00  0.00    -0.230 NA
ATOM     26  C   UNL     1      -0.494  -2.637   0.136  0.00  0.00    +0.116 A 
ATOM     27  C   UNL     1       0.812  -2.239  -0.226  0.00  0.00    +0.076 A 
ATOM     28  C   UNL     1       1.762  -3.282  -0.491  0.00  0.00    +0.262 A 
ATOM     29  O   UNL     1       2.914  -3.045  -0.810  0.00  0.00    -0.267 OA
ATOM     30  C   UNL     1       1.051  -0.808  -0.290  0.00  0.00    -0.023 A 
ATOM     31  C   UNL     1       0.002  -0.004   0.002  0.00  0.00    -0.004 A 
ATOM     32  S   UNL     1      -1.339  -1.106   0.372  0.00  0.00    -0.073 S 
ATOM     33  C   UNL     1      -0.018   1.493   0.010  0.00  0.00    +0.043 C 
ATOM     34  C   UNL     1       1.431   1.999  -0.001  0.00  0.00    +0.005 C 
ATOM     35  C   UNL     1       2.205   1.245  -1.085  0.00  0.00    +0.005 C 
ATOM     36  C   UNL     1       2.405  -0.211  -0.663  0.00  0.00    +0.037 C 
ENDBRANCH  22  23
ENDBRANCH  21  22
ENDBRANCH   2  21
TORSDOF 6
