REMARK  Name = ZINC08846153
REMARK  9 active torsions:
REMARK  status: ('A' for Active; 'I' for Inactive)
REMARK    1  A    between atoms: C_1  and  O_2
REMARK    2  A    between atoms: O_2  and  C_3
REMARK    3  A    between atoms: C_5  and  C_17
REMARK    4  A    between atoms: C_8  and  O_9
REMARK    5  A    between atoms: O_9  and  C_10
REMARK    6  A    between atoms: C_10  and  C_11
REMARK    7  A    between atoms: C_22  and  N_31
REMARK    8  A    between atoms: C_26  and  N_30
REMARK    9  A    between atoms: C_27  and  C_28
REMARK                            x       y       z     vdW  Elec       q    Type
REMARK                         _______ _______ _______ _____ _____    ______ ____
ROOT
ATOM      1  C   UNL     1       1.296  -0.768  -0.013  0.00  0.00    +0.098 C 
ATOM      2  C   UNL     1       2.428   0.134  -0.430  0.00  0.00    +0.008 A 
ATOM      3  C   UNL     1       3.625  -0.424  -0.844  0.00  0.00    +0.010 A 
ATOM      4  C   UNL     1       4.674   0.385  -1.230  0.00  0.00    +0.023 A 
ATOM      5  C   UNL     1       4.531   1.767  -1.202  0.00  0.00    +0.028 A 
ATOM      6  C   UNL     1       3.332   2.329  -0.787  0.00  0.00    +0.069 A 
ATOM      7  C   UNL     1       2.279   1.512  -0.400  0.00  0.00    +0.136 A 
ATOM      8  O   UNL     1       1.114   2.076   0.003  0.00  0.00    -0.441 OA
ATOM      9  C   UNL     1      -0.016   1.350   0.009  0.00  0.00    +0.199 C 
ATOM     10  C   UNL     1       0.002  -0.004   0.002  0.00  0.00    +0.098 C 
ENDROOT
BRANCH   1  13
ATOM     11  C   UNL     1       1.943  -3.176   2.825  0.00  0.00    +0.162 A 
ATOM     12  C   UNL     1       1.685  -2.675   1.559  0.00  0.00    +0.054 A 
ATOM     13  C   UNL     1       1.572  -1.311   1.365  0.00  0.00    -0.031 A 
ATOM     14  C   UNL     1       1.705  -0.444   2.434  0.00  0.00    +0.008 A 
ATOM     15  C   UNL     1       1.958  -0.938   3.700  0.00  0.00    +0.050 A 
ATOM     16  C   UNL     1       2.078  -2.304   3.901  0.00  0.00    +0.162 A 
BRANCH  11  18
ATOM     17  C   UNL     1       1.910  -5.352   1.866  0.00  0.00    +0.277 C 
ATOM     18  O   UNL     1       2.060  -4.517   3.016  0.00  0.00    -0.491 OA
ENDBRANCH  11  18
BRANCH  16  19
ATOM     19  O   UNL     1       2.327  -2.790   5.146  0.00  0.00    -0.484 OA
BRANCH  19  20
ATOM     20  C   UNL     1       2.454  -1.836   6.202  0.00  0.00    +0.264 C 
BRANCH  20  21
ATOM     21  C   UNL     1       2.726  -2.555   7.498  0.00  0.00    -0.010 A 
ATOM     22  C   UNL     1       1.675  -2.953   8.302  0.00  0.00    +0.007 A 
ATOM     23  C   UNL     1       1.924  -3.617   9.489  0.00  0.00    +0.000 A 
ATOM     24  C   UNL     1       3.226  -3.874   9.876  0.00  0.00    +0.000 A 
ATOM     25  C   UNL     1       4.278  -3.471   9.075  0.00  0.00    +0.000 A 
ATOM     26  C   UNL     1       4.028  -2.812   7.886  0.00  0.00    +0.007 A 
ENDBRANCH  20  21
ENDBRANCH  19  20
ENDBRANCH  16  19
ENDBRANCH   1  13
BRANCH   9  27
ATOM     27  N   UNL     1      -1.226   1.999   0.019  0.00  0.00    -0.328 N 
ATOM     28  H   UNL     1      -2.050   1.489   0.020  0.00  0.00    +0.145 HD
ATOM     29  H   UNL     1      -1.255   2.969   0.024  0.00  0.00    +0.145 HD
ENDBRANCH   9  27
BRANCH   5  30
ATOM     30  N   UNL     1       5.591   2.589  -1.592  0.00  0.00    -0.358 N 
ATOM     31  H   UNL     1       5.489   3.553  -1.573  0.00  0.00    +0.142 HD
ATOM     32  H   UNL     1       6.428   2.195  -1.883  0.00  0.00    +0.142 HD
ENDBRANCH   5  30
BRANCH  10  33
ATOM     33  C   UNL     1      -1.237  -0.723   0.010  0.00  0.00    +0.101 C 
ATOM     34  N   UNL     1      -2.219  -1.292   0.016  0.00  0.00    -0.191 NA
ENDBRANCH  10  33
TORSDOF 8
