REMARK  Name = ZINC03259532
REMARK  6 active torsions:
REMARK  status: ('A' for Active; 'I' for Inactive)
REMARK    1  A    between atoms: C_1  and  C_2
REMARK    2  A    between atoms: C_7  and  C_9
REMARK    3  A    between atoms: C_7  and  C_10
REMARK    4  A    between atoms: N_11  and  C_13
REMARK    5  A    between atoms: C_13  and  N_15
REMARK    6  A    between atoms: C_16  and  C_18
REMARK                            x       y       z     vdW  Elec       q    Type
REMARK                         _______ _______ _______ _____ _____    ______ ____
ROOT
ATOM      1  C   UNL     1      -2.281  -2.741  -1.094  0.00  0.00    +0.140 C 
ATOM      2  S   UNL     1      -1.959  -4.168  -1.984  0.00  0.00    -0.018 S 
ENDROOT
BRANCH   1  12
ATOM      3  C   UNL     1      -0.019   1.532   0.011  0.00  0.00    +0.013 C 
ATOM      4  C   UNL     1       0.002  -0.004   0.002  0.00  0.00    -0.014 C 
ATOM      5  C   UNL     1       0.686  -0.578  -1.269  0.00  0.00    +0.030 C 
ATOM      6  C   UNL     1       0.129  -2.024  -1.231  0.00  0.00    +0.076 C 
ATOM      7  C   UNL     1       0.889  -2.772  -0.139  0.00  0.00    +0.029 C 
ATOM      8  C   UNL     1       0.823  -2.104   1.223  0.00  0.00    -0.033 C 
ATOM      9  C   UNL     1       0.726  -0.590   1.212  0.00  0.00    +0.014 C 
ATOM     10  C   UNL     1      -0.331  -2.702   2.041  0.00  0.00    +0.011 C 
ATOM     11  C   UNL     1       2.127  -2.474   1.975  0.00  0.00    +0.011 C 
ATOM     12  N   UNL     1      -1.283  -1.875  -0.825  0.00  0.00    -0.309 N 
ATOM     13  C   UNL     1      -1.417  -0.610  -0.086  0.00  0.00    +0.113 C 
ENDBRANCH   1  12
BRANCH   1  14
ATOM     14  N   UNL     1      -3.531  -2.484  -0.662  0.00  0.00    -0.264 N 
ATOM     15  C   UNL     1      -4.529  -3.350  -0.931  0.00  0.00    +0.251 C 
ATOM     16  O   UNL     1      -4.300  -4.363  -1.562  0.00  0.00    -0.270 OA
ATOM     17  H   UNL     1      -3.713  -1.675  -0.158  0.00  0.00    +0.157 HD
BRANCH  15  18
ATOM     18  C   UNL     1      -5.899  -3.067  -0.457  0.00  0.00    +0.055 A 
ATOM     19  C   UNL     1      -6.166  -1.901   0.264  0.00  0.00    +0.014 A 
ATOM     20  C   UNL     1      -7.447  -1.644   0.702  0.00  0.00    +0.001 A 
ATOM     21  C   UNL     1      -8.469  -2.538   0.430  0.00  0.00    +0.001 A 
ATOM     22  C   UNL     1      -8.213  -3.694  -0.283  0.00  0.00    +0.021 A 
ATOM     23  C   UNL     1      -6.935  -3.963  -0.734  0.00  0.00    +0.053 A 
ATOM     24 CL   UNL     1      -6.617  -5.412  -1.635  0.00  0.00    -0.083 Cl
ENDBRANCH  15  18
ENDBRANCH   1  14
TORSDOF 3
