REMARK  Name = ZINC05496204
REMARK  6 active torsions:
REMARK  status: ('A' for Active; 'I' for Inactive)
REMARK    1  A    between atoms: C_1  and  C_2
REMARK    2  A    between atoms: C_7  and  C_8
REMARK    3  A    between atoms: C_13  and  C_22
REMARK    4  A    between atoms: N_15  and  C_16
REMARK    5  A    between atoms: C_24  and  O_31
REMARK    6  A    between atoms: C_26  and  O_30
REMARK                            x       y       z     vdW  Elec       q    Type
REMARK                         _______ _______ _______ _____ _____    ______ ____
ROOT
ATOM      1  C   UNL     1       2.260   0.782  -0.440  0.00  0.00    +0.044 C 
ATOM      2  C   UNL     1       1.055   1.657  -0.206  0.00  0.00    -0.045 A 
ATOM      3  C   UNL     1      -0.151   1.075   0.028  0.00  0.00    +0.033 A 
ATOM      4  C   UNL     1      -1.284   1.886   0.242  0.00  0.00    +0.090 A 
ATOM      5  C   UNL     1      -1.125   3.341   0.217  0.00  0.00    +0.092 A 
ATOM      6  C   UNL     1       0.153   3.878  -0.032  0.00  0.00    +0.033 A 
ATOM      7  C   UNL     1       1.205   3.042  -0.236  0.00  0.00    -0.045 A 
ATOM      8  C   UNL     1       2.568   3.627  -0.502  0.00  0.00    +0.044 C 
ATOM      9  N   UNL     1      -2.179   4.134   0.421  0.00  0.00    -0.224 NA
ATOM     10  C   UNL     1      -3.364   3.599   0.636  0.00  0.00    +0.183 A 
ATOM     11  C   UNL     1      -3.522   2.143   0.667  0.00  0.00    +0.134 A 
ATOM     12  N   UNL     1      -2.482   1.350   0.470  0.00  0.00    -0.240 NA
ATOM     13  C   UNL     1      -4.941   1.912   0.936  0.00  0.00    +0.122 A 
ATOM     14  N   UNL     1      -5.524   3.069   1.046  0.00  0.00    -0.164 NA
ATOM     15  N   UNL     1      -4.615   4.116   0.873  0.00  0.00    -0.212 N 
ENDROOT
BRANCH  15  16
ATOM     16  C   UNL     1      -4.930   5.479   0.933  0.00  0.00    +0.068 A 
ATOM     17  C   UNL     1      -4.018   6.381   1.465  0.00  0.00    +0.028 A 
ATOM     18  C   UNL     1      -4.329   7.726   1.518  0.00  0.00    +0.002 A 
ATOM     19  C   UNL     1      -5.552   8.173   1.051  0.00  0.00    +0.000 A 
ATOM     20  C   UNL     1      -6.464   7.277   0.526  0.00  0.00    +0.002 A 
ATOM     21  C   UNL     1      -6.157   5.931   0.465  0.00  0.00    +0.028 A 
ENDBRANCH  15  16
BRANCH  13  22
ATOM     22  C   UNL     1      -5.611   0.568   1.064  0.00  0.00    +0.202 C 
ATOM     23  C   UNL     1      -5.917   0.258   2.546  0.00  0.00    +0.180 C 
ATOM     24  C   UNL     1      -7.280  -0.468   2.504  0.00  0.00    +0.171 C 
ATOM     25  C   UNL     1      -7.636  -0.511   1.002  0.00  0.00    +0.194 C 
ATOM     26  O   UNL     1      -6.902   0.586   0.417  0.00  0.00    -0.365 OA
BRANCH  24  27
ATOM     27  O   UNL     1      -7.159  -1.791   3.031  0.00  0.00    -0.387 OA
ATOM     28  H   UNL     1      -7.986  -2.293   3.029  0.00  0.00    +0.210 HD
ENDBRANCH  24  27
BRANCH  23  29
ATOM     29  O   UNL     1      -6.014   1.468   3.301  0.00  0.00    -0.386 OA
ATOM     30  H   UNL     1      -6.205   1.332   4.239  0.00  0.00    +0.210 HD
ENDBRANCH  23  29
ENDBRANCH  13  22
TORSDOF 4
