REMARK  Name = ZINC04107578
REMARK  4 active torsions:
REMARK  status: ('A' for Active; 'I' for Inactive)
REMARK    1  A    between atoms: C_3  and  S_11
REMARK    2  A    between atoms: C_4  and  N_10
REMARK    3  A    between atoms: C_6  and  N_7
REMARK    4  A    between atoms: S_11  and  C_12
REMARK                            x       y       z     vdW  Elec       q    Type
REMARK                         _______ _______ _______ _____ _____    ______ ____
ROOT
ATOM      1  C   UNL     1      -3.866  -0.820  -0.401  0.00  0.00    +0.034 A 
ATOM      2  C   UNL     1      -2.687  -0.098  -0.402  0.00  0.00    +0.019 A 
ATOM      3  C   UNL     1      -2.405   0.768  -1.448  0.00  0.00    +0.029 A 
ATOM      4  C   UNL     1      -3.310   0.900  -2.502  0.00  0.00    +0.040 A 
ATOM      5  C   UNL     1      -4.487   0.168  -2.495  0.00  0.00    +0.056 A 
ATOM      6  C   UNL     1      -4.762  -0.689  -1.445  0.00  0.00    +0.128 A 
ENDROOT
BRANCH   6   7
ATOM      7  N   UNL     1      -6.020  -1.469  -1.440  0.00  0.00    +0.056 N 
ATOM      8  O   UNL     1      -6.811  -1.355  -2.359  0.00  0.00    -0.126 OA
ATOM      9  O   UNL     1      -6.264  -2.224  -0.516  0.00  0.00    -0.126 OA
ENDBRANCH   6   7
BRANCH   4  10
ATOM     10  N   UNL     1      -3.029   1.768  -3.564  0.00  0.00    -0.357 N 
ATOM     11  H   UNL     1      -2.205   2.280  -3.567  0.00  0.00    +0.142 HD
ATOM     12  H   UNL     1      -3.659   1.859  -4.296  0.00  0.00    +0.142 HD
ENDBRANCH   4  10
BRANCH   3  13
ATOM     13  S   UNL     1      -0.906   1.694  -1.449  0.00  0.00    -0.118 S 
BRANCH  13  14
ATOM     14  C   UNL     1      -0.165   1.332   0.167  0.00  0.00    +0.074 C 
ATOM     15  C   UNL     1      -0.982   2.014   1.277  0.00  0.00    +0.039 C 
ATOM     16  C   UNL     1      -0.192   1.984   2.607  0.00  0.00    +0.167 C 
ATOM     17  S   UNL     1       1.557   1.960   2.039  0.00  0.00    -0.030 S 
ATOM     18  O   UNL     1       2.164   0.746   2.460  0.00  0.00    -0.174 OA
ATOM     19  O   UNL     1       2.168   3.199   2.370  0.00  0.00    -0.174 OA
ATOM     20  C   UNL     1       1.285   1.894   0.217  0.00  0.00    +0.180 C 
ENDBRANCH  13  14
ENDBRANCH   3  13
TORSDOF 4
