REMARK  Name = ZINC39663244
REMARK  3 active torsions:
REMARK  status: ('A' for Active; 'I' for Inactive)
REMARK    1  A    between atoms: C_9  and  C_12
REMARK    2  A    between atoms: C_16  and  C_25
REMARK    3  A    between atoms: N_27  and  C_28
REMARK                            x       y       z     vdW  Elec       q    Type
REMARK                         _______ _______ _______ _____ _____    ______ ____
ROOT
ATOM      1  C   UNL     1       4.999  -2.664  -0.160  0.00  0.00    +0.260 C 
ATOM      2  O   UNL     1       5.810  -2.094  -0.859  0.00  0.00    -0.271 OA
ATOM      3  N   UNL     1       5.249  -3.912   0.282  0.00  0.00    -0.297 N 
ATOM      4  C   UNL     1       4.344  -4.804   1.045  0.00  0.00    +0.121 C 
ATOM      5  C   UNL     1       4.591  -6.209   0.453  0.00  0.00    +0.100 C 
ATOM      6  C   UNL     1       6.003  -6.137  -0.153  0.00  0.00    -0.004 C 
ATOM      7  C   UNL     1       6.490  -4.705   0.111  0.00  0.00    +0.115 C 
ATOM      8  C   UNL     1       5.947  -6.400  -1.655  0.00  0.00    -0.010 C 
ATOM      9  C   UNL     1       7.368  -6.380  -2.225  0.00  0.00    -0.082 C 
ATOM     10  N   UNL     1       8.179  -7.405  -1.558  0.00  0.00    +0.379 N 
ATOM     11  C   UNL     1       8.305  -7.093  -0.130  0.00  0.00    -0.082 C 
ATOM     12  C   UNL     1       6.923  -7.144   0.529  0.00  0.00    -0.010 C 
ATOM     13  H   UNL     1       7.737  -8.306  -1.667  0.00  0.00    -0.086 HD
ATOM     14  H   UNL     1       9.097  -7.431  -1.978  0.00  0.00    -0.086 HD
ENDROOT
BRANCH   1  23
ATOM     15  C   UNL     1       0.269   1.570  -0.118  0.00  0.00    +0.004 A 
ATOM     16  C   UNL     1       1.485   2.224  -0.060  0.00  0.00    +0.004 A 
ATOM     17  C   UNL     1       2.662   1.501  -0.057  0.00  0.00    +0.049 A 
ATOM     18  C   UNL     1       2.627   0.115  -0.111  0.00  0.00    +0.163 A 
ATOM     19  C   UNL     1       1.404  -0.543  -0.167  0.00  0.00    +0.162 A 
ATOM     20  C   UNL     1       0.226   0.189  -0.172  0.00  0.00    +0.049 A 
ATOM     21  O   UNL     1       1.346  -1.902  -0.212  0.00  0.00    -0.484 OA
ATOM     22  C   UNL     1       2.549  -2.586  -0.581  0.00  0.00    +0.283 C 
ATOM     23  C   UNL     1       3.711  -1.976   0.214  0.00  0.00    +0.296 C 
ATOM     24  O   UNL     1       3.794  -0.584  -0.110  0.00  0.00    -0.473 OA
ENDBRANCH   1  23
BRANCH   5  25
ATOM     25  C   UNL     1       3.573  -6.515  -0.616  0.00  0.00    +0.218 C 
ATOM     26  O   UNL     1       3.136  -5.622  -1.310  0.00  0.00    -0.275 OA
ATOM     27  N   UNL     1       3.149  -7.781  -0.800  0.00  0.00    -0.314 N 
ATOM     28  H   UNL     1       3.498  -8.495  -0.245  0.00  0.00    +0.149 HD
BRANCH  27  29
ATOM     29  C   UNL     1       2.159  -8.078  -1.839  0.00  0.00    +0.059 C 
ATOM     30  C   UNL     1       0.751  -7.849  -1.286  0.00  0.00    -0.056 C 
ATOM     31  N   UNL     1      -0.018  -9.094  -1.343  0.00  0.00    +0.381 N 
ATOM     32  C   UNL     1      -0.160  -9.550  -2.728  0.00  0.00    -0.078 C 
ATOM     33  C   UNL     1       1.219  -9.835  -3.328  0.00  0.00    -0.014 C 
ATOM     34  C   UNL     1       2.292  -9.544  -2.272  0.00  0.00    +0.004 C 
ATOM     35  C   UNL     1       2.021 -10.434  -1.052  0.00  0.00    -0.014 C 
ATOM     36  C   UNL     1       0.613 -10.129  -0.521  0.00  0.00    -0.078 C 
ATOM     37  H   UNL     1      -0.942  -8.916  -0.978  0.00  0.00    -0.082 HD
ENDBRANCH  27  29
ENDBRANCH   5  25
TORSDOF 3
