REMARK  Name = ZINC44680600
REMARK  5 active torsions:
REMARK  status: ('A' for Active; 'I' for Inactive)
REMARK    1  A    between atoms: C_6  and  S_7
REMARK    2  A    between atoms: S_7  and  N_10
REMARK    3  A    between atoms: N_10  and  C_11
REMARK    4  A    between atoms: N_15  and  C_17
REMARK    5  A    between atoms: N_20  and  N_21
REMARK                            x       y       z     vdW  Elec       q    Type
REMARK                         _______ _______ _______ _____ _____    ______ ____
ROOT
ATOM      1  S   UNL     1      -1.373  -0.819  -0.031  0.00  0.00    +0.062 S 
ATOM      2  O   UNL     1      -1.266  -1.652   1.115  0.00  0.00    -0.153 OA
ATOM      3  O   UNL     1      -2.333   0.224  -0.128  0.00  0.00    -0.153 OA
ENDROOT
BRANCH   1   9
ATOM      4  C   UNL     1       1.234  -0.320   0.632  0.00  0.00    +0.048 A 
ATOM      5  C   UNL     1       2.463   0.290   0.413  0.00  0.00    +0.038 A 
ATOM      6  C   UNL     1       2.621   1.119  -0.680  0.00  0.00    +0.128 A 
ATOM      7  N   UNL     1       1.622   1.337  -1.514  0.00  0.00    -0.236 NA
ATOM      8  C   UNL     1       0.436   0.775  -1.339  0.00  0.00    +0.159 A 
ATOM      9  C   UNL     1       0.206  -0.072  -0.260  0.00  0.00    +0.147 A 
ATOM     10  N   UNL     1      -0.589   1.033  -2.243  0.00  0.00    -0.266 N 
ATOM     11 BR   UNL     1       3.905  -0.011   1.599  0.00  0.00    -0.049 Br
ATOM     12  H   UNL     1      -1.429   0.553  -2.173  0.00  0.00    +0.167 HD
BRANCH  10  13
ATOM     13  N   UNL     1      -0.412   1.962  -3.229  0.00  0.00    -0.255 NA
ATOM     14  H   UNL     1       0.399   1.746  -3.788  0.00  0.00    +0.140 HD
ATOM     15  H   UNL     1      -1.238   2.040  -3.804  0.00  0.00    +0.140 HD
ENDBRANCH  10  13
ENDBRANCH   1   9
BRANCH   1  16
ATOM     16  N   UNL     1      -1.631  -1.822  -1.323  0.00  0.00    -0.189 NA
ATOM     17  H   UNL     1      -2.354  -1.637  -1.944  0.00  0.00    +0.148 HD
BRANCH  16  18
ATOM     18  C   UNL     1      -0.769  -2.989  -1.529  0.00  0.00    +0.058 C 
ATOM     19  C   UNL     1      -1.478  -4.285  -1.054  0.00  0.00    -0.000 C 
ATOM     20  C   UNL     1      -0.783  -5.359  -1.928  0.00  0.00    -0.077 C 
ATOM     21  N   UNL     1      -0.578  -4.705  -3.238  0.00  0.00    +0.383 N 
ATOM     22  C   UNL     1      -0.544  -3.242  -3.034  0.00  0.00    -0.058 C 
ATOM     23  H   UNL     1      -1.335  -4.945  -3.860  0.00  0.00    -0.081 HD
BRANCH  21  24
ATOM     24  C   UNL     1       0.696  -5.149  -3.819  0.00  0.00    -0.069 C 
ATOM     25  C   UNL     1       0.678  -5.646  -5.266  0.00  0.00    -0.017 C 
ATOM     26  C   UNL     1       0.854  -6.641  -4.117  0.00  0.00    -0.017 C 
ENDBRANCH  21  24
ENDBRANCH  16  18
ENDBRANCH   1  16
TORSDOF 5
