REMARK  Name = ZINC59599376
REMARK  9 active torsions:
REMARK  status: ('A' for Active; 'I' for Inactive)
REMARK    1  A    between atoms: C_1  and  N_2
REMARK    2  A    between atoms: C_3  and  N_34
REMARK    3  A    between atoms: C_4  and  O_11
REMARK    4  A    between atoms: N_7  and  C_10
REMARK    5  A    between atoms: O_11  and  C_12
REMARK    6  A    between atoms: C_15  and  C_20
REMARK    7  A    between atoms: C_17  and  O_18
REMARK    8  A    between atoms: O_18  and  C_19
REMARK    9  A    between atoms: N_24  and  C_28
REMARK                            x       y       z     vdW  Elec       q    Type
REMARK                         _______ _______ _______ _____ _____    ______ ____
ROOT
ATOM      1  C   UNL     1      -3.389  -1.921   0.199  0.00  0.00    +0.170 A 
ATOM      2  C   UNL     1      -3.445  -0.533   0.221  0.00  0.00    +0.050 A 
ATOM      3  C   UNL     1      -4.647   0.114   0.046  0.00  0.00    +0.012 A 
ATOM      4  C   UNL     1      -5.818  -0.627  -0.155  0.00  0.00    -0.020 A 
ATOM      5  C   UNL     1      -5.761  -2.026  -0.177  0.00  0.00    +0.057 A 
ATOM      6  C   UNL     1      -4.550  -2.667  -0.006  0.00  0.00    +0.163 A 
ENDROOT
BRANCH   4   7
ATOM      7  C   UNL     1      -7.102   0.060  -0.342  0.00  0.00    +0.028 C 
ATOM      8  C   UNL     1      -7.153   1.227  -1.035  0.00  0.00    +0.078 C 
ATOM      9  C   UNL     1      -6.101   1.901  -1.821  0.00  0.00    +0.263 C 
ATOM     10  O   UNL     1      -4.984   1.431  -1.930  0.00  0.00    -0.269 OA
ATOM     11  N   UNL     1      -6.433   3.043  -2.399  0.00  0.00    -0.224 N 
ATOM     12  C   UNL     1      -7.672   3.562  -2.275  0.00  0.00    +0.125 C 
ATOM     13  S   UNL     1      -8.289   5.013  -2.942  0.00  0.00    -0.027 S 
ATOM     14  S   UNL     1      -8.515   2.364  -1.254  0.00  0.00    -0.061 S 
BRANCH  11  15
ATOM     15  C   UNL     1      -5.476   3.730  -3.158  0.00  0.00    +0.043 A 
ATOM     16  C   UNL     1      -4.997   4.959  -2.726  0.00  0.00    +0.024 A 
ATOM     17  C   UNL     1      -4.053   5.634  -3.476  0.00  0.00    +0.002 A 
ATOM     18  C   UNL     1      -3.586   5.086  -4.656  0.00  0.00    +0.000 A 
ATOM     19  C   UNL     1      -4.061   3.862  -5.090  0.00  0.00    +0.002 A 
ATOM     20  C   UNL     1      -5.001   3.180  -4.341  0.00  0.00    +0.024 A 
ENDBRANCH  11  15
ENDBRANCH   4   7
BRANCH   6  21
ATOM     21  O   UNL     1      -4.490  -4.025  -0.032  0.00  0.00    -0.491 OA
ATOM     22  C   UNL     1      -5.717  -4.725  -0.246  0.00  0.00    +0.277 C 
ENDBRANCH   6  21
BRANCH   1  23
ATOM     23  O   UNL     1      -2.200  -2.554   0.372  0.00  0.00    -0.443 OA
BRANCH  23  27
ATOM     24  C   UNL     1       2.128  -0.778  -0.830  0.00  0.00    +0.155 C 
ATOM     25  N   UNL     1       1.015  -0.907   0.115  0.00  0.00    -0.282 N 
ATOM     26  C   UNL     1      -0.075  -1.680  -0.214  0.00  0.00    +0.149 A 
ATOM     27  C   UNL     1      -1.109  -1.794   0.674  0.00  0.00    +0.230 A 
ATOM     28  C   UNL     1      -1.030  -1.116   1.904  0.00  0.00    +0.301 A 
ATOM     29  O   UNL     1      -1.939  -1.203   2.712  0.00  0.00    -0.263 OA
ATOM     30  N   UNL     1       0.057  -0.370   2.183  0.00  0.00    -0.261 N 
ATOM     31  C   UNL     1       1.067  -0.273   1.300  0.00  0.00    +0.333 A 
ATOM     32  O   UNL     1       2.040   0.401   1.576  0.00  0.00    -0.246 OA
ATOM     33  C   UNL     1       0.141   0.338   3.463  0.00  0.00    +0.157 C 
BRANCH  26  34
ATOM     34  N   UNL     1      -0.124  -2.331  -1.424  0.00  0.00    -0.341 N 
ATOM     35  H   UNL     1       0.576  -2.189  -2.080  0.00  0.00    +0.144 HD
ATOM     36  H   UNL     1      -0.859  -2.933  -1.621  0.00  0.00    +0.144 HD
ENDBRANCH  26  34
ENDBRANCH  23  27
ENDBRANCH   1  23
TORSDOF 6
