REMARK  Name = ZINC17133621
REMARK  13 active torsions:
REMARK  status: ('A' for Active; 'I' for Inactive)
REMARK    1  A    between atoms: C_1  and  C_2
REMARK    2  A    between atoms: C_3  and  C_29
REMARK    3  A    between atoms: C_5  and  N_22
REMARK    4  A    between atoms: C_6  and  C_7
REMARK    5  A    between atoms: C_7  and  O_9
REMARK    6  A    between atoms: O_9  and  C_10
REMARK    7  A    between atoms: C_10  and  C_11
REMARK    8  A    between atoms: N_13  and  C_14
REMARK    9  A    between atoms: C_15  and  C_19
REMARK   10  A    between atoms: C_23  and  C_25
REMARK   11  A    between atoms: C_25  and  C_26
REMARK   12  A    between atoms: C_25  and  C_27
REMARK   13  A    between atoms: C_25  and  C_28
REMARK                            x       y       z     vdW  Elec       q    Type
REMARK                         _______ _______ _______ _____ _____    ______ ____
ROOT
ATOM      1  C   UNL     1      -3.674   1.484   0.028  0.00  0.00    +0.342 C 
ATOM      2  O   UNL     1      -3.849   2.688   0.035  0.00  0.00    -0.245 OA
ENDROOT
BRANCH   1   8
ATOM      3  C   UNL     1      -4.894   0.544  -2.545  0.00  0.00    +0.045 C 
ATOM      4  C   UNL     1      -5.423   0.114  -1.201  0.00  0.00    -0.025 A 
ATOM      5  C   UNL     1      -6.475  -0.718  -1.095  0.00  0.00    -0.008 A 
ATOM      6  S   UNL     1      -6.681  -0.897   0.664  0.00  0.00    -0.078 S 
ATOM      7  C   UNL     1      -5.386   0.113   1.212  0.00  0.00    +0.086 A 
ATOM      8  C   UNL     1      -4.823   0.577   0.028  0.00  0.00    +0.091 A 
ATOM      9  C   UNL     1      -7.283  -1.347  -2.200  0.00  0.00    +0.052 C 
BRANCH   7  10
ATOM     10  N   UNL     1      -5.005   0.394   2.515  0.00  0.00    -0.279 N 
ATOM     11  C   UNL     1      -5.678  -0.153   3.547  0.00  0.00    +0.223 C 
ATOM     12  O   UNL     1      -6.617  -0.891   3.335  0.00  0.00    -0.275 OA
ATOM     13  H   UNL     1      -4.254   0.984   2.684  0.00  0.00    +0.155 HD
BRANCH  11  14
ATOM     14  C   UNL     1      -5.263   0.151   4.963  0.00  0.00    +0.039 C 
ATOM     15  C   UNL     1      -6.183  -0.590   5.935  0.00  0.00    +0.020 C 
ATOM     16  C   UNL     1      -3.818  -0.303   5.181  0.00  0.00    +0.020 C 
ATOM     17  C   UNL     1      -5.366   1.657   5.212  0.00  0.00    +0.020 C 
ENDBRANCH  11  14
ENDBRANCH   7  10
ENDBRANCH   1   8
BRANCH   1  18
ATOM     18  O   UNL     1      -2.420   0.986   0.019  0.00  0.00    -0.452 OA
BRANCH  18  19
ATOM     19  C   UNL     1      -1.330   1.944   0.019  0.00  0.00    +0.328 C 
BRANCH  19  20
ATOM     20  C   UNL     1      -0.014   1.209   0.009  0.00  0.00    +0.255 C 
ATOM     21  O   UNL     1       0.002  -0.004   0.002  0.00  0.00    -0.272 OA
ATOM     22  N   UNL     1       1.143   1.898   0.001  0.00  0.00    -0.277 N 
ATOM     23  H   UNL     1       1.130   2.868   0.007  0.00  0.00    +0.155 HD
BRANCH  22  24
ATOM     24  C   UNL     1       2.354   1.221  -0.014  0.00  0.00    +0.084 A 
ATOM     25  C   UNL     1       3.639   1.750  -0.029  0.00  0.00    +0.065 A 
ATOM     26  C   UNL     1       4.730   0.805  -0.038  0.00  0.00    +0.022 A 
ATOM     27  C   UNL     1       4.410  -0.501  -0.043  0.00  0.00    +0.048 A 
ATOM     28  S   UNL     1       2.630  -0.488  -0.026  0.00  0.00    -0.081 S 
BRANCH  25  29
ATOM     29  C   UNL     1       3.875   3.198  -0.031  0.00  0.00    +0.244 C 
ATOM     30  O   UNL     1       2.932   3.968  -0.019  0.00  0.00    -0.270 OA
ATOM     31  N   UNL     1       5.135   3.675  -0.046  0.00  0.00    -0.325 N 
ATOM     32  H   UNL     1       5.886   3.061  -0.055  0.00  0.00    +0.145 HD
ATOM     33  H   UNL     1       5.291   4.632  -0.047  0.00  0.00    +0.145 HD
ENDBRANCH  25  29
ENDBRANCH  22  24
ENDBRANCH  19  20
ENDBRANCH  18  19
ENDBRANCH   1  18
TORSDOF 8
