REMARK  Name = ZINC39361736
REMARK  9 active torsions:
REMARK  status: ('A' for Active; 'I' for Inactive)
REMARK    1  A    between atoms: C_1  and  C_2
REMARK    2  A    between atoms: C_6  and  N_8
REMARK    3  A    between atoms: C_9  and  C_29
REMARK    4  A    between atoms: C_13  and  S_14
REMARK    5  A    between atoms: S_14  and  C_15
REMARK    6  A    between atoms: C_15  and  C_16
REMARK    7  A    between atoms: N_18  and  C_19
REMARK    8  A    between atoms: C_23  and  C_25
REMARK    9  A    between atoms: C_29  and  C_30
REMARK                            x       y       z     vdW  Elec       q    Type
REMARK                         _______ _______ _______ _____ _____    ______ ____
ROOT
ATOM      1  N   UNL     1       0.010  -2.796   2.394  0.00  0.00    -0.258 N 
ATOM      2  C   UNL     1      -0.075  -4.257   2.559  0.00  0.00    +0.187 C 
ATOM      3  N   UNL     1      -0.016  -4.453   4.018  0.00  0.00    -0.246 N 
ATOM      4  N   UNL     1       0.094  -3.175   4.579  0.00  0.00    -0.162 NA
ATOM      5  C   UNL     1       0.114  -2.260   3.670  0.00  0.00    +0.180 C 
ATOM      6  H   UNL     1      -0.047  -5.298   4.494  0.00  0.00    +0.170 HD
ENDROOT
BRANCH   1  12
ATOM      7  C   UNL     1       2.139   0.427  -0.645  0.00  0.00    +0.044 C 
ATOM      8  C   UNL     1       1.015  -0.519  -0.310  0.00  0.00    -0.049 A 
ATOM      9  C   UNL     1      -0.033  -0.688  -1.197  0.00  0.00    +0.003 A 
ATOM     10  C   UNL     1      -1.066  -1.555  -0.894  0.00  0.00    +0.002 A 
ATOM     11  C   UNL     1      -1.055  -2.256   0.297  0.00  0.00    +0.023 A 
ATOM     12  C   UNL     1      -0.004  -2.089   1.189  0.00  0.00    +0.038 A 
ATOM     13  C   UNL     1       1.036  -1.221   0.879  0.00  0.00    +0.027 A 
ENDBRANCH   1  12
BRANCH   5  14
ATOM     14  S   UNL     1       0.251  -0.536   4.007  0.00  0.00    -0.079 S 
BRANCH  14  15
ATOM     15  C   UNL     1       0.351  -0.450   5.817  0.00  0.00    +0.173 C 
BRANCH  15  16
ATOM     16  C   UNL     1       0.473   0.990   6.245  0.00  0.00    +0.227 C 
ATOM     17  O   UNL     1       0.491   1.871   5.412  0.00  0.00    -0.275 OA
ATOM     18  N   UNL     1       0.563   1.299   7.554  0.00  0.00    -0.285 N 
ATOM     19  H   UNL     1       0.628   0.592   8.215  0.00  0.00    +0.155 HD
BRANCH  18  20
ATOM     20  C   UNL     1       0.562   2.638   7.959  0.00  0.00    +0.034 A 
ATOM     21  C   UNL     1       1.324   3.036   9.049  0.00  0.00    +0.023 A 
ATOM     22  C   UNL     1       1.321   4.359   9.446  0.00  0.00    +0.002 A 
ATOM     23  C   UNL     1       0.558   5.286   8.759  0.00  0.00    +0.012 A 
ATOM     24  C   UNL     1      -0.202   4.893   7.674  0.00  0.00    +0.057 A 
ATOM     25  C   UNL     1      -0.198   3.573   7.268  0.00  0.00    +0.035 A 
BRANCH  24  26
ATOM     26  C   UNL     1      -1.031   5.907   6.929  0.00  0.00    +0.417 C 
ATOM     27  F   UNL     1      -0.869   7.166   7.518  0.00  0.00    -0.166 F 
ATOM     28  F   UNL     1      -0.616   5.960   5.594  0.00  0.00    -0.166 F 
ATOM     29  F   UNL     1      -2.380   5.537   6.983  0.00  0.00    -0.166 F 
ENDBRANCH  24  26
ENDBRANCH  18  20
ENDBRANCH  15  16
ENDBRANCH  14  15
ENDBRANCH   5  14
BRANCH   2  30
ATOM     30  C   UNL     1       1.107  -4.945   1.873  0.00  0.00    +0.097 C 
BRANCH  30  31
ATOM     31  C   UNL     1       0.932  -6.440   1.950  0.00  0.00    +0.029 A 
ATOM     32  N   UNL     1       1.342  -7.124   3.062  0.00  0.00    -0.311 N 
ATOM     33  C   UNL     1       1.190  -8.458   3.140  0.00  0.00    +0.327 A 
ATOM     34  O   UNL     1       1.562  -9.046   4.138  0.00  0.00    -0.247 OA
ATOM     35  N   UNL     1       0.631  -9.152   2.131  0.00  0.00    -0.275 N 
ATOM     36  C   UNL     1       0.214  -8.515   1.018  0.00  0.00    +0.254 A 
ATOM     37  O   UNL     1      -0.292  -9.141   0.105  0.00  0.00    -0.268 OA
ATOM     38  C   UNL     1       0.364  -7.110   0.925  0.00  0.00    +0.091 A 
ATOM     39  H   UNL     1       0.529 -10.114   2.204  0.00  0.00    +0.173 HD
ATOM     40  H   UNL     1       1.747  -6.642   3.800  0.00  0.00    +0.170 HD
ENDBRANCH  30  31
ENDBRANCH   2  30
TORSDOF 8
