REMARK  Name = ZINC32103263
REMARK  6 active torsions:
REMARK  status: ('A' for Active; 'I' for Inactive)
REMARK    1  A    between atoms: C_1  and  C_2
REMARK    2  A    between atoms: C_2  and  C_3
REMARK    3  A    between atoms: C_2  and  C_4
REMARK    4  A    between atoms: C_2  and  N_5
REMARK    5  A    between atoms: N_21  and  C_24
REMARK    6  A    between atoms: C_24  and  C_25
REMARK                            x       y       z     vdW  Elec       q    Type
REMARK                         _______ _______ _______ _____ _____    ______ ____
ROOT
ATOM      1  N   UNL     1       0.688  -0.476  -1.203  0.00  0.00    -0.245 N 
ATOM      2  C   UNL     1       0.889  -1.756  -1.547  0.00  0.00    +0.128 A 
ATOM      3  C   UNL     1       1.576  -1.765  -2.734  0.00  0.00    +0.032 A 
ATOM      4  C   UNL     1       1.781  -0.449  -3.118  0.00  0.00    +0.141 A 
ATOM      5  N   UNL     1       1.246   0.331  -2.208  0.00  0.00    -0.177 NA
ATOM      6  C   UNL     1       1.990  -3.045  -3.406  0.00  0.00    +0.112 C 
ATOM      7  C   UNL     1       1.012  -4.154  -3.026  0.00  0.00    +0.122 C 
ATOM      8  C   UNL     1       0.677  -4.104  -1.561  0.00  0.00    +0.220 C 
ATOM      9  O   UNL     1       0.532  -5.146  -0.956  0.00  0.00    -0.275 OA
ATOM     10  N   UNL     1       0.532  -2.938  -0.898  0.00  0.00    -0.270 N 
ATOM     11  C   UNL     1       3.393  -3.416  -3.046  0.00  0.00    -0.003 A 
ATOM     12  C   UNL     1       3.981  -3.704  -1.833  0.00  0.00    +0.045 A 
ATOM     13  C   UNL     1       5.338  -4.016  -1.847  0.00  0.00    +0.124 A 
ATOM     14  C   UNL     1       6.059  -4.035  -3.026  0.00  0.00    +0.040 A 
ATOM     15  C   UNL     1       5.473  -3.747  -4.248  0.00  0.00    +0.026 A 
ATOM     16  C   UNL     1       4.114  -3.432  -4.247  0.00  0.00    +0.041 A 
ATOM     17  N   UNL     1       3.286  -3.107  -5.309  0.00  0.00    -0.261 N 
ATOM     18  C   UNL     1       2.020  -2.864  -4.907  0.00  0.00    +0.236 C 
ATOM     19  O   UNL     1       1.084  -2.559  -5.616  0.00  0.00    -0.274 OA
ATOM     20  F   UNL     1       5.962  -4.306  -0.684  0.00  0.00    -0.205 F 
ATOM     21  H   UNL     1       0.187  -2.922   0.009  0.00  0.00    +0.156 HD
ENDROOT
BRANCH   1  23
ATOM     22  C   UNL     1      -0.019   1.526   0.010  0.00  0.00    +0.036 C 
ATOM     23  C   UNL     1       0.002  -0.004   0.002  0.00  0.00    +0.057 C 
ATOM     24  C   UNL     1       0.742  -0.511   1.242  0.00  0.00    +0.036 C 
ATOM     25  C   UNL     1      -1.433  -0.534   0.013  0.00  0.00    +0.036 C 
ENDBRANCH   1  23
BRANCH  17  26
ATOM     26  C   UNL     1       3.731  -3.035  -6.703  0.00  0.00    +0.209 C 
BRANCH  26  27
ATOM     27  C   UNL     1       3.565  -4.385  -7.353  0.00  0.00    +0.228 C 
ATOM     28  O   UNL     1       3.119  -5.315  -6.715  0.00  0.00    -0.274 OA
ATOM     29  N   UNL     1       3.912  -4.558  -8.644  0.00  0.00    -0.328 N 
ATOM     30  H   UNL     1       4.269  -3.815  -9.154  0.00  0.00    +0.145 HD
ATOM     31  H   UNL     1       3.806  -5.427  -9.062  0.00  0.00    +0.145 HD
ENDBRANCH  26  27
ENDBRANCH  17  26
TORSDOF 3
