REMARK  Name = ZINC34921822
REMARK  13 active torsions:
REMARK  status: ('A' for Active; 'I' for Inactive)
REMARK    1  A    between atoms: C_1  and  C_2
REMARK    2  A    between atoms: C_2  and  C_3
REMARK    3  A    between atoms: C_3  and  N_4
REMARK    4  A    between atoms: N_4  and  C_5
REMARK    5  A    between atoms: N_4  and  S_27
REMARK    6  A    between atoms: C_5  and  C_6
REMARK    7  A    between atoms: C_8  and  N_15
REMARK    8  A    between atoms: C_11  and  N_12
REMARK    9  A    between atoms: N_12  and  C_13
REMARK   10  A    between atoms: N_12  and  C_14
REMARK   11  A    between atoms: N_18  and  C_19
REMARK   12  A    between atoms: C_22  and  C_25
REMARK   13  A    between atoms: S_27  and  C_30
REMARK                            x       y       z     vdW  Elec       q    Type
REMARK                         _______ _______ _______ _____ _____    ______ ____
ROOT
ATOM      1  C   UNL     1      -0.289  -2.983  -3.367  0.00  0.00    -0.009 A 
ATOM      2  C   UNL     1      -0.999  -2.121  -4.180  0.00  0.00    +0.030 A 
ATOM      3  C   UNL     1      -0.966  -2.282  -5.559  0.00  0.00    +0.035 A 
ATOM      4  C   UNL     1      -0.220  -3.310  -6.120  0.00  0.00    +0.025 A 
ATOM      5  C   UNL     1       0.490  -4.171  -5.307  0.00  0.00    +0.025 A 
ATOM      6  C   UNL     1       0.461  -4.007  -3.928  0.00  0.00    +0.034 A 
ENDROOT
BRANCH   3   7
ATOM      7  N   UNL     1      -1.686  -1.407  -6.384  0.00  0.00    -0.269 N 
ATOM      8  C   UNL     1      -1.190  -1.052  -7.585  0.00  0.00    +0.308 C 
ATOM      9  O   UNL     1      -0.157  -1.552  -7.988  0.00  0.00    -0.252 OA
ATOM     10  N   UNL     1      -1.837  -0.143  -8.340  0.00  0.00    -0.269 N 
ATOM     11  H   UNL     1      -2.542  -1.058  -6.090  0.00  0.00    +0.156 HD
ATOM     12  H   UNL     1      -2.615   0.315  -7.986  0.00  0.00    +0.156 HD
BRANCH  10  13
ATOM     13  C   UNL     1      -1.389   0.140  -9.631  0.00  0.00    +0.035 A 
ATOM     14  C   UNL     1      -0.841  -0.873 -10.412  0.00  0.00    +0.024 A 
ATOM     15  C   UNL     1      -0.397  -0.598 -11.686  0.00  0.00    +0.020 A 
ATOM     16  C   UNL     1      -0.498   0.700 -12.195  0.00  0.00    +0.052 A 
ATOM     17  C   UNL     1      -1.049   1.715 -11.407  0.00  0.00    +0.020 A 
ATOM     18  C   UNL     1      -1.496   1.431 -10.136  0.00  0.00    +0.024 A 
BRANCH  16  19
ATOM     19  C   UNL     1      -0.038   0.990 -13.519  0.00  0.00    +0.099 C 
ATOM     20  N   UNL     1       0.328   1.220 -14.570  0.00  0.00    -0.191 NA
ENDBRANCH  16  19
ENDBRANCH  10  13
ENDBRANCH   3   7
BRANCH   6  21
ATOM     21  N   UNL     1       1.185  -4.876  -3.105  0.00  0.00    -0.336 N 
ATOM     22  C   UNL     1       2.529  -4.508  -2.652  0.00  0.00    +0.129 C 
ATOM     23  C   UNL     1       0.599  -6.155  -2.695  0.00  0.00    +0.129 C 
ENDBRANCH   6  21
BRANCH   1  24
ATOM     24  C   UNL     1      -0.325  -2.807  -1.871  0.00  0.00    +0.146 C 
BRANCH  24  25
ATOM     25  N   UNL     1      -1.270  -1.742  -1.526  0.00  0.00    -0.172 NA
BRANCH  25  26
ATOM     26  S   UNL     1      -0.714  -0.218  -1.193  0.00  0.00    +0.061 S 
ATOM     27  O   UNL     1       0.487  -0.053  -1.934  0.00  0.00    -0.153 OA
ATOM     28  O   UNL     1      -1.823   0.659  -1.336  0.00  0.00    -0.153 OA
BRANCH  26  29
ATOM     29  C   UNL     1      -0.264  -0.188   0.510  0.00  0.00    +0.106 A 
ATOM     30  C   UNL     1      -1.200   0.161   1.466  0.00  0.00    +0.031 A 
ATOM     31  C   UNL     1      -0.849   0.185   2.802  0.00  0.00    +0.040 A 
ATOM     32  C   UNL     1       0.442  -0.141   3.183  0.00  0.00    +0.124 A 
ATOM     33  C   UNL     1       1.379  -0.490   2.225  0.00  0.00    +0.040 A 
ATOM     34  C   UNL     1       1.023  -0.518   0.890  0.00  0.00    +0.031 A 
ATOM     35  F   UNL     1       0.787  -0.118   4.489  0.00  0.00    -0.205 F 
ENDBRANCH  26  29
ENDBRANCH  25  26
BRANCH  25  36
ATOM     36  C   UNL     1      -2.706  -2.025  -1.476  0.00  0.00    +0.109 C 
BRANCH  36  38
ATOM     37  C   UNL     1      -4.567  -2.885  -0.048  0.00  0.00    +0.005 C 
ATOM     38  C   UNL     1      -3.067  -2.589  -0.100  0.00  0.00    +0.014 C 
ENDBRANCH  36  38
ENDBRANCH  25  36
ENDBRANCH  24  25
ENDBRANCH   1  24
TORSDOF 10
