REMARK  Name = ZINC62133037
REMARK  4 active torsions:
REMARK  status: ('A' for Active; 'I' for Inactive)
REMARK    1  A    between atoms: C_4  and  S_16
REMARK    2  A    between atoms: C_5  and  N_7
REMARK    3  A    between atoms: C_10  and  C_13
REMARK    4  A    between atoms: S_16  and  N_19
REMARK                            x       y       z     vdW  Elec       q    Type
REMARK                         _______ _______ _______ _____ _____    ______ ____
ROOT
ATOM      1  C   UNL     1      -0.017   1.378   0.010  0.00  0.00    +0.002 A 
ATOM      2  C   UNL     1       1.171   2.085   0.002  0.00  0.00    +0.002 A 
ATOM      3  C   UNL     1       2.377   1.411  -0.013  0.00  0.00    +0.030 A 
ATOM      4  C   UNL     1       2.396   0.028  -0.020  0.00  0.00    +0.124 A 
ATOM      5  C   UNL     1       1.209  -0.679  -0.012  0.00  0.00    +0.040 A 
ATOM      6  C   UNL     1       0.002  -0.004   0.002  0.00  0.00    +0.023 A 
ENDROOT
BRANCH   5   7
ATOM      7  N   UNL     1       1.228  -2.077  -0.020  0.00  0.00    -0.391 NA
ATOM      8  C   UNL     1       0.420  -2.601  -1.151  0.00  0.00    +0.086 C 
ATOM      9  C   UNL     1       0.059  -4.043  -0.737  0.00  0.00    +0.033 C 
ATOM     10  C   UNL     1       0.146  -4.051   0.803  0.00  0.00    +0.119 C 
ATOM     11  C   UNL     1       0.551  -2.613   1.190  0.00  0.00    +0.100 C 
ATOM     12  H   UNL     1       2.176  -2.417  -0.073  0.00  0.00    +0.126 HD
BRANCH  10  13
ATOM     13  C   UNL     1      -1.194  -4.398   1.401  0.00  0.00    +0.361 C 
ATOM     14  O   UNL     1      -1.706  -5.478   1.162  0.00  0.00    -0.246 OA
ATOM     15  O   UNL     1      -1.764  -3.598   2.123  0.00  0.00    -0.246 OA
ENDBRANCH  10  13
ENDBRANCH   5   7
BRANCH   4  16
ATOM     16  S   UNL     1       3.934  -0.832  -0.041  0.00  0.00    +0.058 S 
ATOM     17  O   UNL     1       3.840  -1.807  -1.070  0.00  0.00    -0.153 OA
ATOM     18  O   UNL     1       4.953   0.158  -0.019  0.00  0.00    -0.153 OA
BRANCH  16  19
ATOM     19  N   UNL     1       4.050  -1.661   1.388  0.00  0.00    -0.203 NA
ATOM     20  H   UNL     1       3.334  -1.605   2.041  0.00  0.00    +0.144 HD
ATOM     21  H   UNL     1       4.833  -2.204   1.572  0.00  0.00    +0.144 HD
ENDBRANCH  16  19
ENDBRANCH   4  16
TORSDOF 4
