REMARK  Name = ZINC53629510
REMARK  6 active torsions:
REMARK  status: ('A' for Active; 'I' for Inactive)
REMARK    1  A    between atoms: C_1  and  C_2
REMARK    2  A    between atoms: C_13  and  C_15
REMARK    3  A    between atoms: C_15  and  C_16
REMARK    4  A    between atoms: N_18  and  C_19
REMARK    5  A    between atoms: C_19  and  C_20
REMARK    6  A    between atoms: C_20  and  C_21
REMARK                            x       y       z     vdW  Elec       q    Type
REMARK                         _______ _______ _______ _____ _____    ______ ____
ROOT
ATOM      1  C   UNL     1      -0.019   1.526   0.010  0.00  0.00    +0.013 C 
ATOM      2  C   UNL     1       0.002  -0.004   0.002  0.00  0.00    +0.034 C 
ATOM      3  C   UNL     1      -1.413  -0.524   0.009  0.00  0.00    -0.001 A 
ATOM      4  C   UNL     1      -2.115  -0.549  -1.185  0.00  0.00    +0.014 A 
ATOM      5  C   UNL     1      -3.417  -1.012  -1.231  0.00  0.00    -0.005 A 
ATOM      6  C   UNL     1      -4.031  -1.457  -0.071  0.00  0.00    +0.128 A 
ATOM      7  C   UNL     1      -3.331  -1.431   1.127  0.00  0.00    +0.092 A 
ATOM      8  C   UNL     1      -2.022  -0.971   1.169  0.00  0.00    +0.139 A 
ATOM      9  O   UNL     1      -1.367  -0.987   2.362  0.00  0.00    -0.425 OA
ATOM     10  C   UNL     1      -0.179  -0.354   2.429  0.00  0.00    +0.316 C 
ATOM     11  O   UNL     1       0.133   0.306   3.392  0.00  0.00    -0.250 OA
ATOM     12  C   UNL     1       0.747  -0.510   1.242  0.00  0.00    +0.114 C 
ATOM     13  O   UNL     1      -5.304  -1.930  -0.071  0.00  0.00    -0.485 OA
ATOM     14  C   UNL     1      -6.129  -1.635  -1.197  0.00  0.00    +0.111 C 
ATOM     15  C   UNL     1      -7.397  -2.488  -1.147  0.00  0.00    +0.048 C 
ATOM     16  C   UNL     1      -8.181  -2.165   0.127  0.00  0.00    +0.004 C 
ATOM     17  C   UNL     1      -8.560  -0.683   0.130  0.00  0.00    +0.000 C 
ATOM     18  C   UNL     1      -7.289   0.168   0.085  0.00  0.00    +0.004 C 
ATOM     19  C   UNL     1      -6.506  -0.153  -1.190  0.00  0.00    +0.048 C 
ATOM     20  C   UNL     1      -5.347  -1.958  -2.475  0.00  0.00    +0.053 C 
ATOM     21  C   UNL     1      -4.142  -1.018  -2.553  0.00  0.00    +0.043 C 
ENDROOT
BRANCH  12  22
ATOM     22  C   UNL     1       1.115  -1.984   1.060  0.00  0.00    +0.111 C 
BRANCH  22  23
ATOM     23  C   UNL     1       1.952  -2.439   2.228  0.00  0.00    +0.214 C 
ATOM     24  O   UNL     1       2.227  -1.662   3.117  0.00  0.00    -0.276 OA
ATOM     25  N   UNL     1       2.395  -3.711   2.283  0.00  0.00    -0.315 N 
ATOM     26  H   UNL     1       2.175  -4.333   1.572  0.00  0.00    +0.149 HD
BRANCH  25  27
ATOM     27  C   UNL     1       3.209  -4.154   3.418  0.00  0.00    +0.110 C 
BRANCH  27  28
ATOM     28  C   UNL     1       3.578  -5.628   3.237  0.00  0.00    +0.073 C 
BRANCH  28  29
ATOM     29  C   UNL     1       4.415  -6.083   4.404  0.00  0.00    +0.035 A 
ATOM     30  N   UNL     1       3.966  -6.711   5.535  0.00  0.00    -0.350 N 
ATOM     31  C   UNL     1       5.042  -6.941   6.318  0.00  0.00    +0.171 A 
ATOM     32  N   UNL     1       6.104  -6.485   5.714  0.00  0.00    -0.352 N 
ATOM     33  C   UNL     1       5.749  -5.957   4.533  0.00  0.00    +0.105 A 
ATOM     34  H   UNL     1       3.046  -6.946   5.736  0.00  0.00    +0.166 HD
ATOM     35  H   UNL     1       7.009  -6.524   6.062  0.00  0.00    +0.166 HD
ENDBRANCH  28  29
ENDBRANCH  27  28
ENDBRANCH  25  27
ENDBRANCH  22  23
ENDBRANCH  12  22
TORSDOF 5
