REMARK  Name = ZINC39729773
REMARK  4 active torsions:
REMARK  status: ('A' for Active; 'I' for Inactive)
REMARK    1  A    between atoms: C_1  and  N_2
REMARK    2  A    between atoms: N_2  and  C_3
REMARK    3  A    between atoms: N_2  and  C_17
REMARK    4  A    between atoms: C_3  and  C_4
REMARK                            x       y       z     vdW  Elec       q    Type
REMARK                         _______ _______ _______ _____ _____    ______ ____
ROOT
ATOM      1  C   UNL     1       0.664  -0.316  -1.229  0.00  0.00    +0.019 C 
ENDROOT
BRANCH   1   2
ATOM      2  C   UNL     1       2.118   0.077  -1.175  0.00  0.00    +0.201 C 
ATOM      3  O   UNL     1       2.529   0.752  -0.255  0.00  0.00    -0.278 OA
ATOM      4  N   UNL     1       2.961  -0.323  -2.147  0.00  0.00    -0.287 N 
ATOM      5  C   UNL     1       4.045  -1.008  -1.840  0.00  0.00    +0.035 C 
ATOM      6  C   UNL     1       4.376  -1.266  -0.433  0.00  0.00    +0.025 C 
ATOM      7  C   UNL     1       5.482  -1.966  -0.112  0.00  0.00    +0.032 C 
ATOM      8  C   UNL     1       6.363  -2.474  -1.167  0.00  0.00    +0.095 C 
ATOM      9  N   UNL     1       7.484  -3.170  -1.174  0.00  0.00    -0.190 NA
ATOM     10  C   UNL     1       7.877  -3.366  -2.444  0.00  0.00    +0.369 C 
ATOM     11  O   UNL     1       8.992  -4.046  -2.801  0.00  0.00    -0.243 OA
ATOM     12  N   UNL     1       7.042  -2.816  -3.296  0.00  0.00    -0.190 NA
ATOM     13  C   UNL     1       6.041  -2.221  -2.585  0.00  0.00    +0.097 C 
ATOM     14  C   UNL     1       4.925  -1.521  -2.912  0.00  0.00    +0.053 C 
ATOM     15  H   UNL     1       2.771  -0.106  -3.073  0.00  0.00    +0.155 HD
ENDBRANCH   1   2
BRANCH   1  17
ATOM     16  C   UNL     1      -0.085   1.702  -0.172  0.00  0.00    -0.095 C 
ATOM     17  N   UNL     1      -0.037   0.238  -0.064  0.00  0.00    +0.388 N 
ATOM     18  H   UNL     1       0.454  -0.021   0.779  0.00  0.00    -0.081 HD
BRANCH  17  19
ATOM     19  C   UNL     1      -1.406  -0.294  -0.017  0.00  0.00    -0.037 C 
ATOM     20  C   UNL     1      -2.125   0.051  -1.319  0.00  0.00    -0.010 C 
ATOM     21  C   UNL     1      -3.606  -0.317  -1.166  0.00  0.00    +0.003 C 
ATOM     22  C   UNL     1      -4.244   0.658  -0.179  0.00  0.00    +0.035 C 
ATOM     23  C   UNL     1      -3.435   0.735   1.088  0.00  0.00    -0.046 A 
ATOM     24  C   UNL     1      -2.130   0.302   1.162  0.00  0.00    -0.058 A 
ATOM     25  C   UNL     1      -1.438   0.408   2.361  0.00  0.00    +0.002 A 
ATOM     26  C   UNL     1      -2.047   0.941   3.478  0.00  0.00    +0.000 A 
ATOM     27  C   UNL     1      -3.358   1.373   3.404  0.00  0.00    +0.000 A 
ATOM     28  C   UNL     1      -4.047   1.269   2.215  0.00  0.00    +0.004 A 
ENDBRANCH  17  19
ENDBRANCH   1  17
TORSDOF 3
