REMARK  Name = ZINC14466613
REMARK  7 active torsions:
REMARK  status: ('A' for Active; 'I' for Inactive)
REMARK    1  A    between atoms: C_1  and  C_2
REMARK    2  A    between atoms: C_2  and  C_3
REMARK    3  A    between atoms: C_3  and  C_5
REMARK    4  A    between atoms: C_3  and  N_6
REMARK    5  A    between atoms: N_6  and  S_7
REMARK    6  A    between atoms: S_7  and  C_10
REMARK    7  A    between atoms: C_23  and  C_26
REMARK                            x       y       z     vdW  Elec       q    Type
REMARK                         _______ _______ _______ _____ _____    ______ ____
ROOT
ATOM      1  C   UNL     1       0.046   7.911  -1.939  0.00  0.00    +0.106 A 
ATOM      2  C   UNL     1       0.166   8.165  -0.584  0.00  0.00    +0.030 A 
ATOM      3  C   UNL     1       0.886   7.298   0.213  0.00  0.00    +0.025 A 
ATOM      4  C   UNL     1       1.486   6.176  -0.345  0.00  0.00    +0.031 A 
ATOM      5  C   UNL     1       1.370   5.919  -1.702  0.00  0.00    -0.018 A 
ATOM      6  C   UNL     1       0.643   6.798  -2.494  0.00  0.00    +0.034 A 
ATOM      7  C   UNL     1       2.001   4.726  -2.348  0.00  0.00    +0.049 C 
ATOM      8  C   UNL     1       0.972   3.671  -2.681  0.00  0.00    -0.023 C 
ATOM      9  C   UNL     1       1.474   2.474  -2.499  0.00  0.00    -0.030 C 
ATOM     10  C   UNL     1       2.911   2.567  -2.024  0.00  0.00    +0.033 C 
ATOM     11  C   UNL     1       3.004   3.999  -1.427  0.00  0.00    +0.029 C 
ATOM     12  C   UNL     1       2.451   3.939  -0.000  0.00  0.00    +0.106 C 
ATOM     13  N   UNL     1       2.211   5.306   0.476  0.00  0.00    -0.336 N 
ATOM     14  H   UNL     1       2.545   5.598   1.338  0.00  0.00    +0.147 HD
ENDROOT
BRANCH  12  15
ATOM     15  C   UNL     1       1.157   3.167   0.007  0.00  0.00    -0.009 A 
ATOM     16  C   UNL     1      -0.034   3.810  -0.275  0.00  0.00    +0.007 A 
ATOM     17  C   UNL     1      -1.221   3.102  -0.268  0.00  0.00    +0.000 A 
ATOM     18  C   UNL     1      -1.218   1.750   0.017  0.00  0.00    +0.001 A 
ATOM     19  C   UNL     1      -0.029   1.107   0.306  0.00  0.00    +0.020 A 
ATOM     20  C   UNL     1       1.160   1.815   0.298  0.00  0.00    +0.046 A 
ATOM     21 CL   UNL     1       2.654   1.006   0.653  0.00  0.00    -0.083 Cl
ENDBRANCH  12  15
BRANCH   1  22
ATOM     22  S   UNL     1      -0.874   9.014  -2.960  0.00  0.00    +0.059 S 
ATOM     23  O   UNL     1      -0.878  10.271  -2.299  0.00  0.00    -0.153 OA
ATOM     24  O   UNL     1      -0.381   8.849  -4.282  0.00  0.00    -0.153 OA
BRANCH  22  25
ATOM     25  N   UNL     1      -2.442   8.479  -2.970  0.00  0.00    -0.187 NA
ATOM     26  H   UNL     1      -2.839   8.156  -3.793  0.00  0.00    +0.148 HD
BRANCH  25  27
ATOM     27  C   UNL     1      -3.228   8.495  -1.734  0.00  0.00    +0.073 C 
ATOM     28  C   UNL     1      -4.052   9.783  -1.670  0.00  0.00    +0.025 C 
BRANCH  27  30
ATOM     29  C   UNL     1      -3.342   6.001  -1.650  0.00  0.00    +0.005 C 
ATOM     30  C   UNL     1      -4.168   7.287  -1.712  0.00  0.00    +0.017 C 
ENDBRANCH  27  30
ENDBRANCH  25  27
ENDBRANCH  22  25
ENDBRANCH   1  22
TORSDOF 5
