REMARK  Name = ZINC47731436
REMARK  10 active torsions:
REMARK  status: ('A' for Active; 'I' for Inactive)
REMARK    1  A    between atoms: C_1  and  C_2
REMARK    2  A    between atoms: C_2  and  C_3
REMARK    3  A    between atoms: C_2  and  C_4
REMARK    4  A    between atoms: C_4  and  N_5
REMARK    5  A    between atoms: C_6  and  C_8
REMARK    6  A    between atoms: C_11  and  N_14
REMARK    7  A    between atoms: N_17  and  C_18
REMARK    8  A    between atoms: C_18  and  C_19
REMARK    9  A    between atoms: N_21  and  C_22
REMARK   10  A    between atoms: C_26  and  C_28
REMARK                            x       y       z     vdW  Elec       q    Type
REMARK                         _______ _______ _______ _____ _____    ______ ____
ROOT
ATOM      1  N   UNL     1      -5.603   0.706  -6.621  0.00  0.00    -0.269 N 
ATOM      2  C   UNL     1      -5.440   1.963  -7.078  0.00  0.00    +0.304 C 
ATOM      3  O   UNL     1      -4.656   2.713  -6.529  0.00  0.00    -0.252 OA
ATOM      4  N   UNL     1      -6.146   2.389  -8.144  0.00  0.00    -0.291 N 
ATOM      5  H   UNL     1      -6.177   0.086  -7.098  0.00  0.00    +0.156 HD
ATOM      6  H   UNL     1      -6.771   1.790  -8.582  0.00  0.00    +0.151 HD
ENDROOT
BRANCH   1  10
ATOM      7  C   UNL     1      -3.638  -0.521  -3.159  0.00  0.00    +0.037 A 
ATOM      8  C   UNL     1      -3.012   0.361  -4.044  0.00  0.00    +0.015 A 
ATOM      9  C   UNL     1      -3.664   0.764  -5.187  0.00  0.00    +0.024 A 
ATOM     10  C   UNL     1      -4.945   0.295  -5.462  0.00  0.00    +0.035 A 
ATOM     11  C   UNL     1      -5.571  -0.583  -4.583  0.00  0.00    +0.024 A 
ATOM     12  C   UNL     1      -4.922  -0.995  -3.441  0.00  0.00    +0.015 A 
BRANCH   7  14
ATOM     13  N   UNL     1      -1.703  -0.498  -1.662  0.00  0.00    -0.311 N 
ATOM     14  C   UNL     1      -2.941  -0.956  -1.933  0.00  0.00    +0.244 C 
ATOM     15  O   UNL     1      -3.485  -1.728  -1.166  0.00  0.00    -0.270 OA
ATOM     16  H   UNL     1      -1.269   0.117  -2.274  0.00  0.00    +0.149 HD
BRANCH  13  17
ATOM     17  C   UNL     1      -1.012  -0.930  -0.445  0.00  0.00    +0.107 C 
BRANCH  17  19
ATOM     18  C   UNL     1       0.200   1.245  -0.235  0.00  0.00    +0.009 C 
ATOM     19  C   UNL     1       0.367  -0.269  -0.379  0.00  0.00    -0.000 C 
ATOM     20  C   UNL     1       1.137  -0.815   0.825  0.00  0.00    +0.009 C 
ENDBRANCH  17  19
ENDBRANCH  13  17
ENDBRANCH   7  14
ENDBRANCH   1  10
BRANCH   4  21
ATOM     21  C   UNL     1      -5.970   3.755  -8.642  0.00  0.00    +0.202 C 
BRANCH  21  22
ATOM     22  C   UNL     1      -6.868   3.977  -9.831  0.00  0.00    +0.234 C 
ATOM     23  O   UNL     1      -7.585   3.082 -10.225  0.00  0.00    -0.274 OA
ATOM     24  N   UNL     1      -6.874   5.170 -10.458  0.00  0.00    -0.284 N 
ATOM     25  H   UNL     1      -6.249   5.862 -10.190  0.00  0.00    +0.155 HD
BRANCH  24  26
ATOM     26  C   UNL     1      -7.783   5.412 -11.494  0.00  0.00    +0.035 A 
ATOM     27  C   UNL     1      -7.420   6.224 -12.562  0.00  0.00    +0.023 A 
ATOM     28  C   UNL     1      -8.314   6.465 -13.588  0.00  0.00    +0.003 A 
ATOM     29  C   UNL     1      -9.573   5.901 -13.559  0.00  0.00    +0.017 A 
ATOM     30  C   UNL     1      -9.947   5.083 -12.492  0.00  0.00    +0.026 A 
ATOM     31  C   UNL     1      -9.043   4.836 -11.459  0.00  0.00    +0.040 A 
BRANCH  30  32
ATOM     32  C   UNL     1     -11.253   4.496 -12.460  0.00  0.00    -0.070 C 
ATOM     33  C   UNL     1     -12.323   4.015 -12.433  0.00  0.00    +0.009 C 
ENDBRANCH  30  32
ENDBRANCH  24  26
ENDBRANCH  21  22
ENDBRANCH   4  21
TORSDOF 8
