REMARK  Name = ZINC20424882
REMARK  8 active torsions:
REMARK  status: ('A' for Active; 'I' for Inactive)
REMARK    1  A    between atoms: C_1  and  C_2
REMARK    2  A    between atoms: C_4  and  C_19
REMARK    3  A    between atoms: C_6  and  C_18
REMARK    4  A    between atoms: C_7  and  O_8
REMARK    5  A    between atoms: O_8  and  C_9
REMARK    6  A    between atoms: C_9  and  C_11
REMARK    7  A    between atoms: C_9  and  C_12
REMARK    8  A    between atoms: C_19  and  O_20
REMARK                            x       y       z     vdW  Elec       q    Type
REMARK                         _______ _______ _______ _____ _____    ______ ____
ROOT
ATOM      1  O   UNL     1      -0.418   0.247   0.283  0.00  0.00    -0.479 OA
ENDROOT
BRANCH   1   8
ATOM      2  C   UNL     1      -2.545   1.377  -1.194  0.00  0.00    +0.047 C 
ATOM      3  C   UNL     1      -1.310   2.156  -0.821  0.00  0.00    -0.008 A 
ATOM      4  C   UNL     1      -1.187   3.479  -1.199  0.00  0.00    +0.012 A 
ATOM      5  C   UNL     1      -0.052   4.193  -0.862  0.00  0.00    -0.021 A 
ATOM      6  C   UNL     1       0.960   3.587  -0.142  0.00  0.00    +0.012 A 
ATOM      7  C   UNL     1       0.840   2.266   0.243  0.00  0.00    -0.008 A 
ATOM      8  C   UNL     1      -0.298   1.547  -0.094  0.00  0.00    +0.127 A 
ATOM      9  C   UNL     1       1.944   1.606   1.028  0.00  0.00    +0.047 C 
BRANCH   5  10
ATOM     10  C   UNL     1       0.081   5.635  -1.281  0.00  0.00    +0.191 C 
BRANCH  10  11
ATOM     11  O   UNL     1       0.709   5.703  -2.562  0.00  0.00    -0.390 OA
ATOM     12  H   UNL     1       0.893   6.680  -3.034  0.00  0.00    +0.210 HD
ENDBRANCH  10  11
ENDBRANCH   5  10
ENDBRANCH   1   8
BRANCH   1  13
ATOM     13  C   UNL     1      -1.172  -0.017   1.468  0.00  0.00    +0.256 C 
ATOM     14  C   UNL     1      -0.220  -0.154   2.658  0.00  0.00    +0.062 C 
BRANCH  13  15
ATOM     15  C   UNL     1      -1.947  -1.298   1.295  0.00  0.00    +0.261 C 
ATOM     16  O   UNL     1      -1.793  -1.970   0.297  0.00  0.00    -0.271 OA
ATOM     17  N   UNL     1      -2.811  -1.698   2.249  0.00  0.00    -0.237 N 
ATOM     18  C   UNL     1      -3.504  -2.843   2.095  0.00  0.00    +0.303 C 
ATOM     19  O   UNL     1      -3.349  -3.516   1.094  0.00  0.00    -0.253 OA
ATOM     20  N   UNL     1      -4.368  -3.242   3.049  0.00  0.00    -0.313 N 
ATOM     21  H   UNL     1      -2.950  -1.088   3.155  0.00  0.00    +0.159 HD
ATOM     22  H   UNL     1      -4.933  -4.177   2.922  0.00  0.00    +0.146 HD
ATOM     23  H   UNL     1      -4.507  -2.633   3.954  0.00  0.00    +0.146 HD
ENDBRANCH  13  15
ENDBRANCH   1  13
TORSDOF 5
