REMARK  Name = ZINC04686309
REMARK  9 active torsions:
REMARK  status: ('A' for Active; 'I' for Inactive)
REMARK    1  A    between atoms: C_1  and  C_2
REMARK    2  A    between atoms: C_2  and  C_3
REMARK    3  A    between atoms: C_3  and  C_5
REMARK    4  A    between atoms: C_3  and  N_6
REMARK    5  A    between atoms: C_7  and  C_9
REMARK    6  A    between atoms: C_9  and  S_10
REMARK    7  A    between atoms: S_10  and  C_11
REMARK    8  A    between atoms: C_15  and  C_19
REMARK    9  A    between atoms: N_22  and  C_23
REMARK                            x       y       z     vdW  Elec       q    Type
REMARK                         _______ _______ _______ _____ _____    ______ ____
ROOT
ATOM      1  C   UNL     1      -4.601   2.504   2.239  0.00  0.00    +0.178 A 
ATOM      2  N   UNL     1      -3.575   2.598   3.050  0.00  0.00    -0.201 NA
ATOM      3  C   UNL     1      -2.329   2.280   2.670  0.00  0.00    +0.187 A 
ATOM      4  C   UNL     1      -2.096   1.826   1.365  0.00  0.00    +0.082 A 
ATOM      5  C   UNL     1      -0.720   1.562   1.251  0.00  0.00    +0.046 A 
ATOM      6  N   UNL     1      -0.151   1.847   2.391  0.00  0.00    -0.279 N 
ATOM      7  N   UNL     1      -1.121   2.290   3.298  0.00  0.00    -0.153 NA
ATOM      8  H   UNL     1       0.935   1.721   2.510  0.00  0.00    +0.189 HD
ATOM      9  C   UNL     1      -0.015   1.070   0.013  0.00  0.00    +0.066 C 
ATOM     10  C   UNL     1      -3.239   1.724   0.448  0.00  0.00    +0.124 A 
ATOM     11  N   UNL     1      -3.088   1.321  -0.789  0.00  0.00    -0.384 N 
ATOM     12  N   UNL     1      -4.486   2.068   0.947  0.00  0.00    -0.273 N 
ATOM     13  H   UNL     1      -3.960   1.253  -1.457  0.00  0.00    +0.157 HD
ATOM     14  H   UNL     1      -2.088   1.050  -1.161  0.00  0.00    +0.157 HD
ENDROOT
BRANCH  12  15
ATOM     15  C   UNL     1      -5.620   1.984   0.129  0.00  0.00    +0.069 A 
ATOM     16  C   UNL     1      -6.005   3.075  -0.640  0.00  0.00    +0.028 A 
ATOM     17  C   UNL     1      -7.120   2.989  -1.450  0.00  0.00    +0.002 A 
ATOM     18  C   UNL     1      -7.859   1.821  -1.489  0.00  0.00    +0.002 A 
ATOM     19  C   UNL     1      -7.483   0.734  -0.722  0.00  0.00    +0.022 A 
ATOM     20  C   UNL     1      -6.365   0.812   0.088  0.00  0.00    +0.065 A 
ATOM     21 CL   UNL     1      -5.893  -0.552   1.052  0.00  0.00    -0.081 Cl
ENDBRANCH  12  15
BRANCH   1  22
ATOM     22  S   UNL     1      -6.196   2.953   2.840  0.00  0.00    -0.078 S 
BRANCH  22  23
ATOM     23  C   UNL     1      -5.770   3.433   4.532  0.00  0.00    +0.173 C 
BRANCH  23  25
ATOM     24  N   UNL     1      -6.941   4.271   6.544  0.00  0.00    -0.312 N 
ATOM     25  C   UNL     1      -7.016   3.868   5.260  0.00  0.00    +0.224 C 
ATOM     26  O   UNL     1      -8.087   3.854   4.690  0.00  0.00    -0.275 OA
ATOM     27  H   UNL     1      -5.971   4.283   7.061  0.00  0.00    +0.149 HD
BRANCH  24  28
ATOM     28  C   UNL     1      -8.153   4.693   7.251  0.00  0.00    +0.070 C 
ATOM     29  C   UNL     1      -8.427   6.170   6.956  0.00  0.00    +0.028 C 
BRANCH  28  31
ATOM     30  C   UNL     1      -7.809   3.010   9.065  0.00  0.00    +0.005 C 
ATOM     31  C   UNL     1      -7.958   4.501   8.756  0.00  0.00    +0.018 C 
ENDBRANCH  28  31
ENDBRANCH  24  28
ENDBRANCH  23  25
ENDBRANCH  22  23
ENDBRANCH   1  22
TORSDOF 6
