REMARK  Name = ZINC41050740
REMARK  1 active torsions:
REMARK  status: ('A' for Active; 'I' for Inactive)
REMARK    1  A    between atoms: C_6  and  C_10
REMARK                            x       y       z     vdW  Elec       q    Type
REMARK                         _______ _______ _______ _____ _____    ______ ____
ROOT
ATOM      1  C   UNL     1      -0.048   1.584  -0.065  0.00  0.00    +0.004 C 
ATOM      2  C   UNL     1       1.374   2.138  -0.072  0.00  0.00    +0.002 C 
ATOM      3  C   UNL     1       2.127   1.704  -1.333  0.00  0.00    +0.019 C 
ATOM      4  C   UNL     1       2.275   0.180  -1.308  0.00  0.00    +0.079 C 
ATOM      5  C   UNL     1       0.863  -0.395  -1.194  0.00  0.00    -0.043 C 
ATOM      6  C   UNL     1       0.487  -1.197  -2.169  0.00  0.00    +0.052 C 
ATOM      7  C   UNL     1       1.383  -1.443  -3.320  0.00  0.00    +0.099 C 
ATOM      8  S   UNL     1       2.811  -0.436  -2.947  0.00  0.00    -0.098 S 
ATOM      9  N   UNL     1       1.180  -2.209  -4.356  0.00  0.00    -0.292 NA
ATOM     10  C   UNL     1      -0.026   0.049  -0.035  0.00  0.00    +0.032 C 
ATOM     11  H   UNL     1       0.351  -2.707  -4.436  0.00  0.00    +0.187 HD
ENDROOT
BRANCH   6  12
ATOM     12  C   UNL     1      -0.842  -1.854  -2.112  0.00  0.00    +0.185 A 
ATOM     13  N   UNL     1      -1.389  -2.592  -3.090  0.00  0.00    -0.194 NA
ATOM     14  C   UNL     1      -2.570  -3.024  -2.709  0.00  0.00    +0.209 A 
ATOM     15  N   UNL     1      -2.803  -2.562  -1.461  0.00  0.00    -0.247 N 
ATOM     16  H   UNL     1      -3.594  -2.719  -0.922  0.00  0.00    +0.192 HD
ATOM     17  N   UNL     1      -1.672  -1.814  -1.095  0.00  0.00    -0.151 NA
ATOM     18  N   UNL     1      -3.426  -3.813  -3.455  0.00  0.00    -0.328 N 
ATOM     19  H   UNL     1      -3.171  -4.097  -4.347  0.00  0.00    +0.145 HD
ATOM     20  H   UNL     1      -4.282  -4.083  -3.087  0.00  0.00    +0.145 HD
ENDBRANCH   6  12
TORSDOF 1
