REMARK  Name = ZINC08925984
REMARK  9 active torsions:
REMARK  status: ('A' for Active; 'I' for Inactive)
REMARK    1  A    between atoms: C_4  and  C_7
REMARK    2  A    between atoms: C_7  and  C_14
REMARK    3  A    between atoms: C_14  and  C_15
REMARK    4  A    between atoms: C_15  and  C_16
REMARK    5  A    between atoms: C_16  and  C_17
REMARK    6  A    between atoms: C_17  and  C_18
REMARK    7  A    between atoms: C_18  and  C_19
REMARK    8  A    between atoms: C_19  and  C_20
REMARK    9  A    between atoms: C_20  and  C_27
REMARK                            x       y       z     vdW  Elec       q    Type
REMARK                         _______ _______ _______ _____ _____    ______ ____
ROOT
ATOM      1  C   UNL     1      -2.601   7.909   1.396  0.00  0.00    +0.000 C 
ENDROOT
BRANCH   1   2
ATOM      2  C   UNL     1      -1.333   7.393   0.711  0.00  0.00    +0.003 C 
BRANCH   2   3
ATOM      3  C   UNL     1      -1.338   5.863   0.716  0.00  0.00    +0.040 C 
BRANCH   3   4
ATOM      4  C   UNL     1      -0.070   5.347   0.031  0.00  0.00    +0.138 C 
ATOM      5  C   UNL     1       0.035   5.890  -1.380  0.00  0.00    +0.248 C 
ATOM      6  O   UNL     1      -0.740   5.709  -2.294  0.00  0.00    -0.273 OA
ATOM      7  N   UNL     1       1.172   6.614  -1.408  0.00  0.00    -0.238 N 
ATOM      8  C   UNL     1       1.792   6.604  -0.223  0.00  0.00    +0.307 C 
ATOM      9  O   UNL     1       2.836   7.186  -0.002  0.00  0.00    -0.252 OA
ATOM     10  N   UNL     1       1.131   5.878   0.697  0.00  0.00    -0.281 N 
ATOM     11  H   UNL     1       1.500   7.083  -2.191  0.00  0.00    +0.159 HD
ATOM     12  H   UNL     1       1.395   5.733   1.620  0.00  0.00    +0.152 HD
BRANCH   4  16
ATOM     13  C   UNL     1      -0.013   1.076   0.008  0.00  0.00    +0.000 A 
ATOM     14  C   UNL     1      -1.219   1.751   0.017  0.00  0.00    +0.000 A 
ATOM     15  C   UNL     1      -1.238   3.133   0.030  0.00  0.00    +0.006 A 
ATOM     16  C   UNL     1      -0.050   3.840   0.023  0.00  0.00    -0.015 A 
ATOM     17  C   UNL     1       1.156   3.165   0.008  0.00  0.00    +0.006 A 
ATOM     18  C   UNL     1       1.175   1.783   0.000  0.00  0.00    +0.000 A 
ENDBRANCH   4  16
ENDBRANCH   3   4
ENDBRANCH   2   3
ENDBRANCH   1   2
BRANCH   1  19
ATOM     19  C   UNL     1      -2.597   9.439   1.391  0.00  0.00    +0.000 C 
BRANCH  19  20
ATOM     20  C   UNL     1      -3.864   9.954   2.075  0.00  0.00    +0.003 C 
BRANCH  20  21
ATOM     21  C   UNL     1      -3.860  11.484   2.070  0.00  0.00    +0.040 C 
BRANCH  21  22
ATOM     22  C   UNL     1      -5.127  12.000   2.755  0.00  0.00    +0.138 C 
ATOM     23  C   UNL     1      -6.362  11.409   2.105  0.00  0.00    +0.248 C 
ATOM     24  O   UNL     1      -6.720  11.544   0.954  0.00  0.00    -0.273 OA
ATOM     25  N   UNL     1      -6.981  10.705   3.073  0.00  0.00    -0.238 N 
ATOM     26  C   UNL     1      -6.316  10.767   4.231  0.00  0.00    +0.307 C 
ATOM     27  O   UNL     1      -6.678  10.212   5.250  0.00  0.00    -0.252 OA
ATOM     28  N   UNL     1      -5.200  11.514   4.144  0.00  0.00    -0.281 N 
ATOM     29  H   UNL     1      -7.808  10.213   2.945  0.00  0.00    +0.159 HD
ATOM     30  H   UNL     1      -4.567  11.696   4.856  0.00  0.00    +0.152 HD
BRANCH  22  31
ATOM     31  C   UNL     1      -5.173  13.506   2.717  0.00  0.00    -0.015 A 
ATOM     32  C   UNL     1      -4.575  14.190   1.675  0.00  0.00    +0.006 A 
ATOM     33  C   UNL     1      -4.620  15.571   1.639  0.00  0.00    +0.000 A 
ATOM     34  C   UNL     1      -5.256  16.268   2.649  0.00  0.00    +0.000 A 
ATOM     35  C   UNL     1      -5.849  15.585   3.693  0.00  0.00    +0.000 A 
ATOM     36  C   UNL     1      -5.808  14.204   3.728  0.00  0.00    +0.006 A 
ENDBRANCH  22  31
ENDBRANCH  21  22
ENDBRANCH  20  21
ENDBRANCH  19  20
ENDBRANCH   1  19
TORSDOF 9
