REMARK  Name = ZINC08741372
REMARK  5 active torsions:
REMARK  status: ('A' for Active; 'I' for Inactive)
REMARK    1  A    between atoms: C_1  and  N_2
REMARK    2  A    between atoms: N_2  and  C_3
REMARK    3  A    between atoms: N_2  and  C_4
REMARK    4  A    between atoms: C_7  and  C_10
REMARK    5  A    between atoms: N_11  and  N_12
REMARK                            x       y       z     vdW  Elec       q    Type
REMARK                         _______ _______ _______ _____ _____    ______ ____
ROOT
ATOM      1  N   UNL     1      -4.837   0.929   0.029  0.00  0.00    -0.190 N 
ATOM      2  C   UNL     1      -6.037   1.604   0.038  0.00  0.00    +0.309 A 
ATOM      3  N   UNL     1      -7.216   1.037   0.040  0.00  0.00    -0.194 NA
ATOM      4  C   UNL     1      -8.168   2.009   0.051  0.00  0.00    +0.111 A 
ATOM      5  C   UNL     1      -9.564   1.991   0.057  0.00  0.00    +0.033 A 
ATOM      6  C   UNL     1     -10.263   3.178   0.068  0.00  0.00    +0.022 A 
ATOM      7  C   UNL     1      -9.588   4.390   0.072  0.00  0.00    +0.045 A 
ATOM      8  C   UNL     1      -8.207   4.422   0.066  0.00  0.00    +0.068 A 
ATOM      9  C   UNL     1      -7.489   3.237   0.055  0.00  0.00    +0.158 A 
ATOM     10  O   UNL     1      -6.169   2.943   0.053  0.00  0.00    -0.423 OA
ATOM     11 CL   UNL     1     -10.484   5.877   0.086  0.00  0.00    -0.083 Cl
ATOM     12  H   UNL     1      -4.824  -0.171   0.023  0.00  0.00    +0.179 HD
ENDROOT
BRANCH   1  14
ATOM     13  C   UNL     1      -2.500   1.008   0.019  0.00  0.00    +0.138 C 
ATOM     14  N   UNL     1      -3.631   1.644   0.028  0.00  0.00    -0.186 NA
BRANCH  13  18
ATOM     15  C   UNL     1       1.153   3.172   0.008  0.00  0.00    +0.029 A 
ATOM     16  C   UNL     1       1.170   1.782   0.001  0.00  0.00    +0.024 A 
ATOM     17  C   UNL     1      -0.013   1.076   0.008  0.00  0.00    +0.011 A 
ATOM     18  C   UNL     1      -1.232   1.759   0.017  0.00  0.00    -0.005 A 
ATOM     19  C   UNL     1      -1.246   3.156   0.031  0.00  0.00    +0.011 A 
ATOM     20  C   UNL     1      -0.059   3.856   0.022  0.00  0.00    +0.024 A 
BRANCH  15  22
ATOM     21  C   UNL     1       3.630   3.166  -0.017  0.00  0.00    +0.129 C 
ATOM     22  N   UNL     1       2.353   3.884  -0.000  0.00  0.00    -0.336 N 
ATOM     23  C   UNL     1       2.336   5.349   0.007  0.00  0.00    +0.129 C 
ENDBRANCH  15  22
ENDBRANCH  13  18
ENDBRANCH   1  14
TORSDOF 3
