REMARK  Name = ZINC43177338
REMARK  8 active torsions:
REMARK  status: ('A' for Active; 'I' for Inactive)
REMARK    1  A    between atoms: C_1  and  C_2
REMARK    2  A    between atoms: C_2  and  O_3
REMARK    3  A    between atoms: O_3  and  C_4
REMARK    4  A    between atoms: N_12  and  C_13
REMARK    5  A    between atoms: N_15  and  CA_16
REMARK    6  A    between atoms: CA_16  and  CB_18
REMARK    7  A    between atoms: CA_16  and  C_19
REMARK    8  A    between atoms: C_19  and  O_20
REMARK                            x       y       z     vdW  Elec       q    Type
REMARK                         _______ _______ _______ _____ _____    ______ ____
ROOT
ATOM      1  C   UNK A   0      -1.498  -1.849   0.006  0.00  0.00    +0.122 A 
ATOM      2  C   UNK A   0      -0.392  -2.690  -0.003  0.00  0.00    +0.048 A 
ATOM      3  C   UNK A   0      -0.537  -4.056  -0.009  0.00  0.00    +0.030 A 
ATOM      4  C   UNK A   0      -1.812  -4.648  -0.006  0.00  0.00    +0.055 A 
ATOM      5  C   UNK A   0      -2.909  -3.775   0.004  0.00  0.00    +0.042 A 
ATOM      6  C   UNK A   0      -2.769  -2.408   0.016  0.00  0.00    +0.062 A 
ATOM      7  S   UNK A   0      -4.307  -4.872   0.006  0.00  0.00    -0.052 S 
ATOM      8  C   UNK A   0      -3.410  -6.415  -0.007  0.00  0.00    +0.165 A 
ATOM      9  N   UNK A   0      -3.888  -7.654  -0.010  0.00  0.00    -0.139 NA
ATOM     10  N   UNK A   0      -2.113  -6.000  -0.011  0.00  0.00    -0.335 N 
ATOM     11  H   UNK A   0      -1.397  -6.655  -0.018  0.00  0.00    +0.168 HD
ENDROOT
BRANCH   9  12
ATOM     12  C   UNK A   0      -5.209  -7.862  -0.004  0.00  0.00    +0.326 C 
ATOM     13  O   UNK A   0      -5.975  -6.914   0.005  0.00  0.00    -0.251 OA
ATOM     14  N   ALA A   1      -5.694  -9.120  -0.008  0.00  0.00    -0.293 N 
ATOM     15  H   ALA A   1      -5.084  -9.874  -0.015  0.00  0.00    +0.151 HD
BRANCH  14  16
ATOM     16  CA  ALA A   1      -7.141  -9.348  -0.001  0.00  0.00    +0.097 C 
ATOM     17  CB  ALA A   1      -7.672  -9.295  -1.435  0.00  0.00    +0.030 C 
BRANCH  16  18
ATOM     18  C   ALA A   1      -7.438 -10.721   0.604  0.00  0.00    +0.177 C 
BRANCH  18  19
ATOM     19  O   ALA A   1      -6.899 -11.740  -0.241  0.00  0.00    -0.393 OA
ATOM     20  H   ALA A   1      -7.051 -12.639   0.081  0.00  0.00    +0.209 HD
ENDBRANCH  18  19
ENDBRANCH  16  18
ENDBRANCH  14  16
ENDBRANCH   9  12
BRANCH   1  21
ATOM     21  O   UNK A   0      -1.339  -0.499   0.012  0.00  0.00    -0.492 OA
BRANCH  21  23
ATOM     22  C   UNK A   0      -0.019   1.526   0.010  0.00  0.00    +0.048 C 
ATOM     23  C   UNK A   0       0.002  -0.004   0.002  0.00  0.00    +0.225 C 
ENDBRANCH  21  23
ENDBRANCH   1  21
TORSDOF 6
