REMARK  Name = ZINC42759343
REMARK  9 active torsions:
REMARK  status: ('A' for Active; 'I' for Inactive)
REMARK    1  A    between atoms: C_1  and  C_2
REMARK    2  A    between atoms: C_7  and  N_12
REMARK    3  A    between atoms: C_9  and  C_11
REMARK    4  A    between atoms: N_12  and  C_13
REMARK    5  A    between atoms: C_13  and  N_15
REMARK    6  A    between atoms: N_15  and  N_16
REMARK    7  A    between atoms: C_17  and  C_19
REMARK    8  A    between atoms: C_19  and  N_20
REMARK    9  A    between atoms: C_21  and  C_23
REMARK                            x       y       z     vdW  Elec       q    Type
REMARK                         _______ _______ _______ _____ _____    ______ ____
ROOT
ATOM      1  N   UNL     1       2.778  -3.389   4.647  0.00  0.00    -0.234 N 
ATOM      2  C   UNL     1       3.430  -3.835   5.739  0.00  0.00    +0.246 C 
ATOM      3  O   UNL     1       3.956  -4.928   5.727  0.00  0.00    -0.273 OA
ATOM      4  H   UNL     1       2.357  -2.515   4.657  0.00  0.00    +0.173 HD
ENDROOT
BRANCH   1   5
ATOM      5  N   UNL     1       2.708  -4.187   3.498  0.00  0.00    -0.246 N 
ATOM      6  H   UNL     1       3.129  -5.060   3.488  0.00  0.00    +0.172 HD
BRANCH   5   7
ATOM      7  C   UNL     1       2.056  -3.740   2.406  0.00  0.00    +0.147 C 
ATOM      8  S   UNL     1       1.972  -4.715   1.002  0.00  0.00    -0.017 S 
BRANCH   7   9
ATOM      9  N   UNL     1       1.471  -2.526   2.420  0.00  0.00    -0.322 N 
ATOM     10  H   UNL     1       1.520  -1.974   3.216  0.00  0.00    +0.148 HD
BRANCH   9  16
ATOM     11  C   UNL     1      -0.019   1.526   0.010  0.00  0.00    +0.008 C 
ATOM     12  C   UNL     1       0.002  -0.004   0.002  0.00  0.00    -0.009 C 
ATOM     13  C   UNL     1      -1.433  -0.534   0.013  0.00  0.00    +0.003 C 
ATOM     14  C   UNL     1      -1.413  -2.063   0.004  0.00  0.00    +0.002 C 
ATOM     15  C   UNL     1      -0.673  -2.570   1.244  0.00  0.00    +0.022 C 
ATOM     16  C   UNL     1       0.763  -2.041   1.233  0.00  0.00    +0.075 C 
ATOM     17  C   UNL     1       0.742  -0.511   1.242  0.00  0.00    +0.009 C 
ATOM     18  C   UNL     1       0.026  -0.018   2.500  0.00  0.00    +0.009 C 
ENDBRANCH   9  16
ENDBRANCH   7   9
ENDBRANCH   5   7
ENDBRANCH   1   5
BRANCH   2  19
ATOM     19  C   UNL     1       3.504  -2.977   6.976  0.00  0.00    +0.202 C 
BRANCH  19  20
ATOM     20  N   UNL     1       4.260  -3.681   8.014  0.00  0.00    -0.303 N 
ATOM     21  C   UNL     1       4.457  -3.102   9.215  0.00  0.00    +0.247 C 
ATOM     22  O   UNL     1       4.006  -1.994   9.437  0.00  0.00    -0.270 OA
ATOM     23  H   UNL     1       4.620  -4.565   7.838  0.00  0.00    +0.150 HD
BRANCH  21  24
ATOM     24  C   UNL     1       5.218  -3.811  10.261  0.00  0.00    +0.072 A 
ATOM     25  C   UNL     1       5.742  -5.082  10.008  0.00  0.00    +0.019 A 
ATOM     26  C   UNL     1       6.452  -5.739  10.988  0.00  0.00    +0.039 A 
ATOM     27  C   UNL     1       6.649  -5.144  12.226  0.00  0.00    +0.126 A 
ATOM     28  C   UNL     1       6.133  -3.885  12.485  0.00  0.00    +0.077 A 
ATOM     29  C   UNL     1       5.423  -3.212  11.509  0.00  0.00    +0.138 A 
ATOM     30  F   UNL     1       4.925  -1.982  11.760  0.00  0.00    -0.205 F 
ATOM     31  F   UNL     1       7.346  -5.796  13.182  0.00  0.00    -0.205 F 
ENDBRANCH  21  24
ENDBRANCH  19  20
ENDBRANCH   2  19
TORSDOF 7
