REMARK  Name = ZINC64870766
REMARK  7 active torsions:
REMARK  status: ('A' for Active; 'I' for Inactive)
REMARK    1  A    between atoms: C_1  and  C_2
REMARK    2  A    between atoms: C_7  and  C_8
REMARK    3  A    between atoms: C_11  and  C_15
REMARK    4  A    between atoms: N_25  and  C_28
REMARK    5  A    between atoms: C_28  and  C_29
REMARK    6  A    between atoms: C_29  and  C_30
REMARK    7  A    between atoms: C_29  and  C_31
REMARK                            x       y       z     vdW  Elec       q    Type
REMARK                         _______ _______ _______ _____ _____    ______ ____
ROOT
ATOM      1  C   UNL     1       2.299   0.404   5.164  0.00  0.00    -0.000 A 
ATOM      2  C   UNL     1       3.258  -0.454   4.649  0.00  0.00    +0.008 A 
ATOM      3  C   UNL     1       4.392  -0.752   5.375  0.00  0.00    +0.016 A 
ATOM      4  C   UNL     1       4.568  -0.183   6.635  0.00  0.00    +0.063 A 
ATOM      5  C   UNL     1       3.595   0.687   7.156  0.00  0.00    +0.056 A 
ATOM      6  C   UNL     1       2.465   0.979   6.408  0.00  0.00    +0.034 A 
ATOM      7  N   UNL     1       3.798   1.238   8.413  0.00  0.00    -0.307 N 
ATOM      8  H   UNL     1       3.135   1.841   8.786  0.00  0.00    +0.170 HD
ATOM      9  C   UNL     1       4.904   0.947   9.119  0.00  0.00    +0.330 A 
ATOM     10  O   UNL     1       5.043   1.451  10.216  0.00  0.00    -0.246 OA
ATOM     11  N   UNL     1       5.860   0.122   8.664  0.00  0.00    -0.260 N 
ATOM     12  C   UNL     1       5.760  -0.467   7.453  0.00  0.00    +0.264 A 
ATOM     13  O   UNL     1       6.632  -1.213   7.049  0.00  0.00    -0.267 OA
ENDROOT
BRANCH   1  16
ATOM     14  C   UNL     1      -0.080   0.207   2.403  0.00  0.00    +0.181 C 
ATOM     15  N   UNL     1       0.710  -0.434   3.488  0.00  0.00    -0.265 NA
ATOM     16  C   UNL     1       1.067   0.718   4.355  0.00  0.00    +0.242 C 
ATOM     17  O   UNL     1       1.326   1.800   3.442  0.00  0.00    -0.274 OA
ATOM     18  N   UNL     1       0.598   1.508   2.196  0.00  0.00    -0.177 NA
ATOM     19  H   UNL     1       0.152  -1.107   3.992  0.00  0.00    +0.127 HD
ATOM     20  H   UNL     1      -0.070   2.235   1.986  0.00  0.00    +0.156 HD
BRANCH  14  27
ATOM     21  C   UNL     1      -2.084  -1.819   1.926  0.00  0.00    +0.044 C 
ATOM     22  C   UNL     1      -0.986  -1.593   0.918  0.00  0.00    -0.044 A 
ATOM     23  C   UNL     1      -0.941  -2.351  -0.237  0.00  0.00    +0.004 A 
ATOM     24  C   UNL     1       0.066  -2.144  -1.161  0.00  0.00    +0.000 A 
ATOM     25  C   UNL     1       1.028  -1.179  -0.930  0.00  0.00    +0.000 A 
ATOM     26  C   UNL     1       0.982  -0.420   0.224  0.00  0.00    +0.007 A 
ATOM     27  C   UNL     1      -0.028  -0.624   1.147  0.00  0.00    -0.011 A 
ENDBRANCH  14  27
ENDBRANCH   1  16
BRANCH  11  28
ATOM     28  C   UNL     1       7.036  -0.143   9.498  0.00  0.00    +0.133 C 
BRANCH  28  29
ATOM     29  C   UNL     1       6.765  -1.356  10.390  0.00  0.00    +0.003 C 
ATOM     30  C   UNL     1       6.597  -2.603   9.518  0.00  0.00    +0.009 C 
ATOM     31  C   UNL     1       7.941  -1.558  11.347  0.00  0.00    +0.009 C 
ENDBRANCH  28  29
ENDBRANCH  11  28
TORSDOF 4
