REMARK  Name = ZINC41462282
REMARK  3 active torsions:
REMARK  status: ('A' for Active; 'I' for Inactive)
REMARK    1  A    between atoms: C_1  and  C_2
REMARK    2  A    between atoms: N_10  and  C_11
REMARK    3  A    between atoms: C_16  and  C_17
REMARK                            x       y       z     vdW  Elec       q    Type
REMARK                         _______ _______ _______ _____ _____    ______ ____
ROOT
ATOM      1  C   UNL     1      -0.017   1.502   0.026  0.00  0.00    +0.089 C 
ATOM      2  C   UNL     1       0.003  -0.005   0.022  0.00  0.00    +0.136 A 
ATOM      3  C   UNL     1      -1.075  -0.808   0.015  0.00  0.00    +0.091 A 
ATOM      4  C   UNL     1      -0.625  -2.147   0.014  0.00  0.00    +0.169 A 
ATOM      5  N   UNL     1       0.684  -2.131   0.020  0.00  0.00    -0.063 NA
ATOM      6  O   UNL     1       1.101  -0.778   0.019  0.00  0.00    -0.358 OA
ATOM      7  N   UNL     1      -1.432  -3.285   0.008  0.00  0.00    -0.251 N 
ATOM      8  C   UNL     1      -2.774  -3.159   0.002  0.00  0.00    +0.309 C 
ATOM      9  O   UNL     1      -3.281  -2.054   0.003  0.00  0.00    -0.252 OA
ATOM     10  N   UNL     1      -3.553  -4.259  -0.004  0.00  0.00    -0.269 N 
ATOM     11  H   UNL     1      -1.027  -4.167   0.007  0.00  0.00    +0.158 HD
ATOM     12  H   UNL     1      -3.152  -5.138  -0.086  0.00  0.00    +0.156 HD
ENDROOT
BRANCH  10  13
ATOM     13  C   UNL     1      -4.943  -4.132   0.110  0.00  0.00    +0.046 A 
ATOM     14  C   UNL     1      -5.492  -3.014   0.725  0.00  0.00    +0.025 A 
ATOM     15  C   UNL     1      -6.862  -2.891   0.835  0.00  0.00    +0.022 A 
ATOM     16  C   UNL     1      -7.690  -3.881   0.334  0.00  0.00    +0.042 A 
ATOM     17  C   UNL     1      -7.146  -4.996  -0.279  0.00  0.00    +0.034 A 
ATOM     18  C   UNL     1      -5.775  -5.121  -0.397  0.00  0.00    +0.077 A 
ATOM     19 CL   UNL     1      -9.413  -3.725   0.475  0.00  0.00    -0.084 Cl
BRANCH  18  20
ATOM     20  C   UNL     1      -5.183  -6.332  -1.071  0.00  0.00    +0.419 C 
ATOM     21  F   UNL     1      -6.213  -7.179  -1.495  0.00  0.00    -0.166 F 
ATOM     22  F   UNL     1      -4.427  -5.928  -2.176  0.00  0.00    -0.166 F 
ATOM     23  F   UNL     1      -4.361  -7.013  -0.167  0.00  0.00    -0.166 F 
ENDBRANCH  18  20
ENDBRANCH  10  13
TORSDOF 2
