REMARK  Name = ZINC17147530
REMARK  5 active torsions:
REMARK  status: ('A' for Active; 'I' for Inactive)
REMARK    1  A    between atoms: C_1  and  C_2
REMARK    2  A    between atoms: C_2  and  N_3
REMARK    3  A    between atoms: N_3  and  C_4
REMARK    4  A    between atoms: C_4  and  C_5
REMARK    5  A    between atoms: C_6  and  C_8
REMARK                            x       y       z     vdW  Elec       q    Type
REMARK                         _______ _______ _______ _____ _____    ______ ____
ROOT
ATOM      1  C   UNL     1       2.603  -1.259  -0.655  0.00  0.00    +0.080 C 
ATOM      2  C   UNL     1       3.904  -2.062  -0.771  0.00  0.00    +0.019 C 
ATOM      3  C   UNL     1       4.169  -2.338  -2.250  0.00  0.00    +0.057 C 
ATOM      4  C   UNL     1       4.086  -1.065  -3.050  0.00  0.00    +0.053 A 
ATOM      5  C   UNL     1       3.479   0.056  -2.584  0.00  0.00    +0.039 A 
ATOM      6  C   UNL     1       3.438   1.202  -3.406  0.00  0.00    +0.256 A 
ATOM      7  O   UNL     1       2.892   2.222  -3.018  0.00  0.00    -0.267 OA
ATOM      8  N   UNL     1       4.011   1.156  -4.625  0.00  0.00    -0.295 N 
ATOM      9  H   UNL     1       3.994   1.935  -5.203  0.00  0.00    +0.172 HD
ATOM     10  C   UNL     1       4.613   0.008  -5.039  0.00  0.00    +0.193 A 
ATOM     11  N   UNL     1       4.641  -1.058  -4.269  0.00  0.00    -0.221 NA
ATOM     12  N   UNL     1       5.198  -0.038  -6.276  0.00  0.00    -0.329 N 
ATOM     13  C   UNL     1       2.848   0.139  -1.220  0.00  0.00    +0.055 C 
ATOM     14  H   UNL     1       5.182   0.743  -6.850  0.00  0.00    +0.145 HD
ATOM     15  H   UNL     1       5.629  -0.853  -6.578  0.00  0.00    +0.145 HD
ENDROOT
BRANCH   1  17
ATOM     16  N   UNL     1       0.903  -0.963   1.117  0.00  0.00    -0.302 N 
ATOM     17  C   UNL     1       2.196  -1.158   0.792  0.00  0.00    +0.219 C 
ATOM     18  O   UNL     1       3.033  -1.251   1.665  0.00  0.00    -0.275 OA
BRANCH  16  20
ATOM     19  C   UNL     1       0.006  -2.390   2.890  0.00  0.00    +0.024 C 
ATOM     20  C   UNL     1       0.489  -0.985   2.522  0.00  0.00    +0.104 C 
ENDBRANCH  16  20
BRANCH  16  21
ATOM     21  C   UNL     1      -0.090  -0.730   0.065  0.00  0.00    +0.104 C 
ATOM     22  C   UNL     1      -0.323   0.774  -0.092  0.00  0.00    +0.024 C 
ENDBRANCH  16  21
ENDBRANCH   1  17
TORSDOF 3
