REMARK  Name = ZINC37330522
REMARK  6 active torsions:
REMARK  status: ('A' for Active; 'I' for Inactive)
REMARK    1  A    between atoms: C_1  and  N_2
REMARK    2  A    between atoms: N_2  and  C_3
REMARK    3  A    between atoms: C_3  and  C_4
REMARK    4  A    between atoms: C_4  and  C_5
REMARK    5  A    between atoms: C_5  and  C_6
REMARK    6  A    between atoms: N_11  and  C_12
REMARK                            x       y       z     vdW  Elec       q    Type
REMARK                         _______ _______ _______ _____ _____    ______ ____
ROOT
ATOM      1  C   UNL     1      -0.040   1.460   0.011  0.00  0.00    +0.133 C 
ATOM      2  N   UNL     1      -0.014  -0.005   0.002  0.00  0.00    -0.288 N 
ATOM      3  C   UNL     1      -0.005  -0.672  -1.169  0.00  0.00    +0.306 C 
ATOM      4  O   UNL     1       0.016  -1.888  -1.176  0.00  0.00    -0.252 OA
ATOM      5  N   UNL     1      -0.020   0.009  -2.332  0.00  0.00    -0.268 N 
ATOM      6  H   UNL     1      -0.102   0.975  -2.328  0.00  0.00    +0.156 HD
ENDROOT
BRANCH   5   7
ATOM      7  C   UNL     1       0.083  -0.680  -3.548  0.00  0.00    +0.049 A 
ATOM      8  C   UNL     1      -0.492  -1.936  -3.687  0.00  0.00    +0.027 A 
ATOM      9  C   UNL     1      -0.389  -2.613  -4.886  0.00  0.00    +0.040 A 
ATOM     10  C   UNL     1       0.288  -2.040  -5.950  0.00  0.00    +0.125 A 
ATOM     11  C   UNL     1       0.863  -0.788  -5.814  0.00  0.00    +0.055 A 
ATOM     12  C   UNL     1       0.757  -0.105  -4.618  0.00  0.00    +0.042 A 
ATOM     13 BR   UNL     1       1.536   1.609  -4.435  0.00  0.00    -0.048 Br
ATOM     14  F   UNL     1       0.388  -2.705  -7.122  0.00  0.00    -0.205 F 
ENDBRANCH   5   7
BRANCH   2  15
ATOM     15  C   UNL     1       0.002  -0.745   1.266  0.00  0.00    +0.109 C 
BRANCH  15  16
ATOM     16  C   UNL     1      -1.435  -1.028   1.710  0.00  0.00    +0.030 C 
BRANCH  16  17
ATOM     17  C   UNL     1      -1.418  -1.800   3.031  0.00  0.00    +0.126 C 
BRANCH  17  18
ATOM     18  C   UNL     1      -2.833  -2.078   3.468  0.00  0.00    +0.356 C 
ATOM     19  O   UNL     1      -3.769  -1.694   2.786  0.00  0.00    -0.246 OA
ATOM     20  O   UNL     1      -3.043  -2.688   4.503  0.00  0.00    -0.246 OA
ENDBRANCH  17  18
ENDBRANCH  16  17
ENDBRANCH  15  16
ENDBRANCH   2  15
TORSDOF 5
