REMARK  Name = ZINC14158480
REMARK  10 active torsions:
REMARK  status: ('A' for Active; 'I' for Inactive)
REMARK    1  A    between atoms: C_1  and  C_2
REMARK    2  A    between atoms: C_5  and  N_8
REMARK    3  A    between atoms: C_9  and  N_11
REMARK    4  A    between atoms: N_13  and  C_14
REMARK    5  A    between atoms: C_14  and  C_15
REMARK    6  A    between atoms: C_15  and  C_16
REMARK    7  A    between atoms: C_23  and  O_26
REMARK    8  A    between atoms: O_26  and  C_27
REMARK    9  A    between atoms: C_31  and  C_36
REMARK   10  A    between atoms: C_33  and  C_35
REMARK                            x       y       z     vdW  Elec       q    Type
REMARK                         _______ _______ _______ _____ _____    ______ ____
ROOT
ATOM      1  N   UNL     1       0.525  -5.869   1.220  0.00  0.00    -0.129 NA
ATOM      2  C   UNL     1       0.592  -6.577   2.335  0.00  0.00    +0.198 C 
ATOM      3  N   UNL     1       0.454  -5.960   3.544  0.00  0.00    -0.357 N 
ATOM      4  N   UNL     1       0.798  -7.928   2.276  0.00  0.00    -0.297 N 
ATOM      5  C   UNL     1       1.046  -8.539   1.054  0.00  0.00    +0.231 A 
ATOM      6  N   UNL     1       1.187  -7.789  -0.027  0.00  0.00    -0.217 NA
ATOM      7  C   UNL     1       1.424  -8.339  -1.206  0.00  0.00    +0.044 A 
ATOM      8  C   UNL     1       1.526  -9.718  -1.300  0.00  0.00    +0.046 A 
ATOM      9  C   UNL     1       1.374 -10.474  -0.148  0.00  0.00    +0.044 A 
ATOM     10  N   UNL     1       1.143  -9.859   1.000  0.00  0.00    -0.217 NA
ATOM     11  C   UNL     1       1.475 -11.976  -0.202  0.00  0.00    +0.066 C 
ATOM     12  C   UNL     1       1.582  -7.477  -2.433  0.00  0.00    +0.066 C 
ATOM     13  H   UNL     1       0.237  -5.016   3.585  0.00  0.00    +0.162 HD
ATOM     14  H   UNL     1       0.771  -8.459   3.088  0.00  0.00    +0.171 HD
ENDROOT
BRANCH   1  16
ATOM     15  N   UNL     1       0.001  -3.883   0.124  0.00  0.00    -0.268 N 
ATOM     16  C   UNL     1       0.168  -4.577   1.267  0.00  0.00    +0.330 C 
ATOM     17  O   UNL     1      -0.006  -4.032   2.342  0.00  0.00    -0.250 OA
ATOM     18  H   UNL     1       0.063  -4.335  -0.732  0.00  0.00    +0.156 HD
BRANCH  15  23
ATOM     19  C   UNL     1      -1.066   1.685   0.319  0.00  0.00    +0.044 C 
ATOM     20  C   UNL     1      -0.783   0.206   0.267  0.00  0.00    -0.050 A 
ATOM     21  C   UNL     1      -1.340  -0.568  -0.733  0.00  0.00    +0.005 A 
ATOM     22  C   UNL     1      -1.082  -1.924  -0.784  0.00  0.00    +0.023 A 
ATOM     23  C   UNL     1      -0.262  -2.510   0.172  0.00  0.00    +0.035 A 
ATOM     24  C   UNL     1       0.297  -1.729   1.175  0.00  0.00    +0.023 A 
ATOM     25  C   UNL     1       0.039  -0.373   1.217  0.00  0.00    +0.005 A 
ENDBRANCH  15  23
ENDBRANCH   1  16
BRANCH   3  26
ATOM     26  C   UNL     1       0.633  -6.725   4.781  0.00  0.00    +0.120 C 
BRANCH  26  27
ATOM     27  C   UNL     1       0.312  -5.833   5.982  0.00  0.00    +0.058 C 
BRANCH  27  28
ATOM     28  C   UNL     1       0.612  -6.580   7.256  0.00  0.00    -0.021 A 
ATOM     29  C   UNL     1      -0.272  -7.240   8.021  0.00  0.00    +0.087 A 
ATOM     30  N   UNL     1       0.365  -7.796   9.097  0.00  0.00    -0.360 N 
ATOM     31  H   UNL     1      -0.065  -8.321   9.790  0.00  0.00    +0.165 HD
ATOM     32  C   UNL     1       1.711  -7.498   9.049  0.00  0.00    +0.047 A 
ATOM     33  C   UNL     1       1.924  -6.729   7.891  0.00  0.00    +0.006 A 
ATOM     34  C   UNL     1       3.209  -6.282   7.577  0.00  0.00    +0.056 A 
ATOM     35  C   UNL     1       4.265  -6.603   8.407  0.00  0.00    +0.121 A 
ATOM     36  C   UNL     1       4.051  -7.367   9.550  0.00  0.00    +0.047 A 
ATOM     37  C   UNL     1       2.787  -7.807   9.874  0.00  0.00    +0.030 A 
BRANCH  35  38
ATOM     38  O   UNL     1       5.518  -6.171   8.105  0.00  0.00    -0.495 OA
ATOM     39  C   UNL     1       6.565  -6.538   9.006  0.00  0.00    +0.277 C 
ENDBRANCH  35  38
ENDBRANCH  27  28
ENDBRANCH  26  27
ENDBRANCH   3  26
TORSDOF 6
