REMARK  Name = ZINC11986328
REMARK  10 active torsions:
REMARK  status: ('A' for Active; 'I' for Inactive)
REMARK    1  A    between atoms: C_1  and  C_2
REMARK    2  A    between atoms: C_11  and  S_16
REMARK    3  A    between atoms: N_12  and  C_13
REMARK    4  A    between atoms: S_16  and  C_17
REMARK    5  A    between atoms: C_17  and  C_19
REMARK    6  A    between atoms: C_17  and  C_20
REMARK    7  A    between atoms: N_25  and  C_26
REMARK    8  A    between atoms: C_26  and  C_27
REMARK    9  A    between atoms: C_26  and  C_28
REMARK   10  A    between atoms: C_26  and  C_29
REMARK                            x       y       z     vdW  Elec       q    Type
REMARK                         _______ _______ _______ _____ _____    ______ ____
ROOT
ATOM      1  C   UNL     1      -4.825   4.151  -0.728  0.00  0.00    +0.007 C 
ATOM      2  C   UNL     1      -3.717   3.224  -0.224  0.00  0.00    -0.011 C 
ATOM      3  C   UNL     1      -3.430   2.151  -1.278  0.00  0.00    +0.022 C 
ATOM      4  C   UNL     1      -2.280   1.264  -0.796  0.00  0.00    +0.108 C 
ATOM      5  N   UNL     1      -1.085   2.088  -0.573  0.00  0.00    -0.300 N 
ATOM      6  C   UNL     1      -1.322   3.095   0.469  0.00  0.00    +0.108 C 
ATOM      7  C   UNL     1      -2.443   4.037   0.025  0.00  0.00    +0.022 C 
ATOM      8  C   UNL     1       0.014   1.298  -0.261  0.00  0.00    +0.221 A 
ATOM      9  N   UNL     1       0.021  -0.009  -0.169  0.00  0.00    -0.112 NA
ATOM     10  N   UNL     1       1.322  -0.414   0.158  0.00  0.00    -0.121 NA
ATOM     11  C   UNL     1       2.067   0.660   0.255  0.00  0.00    +0.194 A 
ATOM     12  N   UNL     1       1.278   1.746  -0.001  0.00  0.00    -0.287 N 
ENDROOT
BRANCH  12  13
ATOM     13  C   UNL     1       1.711   3.146   0.003  0.00  0.00    +0.093 C 
ATOM     14  C   UNL     1       3.213   3.421  -0.097  0.00  0.00    +0.027 C 
ATOM     15  C   UNL     1       2.479   3.644   1.228  0.00  0.00    +0.027 C 
ENDBRANCH  12  13
BRANCH  11  16
ATOM     16  S   UNL     1       3.784   0.697   0.647  0.00  0.00    -0.073 S 
BRANCH  16  17
ATOM     17  C   UNL     1       4.222  -1.049   0.868  0.00  0.00    +0.137 C 
ATOM     18  C   UNL     1       3.477  -1.612   2.080  0.00  0.00    +0.029 C 
BRANCH  17  19
ATOM     19  C   UNL     1       5.707  -1.171   1.091  0.00  0.00    +0.233 C 
ATOM     20  O   UNL     1       6.331  -0.235   1.544  0.00  0.00    -0.274 OA
ATOM     21  N   UNL     1       6.343  -2.319   0.785  0.00  0.00    -0.239 N 
ATOM     22  C   UNL     1       7.671  -2.428   0.984  0.00  0.00    +0.306 C 
ATOM     23  O   UNL     1       8.296  -1.490   1.438  0.00  0.00    -0.252 OA
ATOM     24  N   UNL     1       8.307  -3.577   0.678  0.00  0.00    -0.294 N 
ATOM     25  H   UNL     1       5.844  -3.068   0.422  0.00  0.00    +0.159 HD
ATOM     26  H   UNL     1       7.808  -4.325   0.315  0.00  0.00    +0.151 HD
BRANCH  24  27
ATOM     27  C   UNL     1       9.751  -3.695   0.894  0.00  0.00    +0.028 C 
ATOM     28  C   UNL     1      10.064  -3.482   2.377  0.00  0.00    +0.031 C 
ATOM     29  C   UNL     1      10.218  -5.088   0.469  0.00  0.00    +0.031 C 
ATOM     30  C   UNL     1      10.479  -2.637   0.062  0.00  0.00    +0.031 C 
ENDBRANCH  24  27
ENDBRANCH  17  19
ENDBRANCH  16  17
ENDBRANCH  11  16
TORSDOF 5
