REMARK  Name = ZINC46565086
REMARK  5 active torsions:
REMARK  status: ('A' for Active; 'I' for Inactive)
REMARK    1  A    between atoms: C_1  and  C_2
REMARK    2  A    between atoms: C_8  and  O_10
REMARK    3  A    between atoms: O_10  and  C_11
REMARK    4  A    between atoms: C_11  and  C_12
REMARK    5  A    between atoms: C_12  and  N_13
REMARK                            x       y       z     vdW  Elec       q    Type
REMARK                         _______ _______ _______ _____ _____    ______ ____
ROOT
ATOM      1  N   UNL     1       4.045   2.037   1.788  0.00  0.00    -0.258 N 
ATOM      2  C   UNL     1       4.110   2.148   0.443  0.00  0.00    +0.264 A 
ATOM      3  O   UNL     1       4.190   1.160  -0.261  0.00  0.00    -0.267 OA
ATOM      4  C   UNL     1       4.082   3.498  -0.148  0.00  0.00    +0.063 A 
ATOM      5  C   UNL     1       4.145   3.695  -1.525  0.00  0.00    +0.015 A 
ATOM      6  C   UNL     1       4.115   4.979  -2.029  0.00  0.00    +0.001 A 
ATOM      7  C   UNL     1       4.023   6.066  -1.175  0.00  0.00    +0.002 A 
ATOM      8  C   UNL     1       3.960   5.884   0.193  0.00  0.00    +0.026 A 
ATOM      9  C   UNL     1       3.988   4.601   0.718  0.00  0.00    +0.056 A 
ATOM     10  N   UNL     1       3.926   4.374   2.085  0.00  0.00    -0.307 N 
ATOM     11  H   UNL     1       3.861   5.125   2.694  0.00  0.00    +0.170 HD
ATOM     12  C   UNL     1       3.950   3.122   2.573  0.00  0.00    +0.330 A 
ATOM     13  O   UNL     1       3.890   2.965   3.777  0.00  0.00    -0.246 OA
ENDROOT
BRANCH   1  14
ATOM     14  C   UNL     1       4.070   0.707   2.401  0.00  0.00    +0.158 C 
BRANCH  14  15
ATOM     15  C   UNL     1       2.640   0.178   2.533  0.00  0.00    +0.182 C 
BRANCH  15  16
ATOM     16  O   UNL     1       2.083  -0.016   1.231  0.00  0.00    -0.375 OA
BRANCH  16  23
ATOM     17  C   UNL     1      -0.019   1.526   0.010  0.00  0.00    +0.010 C 
ATOM     18  C   UNL     1       0.002  -0.004   0.002  0.00  0.00    +0.015 C 
ATOM     19  C   UNL     1       0.718  -0.497  -1.257  0.00  0.00    +0.006 C 
ATOM     20  C   UNL     1       0.739  -2.027  -1.265  0.00  0.00    +0.000 C 
ATOM     21  C   UNL     1       1.479  -2.534  -0.026  0.00  0.00    +0.003 C 
ATOM     22  C   UNL     1       0.763  -2.041   1.233  0.00  0.00    +0.032 C 
ATOM     23  C   UNL     1       0.742  -0.511   1.242  0.00  0.00    +0.121 C 
ENDBRANCH  16  23
ENDBRANCH  15  16
ENDBRANCH  14  15
ENDBRANCH   1  14
TORSDOF 4
