REMARK  Name = ZINC08588417
REMARK  4 active torsions:
REMARK  status: ('A' for Active; 'I' for Inactive)
REMARK    1  A    between atoms: C_17  and  C_20
REMARK    2  A    between atoms: N_22  and  C_23
REMARK    3  A    between atoms: C_23  and  C_24
REMARK    4  A    between atoms: C_24  and  C_25
REMARK                            x       y       z     vdW  Elec       q    Type
REMARK                         _______ _______ _______ _____ _____    ______ ____
ROOT
ATOM      1  C   UNL     1       6.853   1.844  -0.483  0.00  0.00    +0.024 A 
ATOM      2  C   UNL     1       5.726   2.106  -1.240  0.00  0.00    +0.049 A 
ATOM      3  C   UNL     1       4.636   1.250  -1.183  0.00  0.00    +0.142 A 
ATOM      4  C   UNL     1       4.687   0.127  -0.362  0.00  0.00    +0.081 A 
ATOM      5  C   UNL     1       5.817  -0.131   0.396  0.00  0.00    +0.047 A 
ATOM      6  C   UNL     1       6.900   0.729   0.335  0.00  0.00    +0.043 A 
ATOM      7 CL   UNL     1       8.318   0.408   1.283  0.00  0.00    -0.083 Cl
ATOM      8  N   UNL     1       3.587  -0.747  -0.308  0.00  0.00    -0.249 N 
ATOM      9  C   UNL     1       2.312  -0.279  -0.879  0.00  0.00    +0.156 C 
ATOM     10  C   UNL     1       2.631   0.441  -2.197  0.00  0.00    +0.248 C 
ATOM     11  O   UNL     1       3.531   1.519  -1.927  0.00  0.00    -0.489 OA
ATOM     12  C   UNL     1       3.695  -1.970   0.247  0.00  0.00    +0.309 C 
ATOM     13  O   UNL     1       4.791  -2.473   0.402  0.00  0.00    -0.252 OA
ATOM     14  N   UNL     1       2.588  -2.637   0.630  0.00  0.00    -0.285 N 
ATOM     15  C   UNL     1       1.279  -1.969   0.645  0.00  0.00    +0.110 C 
ATOM     16  C   UNL     1       0.655  -2.139   2.034  0.00  0.00    +0.032 C 
ATOM     17  C   UNL     1       0.605  -3.627   2.387  0.00  0.00    +0.078 C 
ATOM     18  C   UNL     1       2.026  -4.193   2.424  0.00  0.00    +0.032 C 
ATOM     19  C   UNL     1       2.666  -4.047   1.035  0.00  0.00    +0.110 C 
ENDROOT
BRANCH  17  20
ATOM     20  C   UNL     1      -0.041  -3.801   3.737  0.00  0.00    +0.216 C 
ATOM     21  O   UNL     1      -0.422  -2.831   4.357  0.00  0.00    -0.276 OA
ATOM     22  N   UNL     1      -0.193  -5.035   4.258  0.00  0.00    -0.315 N 
ATOM     23  H   UNL     1       0.113  -5.812   3.762  0.00  0.00    +0.149 HD
BRANCH  22  24
ATOM     24  C   UNL     1      -0.820  -5.205   5.571  0.00  0.00    +0.108 C 
BRANCH  24  25
ATOM     25  C   UNL     1      -0.870  -6.692   5.924  0.00  0.00    +0.049 C 
BRANCH  25  26
ATOM     26  C   UNL     1      -1.515  -6.867   7.275  0.00  0.00    -0.072 C 
ATOM     27  C   UNL     1      -2.783  -7.124   7.313  0.00  0.00    -0.028 C 
ATOM     28  C   UNL     1      -3.565  -7.312   8.580  0.00  0.00    +0.027 C 
ATOM     29  C   UNL     1      -2.616  -7.580   9.750  0.00  0.00    +0.004 C 
ATOM     30  C   UNL     1      -1.514  -6.514   9.735  0.00  0.00    +0.005 C 
ATOM     31  C   UNL     1      -0.647  -6.736   8.491  0.00  0.00    +0.030 C 
ENDBRANCH  25  26
ENDBRANCH  24  25
ENDBRANCH  22  24
ENDBRANCH  17  20
TORSDOF 4
