REMARK  Name = ZINC03438180
REMARK  11 active torsions:
REMARK  status: ('A' for Active; 'I' for Inactive)
REMARK    1  A    between atoms: C_1  and  C_2
REMARK    2  A    between atoms: C_2  and  O_3
REMARK    3  A    between atoms: O_3  and  C_4
REMARK    4  A    between atoms: C_6  and  C_16
REMARK    5  A    between atoms: C_9  and  O_10
REMARK    6  A    between atoms: O_10  and  C_11
REMARK    7  A    between atoms: C_11  and  C_12
REMARK    8  A    between atoms: N_17  and  N_18
REMARK    9  A    between atoms: N_18  and  C_19
REMARK   10  A    between atoms: C_19  and  N_21
REMARK   11  A    between atoms: N_21  and  C_22
REMARK                            x       y       z     vdW  Elec       q    Type
REMARK                         _______ _______ _______ _____ _____    ______ ____
ROOT
ATOM      1  C   UNL     1      -1.206  -1.820  -0.728  0.00  0.00    +0.164 A 
ATOM      2  C   UNL     1      -0.182  -2.669  -0.351  0.00  0.00    +0.059 A 
ATOM      3  C   UNL     1      -0.380  -4.052  -0.376  0.00  0.00    -0.001 A 
ATOM      4  C   UNL     1      -1.612  -4.570  -0.781  0.00  0.00    +0.028 A 
ATOM      5  C   UNL     1      -2.630  -3.717  -1.156  0.00  0.00    +0.064 A 
ATOM      6  C   UNL     1      -2.434  -2.344  -1.125  0.00  0.00    +0.177 A 
ATOM      7 BR   UNL     1      -4.297  -4.421  -1.705  0.00  0.00    -0.046 Br
ENDROOT
BRANCH   3   8
ATOM      8  C   UNL     1       0.710  -4.961   0.024  0.00  0.00    +0.138 C 
ATOM      9  N   UNL     1       0.524  -6.245   0.000  0.00  0.00    -0.188 NA
BRANCH   9  10
ATOM     10  N   UNL     1       1.559  -7.110   0.381  0.00  0.00    -0.218 N 
ATOM     11  H   UNL     1       2.414  -6.748   0.661  0.00  0.00    +0.176 HD
BRANCH  10  12
ATOM     12  C   UNL     1       1.367  -8.444   0.356  0.00  0.00    +0.154 C 
ATOM     13  S   UNL     1       2.631  -9.500   0.821  0.00  0.00    -0.017 S 
BRANCH  12  14
ATOM     14  N   UNL     1       0.178  -8.946  -0.034  0.00  0.00    -0.296 N 
ATOM     15  H   UNL     1      -0.558  -8.348  -0.238  0.00  0.00    +0.154 HD
BRANCH  14  16
ATOM     16  C   UNL     1       0.006 -10.330  -0.145  0.00  0.00    +0.034 A 
ATOM     17  C   UNL     1       0.463 -11.171   0.862  0.00  0.00    +0.025 A 
ATOM     18  C   UNL     1       0.292 -12.536   0.750  0.00  0.00    +0.023 A 
ATOM     19  C   UNL     1      -0.333 -13.068  -0.363  0.00  0.00    +0.059 A 
ATOM     20  C   UNL     1      -0.789 -12.233  -1.369  0.00  0.00    +0.061 A 
ATOM     21  C   UNL     1      -0.626 -10.865  -1.260  0.00  0.00    +0.044 A 
ATOM     22 CL   UNL     1      -1.572 -12.904  -2.766  0.00  0.00    -0.082 Cl
ATOM     23 CL   UNL     1      -0.545 -14.786  -0.500  0.00  0.00    -0.082 Cl
ENDBRANCH  14  16
ENDBRANCH  12  14
ENDBRANCH  10  12
ENDBRANCH   9  10
ENDBRANCH   3   8
BRANCH   1  24
ATOM     24  O   UNL     1      -1.017  -0.473  -0.704  0.00  0.00    -0.489 OA
BRANCH  24  26
ATOM     25  C   UNL     1       0.290   1.523  -0.323  0.00  0.00    +0.048 C 
ATOM     26  C   UNL     1       0.267  -0.006  -0.285  0.00  0.00    +0.226 C 
ENDBRANCH  24  26
ENDBRANCH   1  24
BRANCH   6  27
ATOM     27  O   UNL     1      -3.442  -1.507  -1.490  0.00  0.00    -0.478 OA
BRANCH  27  28
ATOM     28  C   UNL     1      -3.517  -1.144  -2.870  0.00  0.00    +0.324 C 
BRANCH  28  29
ATOM     29  C   UNL     1      -4.687  -0.219  -3.083  0.00  0.00    +0.248 C 
ATOM     30  O   UNL     1      -5.388   0.098  -2.146  0.00  0.00    -0.272 OA
ATOM     31  N   UNL     1      -4.955   0.256  -4.316  0.00  0.00    -0.327 N 
ATOM     32  H   UNL     1      -4.394   0.003  -5.066  0.00  0.00    +0.145 HD
ATOM     33  H   UNL     1      -5.708   0.852  -4.454  0.00  0.00    +0.145 HD
ENDBRANCH  28  29
ENDBRANCH  27  28
ENDBRANCH   6  27
TORSDOF 10
