REMARK  Name = ZINC15050895
REMARK  9 active torsions:
REMARK  status: ('A' for Active; 'I' for Inactive)
REMARK    1  A    between atoms: C_1  and  C_2
REMARK    2  A    between atoms: C_5  and  O_29
REMARK    3  A    between atoms: C_7  and  C_28
REMARK    4  A    between atoms: C_10  and  C_11
REMARK    5  A    between atoms: C_10  and  C_12
REMARK    6  A    between atoms: C_12  and  C_13
REMARK    7  A    between atoms: C_13  and  C_14
REMARK    8  A    between atoms: C_16  and  O_21
REMARK    9  A    between atoms: C_25  and  C_26
REMARK                            x       y       z     vdW  Elec       q    Type
REMARK                         _______ _______ _______ _____ _____    ______ ____
ROOT
ATOM      1  C   UNL     1      -1.077   4.898  -3.798  0.00  0.00    +0.008 C 
ATOM      2  C   UNL     1      -1.101   4.547  -2.307  0.00  0.00    -0.005 C 
ATOM      3  C   UNL     1      -2.479   4.851  -1.736  0.00  0.00    +0.036 C 
ATOM      4  C   UNL     1      -2.522   4.522  -0.240  0.00  0.00    +0.126 C 
ATOM      5  C   UNL     1      -2.214   3.049  -0.014  0.00  0.00    +0.029 C 
ATOM      6  C   UNL     1      -0.918   2.635  -0.695  0.00  0.00    +0.008 C 
ATOM      7  C   UNL     1      -0.749   3.067  -2.133  0.00  0.00    -0.025 C 
ATOM      8  C   UNL     1       0.741   2.916  -2.520  0.00  0.00    +0.012 C 
ATOM      9  C   UNL     1      -0.686   1.139  -0.486  0.00  0.00    +0.009 C 
ATOM     10  C   UNL     1      -0.393   0.906   1.000  0.00  0.00    +0.028 C 
ATOM     11  C   UNL     1      -1.241   1.777   1.873  0.00  0.00    -0.016 C 
ATOM     12  C   UNL     1      -2.053   2.730   1.453  0.00  0.00    +0.045 C 
ATOM     13  C   UNL     1      -3.407   2.226  -0.508  0.00  0.00    +0.019 C 
ENDROOT
BRANCH  12  14
ATOM     14  C   UNL     1      -2.811   3.476   2.460  0.00  0.00    +0.383 C 
ATOM     15  O   UNL     1      -3.987   3.229   2.642  0.00  0.00    -0.241 OA
ATOM     16  O   UNL     1      -2.204   4.436   3.186  0.00  0.00    -0.241 OA
ENDBRANCH  12  14
BRANCH   4  17
ATOM     17  O   UNL     1      -3.843   4.828   0.228  0.00  0.00    -0.391 OA
ATOM     18  H   UNL     1      -4.097   5.754   0.112  0.00  0.00    +0.210 HD
ENDBRANCH   4  17
BRANCH   7  19
ATOM     19  C   UNL     1      -1.564   2.214  -3.104  0.00  0.00    +0.012 C 
BRANCH  19  20
ATOM     20  C   UNL     1      -0.976   0.802  -3.160  0.00  0.00    +0.043 C 
BRANCH  20  21
ATOM     21  C   UNL     1      -1.676   0.009  -4.233  0.00  0.00    +0.039 C 
ATOM     22  C   UNL     1      -1.246  -0.136  -5.484  0.00  0.00    +0.057 C 
ATOM     23  C   UNL     1      -2.256  -1.004  -6.199  0.00  0.00    +0.334 C 
ATOM     24  O   UNL     1      -3.281  -1.320  -5.215  0.00  0.00    -0.428 OA
ATOM     25  C   UNL     1      -2.932  -0.726  -4.059  0.00  0.00    +0.337 C 
ATOM     26  O   UNL     1      -3.566  -0.787  -3.024  0.00  0.00    -0.245 OA
BRANCH  23  27
ATOM     27  O   UNL     1      -1.632  -2.203  -6.664  0.00  0.00    -0.354 OA
ATOM     28  H   UNL     1      -2.231  -2.802  -7.131  0.00  0.00    +0.214 HD
ENDBRANCH  23  27
ENDBRANCH  20  21
ENDBRANCH  19  20
ENDBRANCH   7  19
TORSDOF 6
