REMARK  Name = ZINC49834525
REMARK  3 active torsions:
REMARK  status: ('A' for Active; 'I' for Inactive)
REMARK    1  A    between atoms: C_1  and  C_2
REMARK    2  A    between atoms: C_5  and  C_18
REMARK    3  A    between atoms: C_10  and  C_12
REMARK                            x       y       z     vdW  Elec       q    Type
REMARK                         _______ _______ _______ _____ _____    ______ ____
ROOT
ATOM      1  C   UNL     1       0.210   1.491  -0.327  0.00  0.00    +0.009 C 
ATOM      2  C   UNL     1       0.273  -0.037  -0.335  0.00  0.00    +0.004 C 
ATOM      3  C   UNL     1      -1.116  -0.604  -0.635  0.00  0.00    +0.009 C 
ATOM      4  C   UNL     1      -1.048  -2.132  -0.676  0.00  0.00    +0.004 C 
ATOM      5  C   UNL     1      -0.598  -2.656   0.691  0.00  0.00    +0.111 C 
ATOM      6  N   UNL     1       0.669  -2.005   1.053  0.00  0.00    -0.296 N 
ATOM      7  C   UNL     1       0.739  -0.537   1.036  0.00  0.00    +0.111 C 
ATOM      8  C   UNL     1       1.746  -2.740   1.395  0.00  0.00    +0.272 C 
ATOM      9  O   UNL     1       2.818  -2.198   1.576  0.00  0.00    -0.268 OA
ATOM     10  C   UNL     1      -2.430  -2.697  -1.010  0.00  0.00    +0.009 C 
ENDROOT
BRANCH   8  11
ATOM     11  C   UNL     1       1.622  -4.207   1.550  0.00  0.00    +0.210 A 
ATOM     12  C   UNL     1       2.727  -5.143   1.786  0.00  0.00    +0.192 A 
ATOM     13  N   UNL     1       2.233  -6.349   1.868  0.00  0.00    -0.033 NA
ATOM     14  O   UNL     1       0.830  -6.258   1.696  0.00  0.00    -0.240 OA
ATOM     15  N   UNL     1       0.508  -4.891   1.507  0.00  0.00    -0.042 NA
ATOM     16  N   UNL     1       4.068  -4.805   1.901  0.00  0.00    -0.339 N 
ATOM     17  H   UNL     1       4.343  -3.878   1.825  0.00  0.00    +0.144 HD
ATOM     18  H   UNL     1       4.731  -5.496   2.057  0.00  0.00    +0.144 HD
ENDBRANCH   8  11
TORSDOF 1
