REMARK  Name = ZINC63514412
REMARK  7 active torsions:
REMARK  status: ('A' for Active; 'I' for Inactive)
REMARK    1  A    between atoms: C_1  and  C_2
REMARK    2  A    between atoms: C_4  and  C_32
REMARK    3  A    between atoms: C_6  and  N_8
REMARK    4  A    between atoms: N_8  and  C_9
REMARK    5  A    between atoms: C_9  and  C_10
REMARK    6  A    between atoms: N_12  and  C_13
REMARK    7  A    between atoms: C_16  and  C_19
REMARK                            x       y       z     vdW  Elec       q    Type
REMARK                         _______ _______ _______ _____ _____    ______ ____
ROOT
ATOM      1  N   UNL     1       0.052  -2.797   2.392  0.00  0.00    -0.273 N 
ATOM      2  C   UNL     1       0.152  -2.120   3.587  0.00  0.00    +0.136 C 
ATOM      3  N   UNL     1       0.278  -2.641   4.805  0.00  0.00    -0.362 N 
ATOM      4  C   UNL     1       0.230  -1.731   5.903  0.00  0.00    +0.117 C 
ATOM      5  C   UNL     1       0.673  -2.053   7.320  0.00  0.00    +0.191 C 
ATOM      6  S   UNL     1       0.655  -0.351   8.053  0.00  0.00    -0.028 S 
ATOM      7  O   UNL     1       1.950  -0.045   8.550  0.00  0.00    -0.174 OA
ATOM      8  O   UNL     1      -0.472  -0.227   8.910  0.00  0.00    -0.174 OA
ATOM      9  C   UNL     1       0.352   0.631   6.507  0.00  0.00    +0.182 C 
ATOM     10  C   UNL     1       0.935  -0.381   5.494  0.00  0.00    +0.099 C 
ATOM     11  S   UNL     1       0.151  -0.338   3.839  0.00  0.00    -0.085 S 
ATOM     12  H   UNL     1       0.395  -3.595   4.940  0.00  0.00    +0.162 HD
ENDROOT
BRANCH   1  18
ATOM     13  C   UNL     1       2.496  -0.032  -0.856  0.00  0.00    +0.044 C 
ATOM     14  C   UNL     1       1.242  -0.741  -0.414  0.00  0.00    -0.048 A 
ATOM     15  C   UNL     1       0.107  -0.695  -1.204  0.00  0.00    +0.006 A 
ATOM     16  C   UNL     1      -1.045  -1.345  -0.802  0.00  0.00    -0.048 A 
ATOM     17  C   UNL     1      -1.067  -2.043   0.389  0.00  0.00    +0.027 A 
ATOM     18  C   UNL     1       0.071  -2.091   1.185  0.00  0.00    +0.037 A 
ATOM     19  C   UNL     1       1.228  -1.442   0.776  0.00  0.00    +0.027 A 
ATOM     20  C   UNL     1      -2.279  -1.291  -1.665  0.00  0.00    +0.044 C 
ENDBRANCH   1  18
BRANCH   1  21
ATOM     21  C   UNL     1      -0.074  -4.257   2.386  0.00  0.00    +0.208 C 
BRANCH  21  22
ATOM     22  C   UNL     1       1.297  -4.879   2.334  0.00  0.00    +0.233 C 
ATOM     23  O   UNL     1       2.283  -4.173   2.305  0.00  0.00    -0.274 OA
ATOM     24  N   UNL     1       1.428  -6.221   2.320  0.00  0.00    -0.288 N 
ATOM     25  H   UNL     1       0.640  -6.785   2.343  0.00  0.00    +0.151 HD
BRANCH  24  26
ATOM     26  C   UNL     1       2.761  -6.826   2.269  0.00  0.00    +0.239 C 
ATOM     27  C   UNL     1       2.851  -8.007   3.219  0.00  0.00    +0.045 C 
ATOM     28  C   UNL     1       3.108  -9.044   2.419  0.00  0.00    +0.060 C 
ATOM     29  N   UNL     1       3.183  -8.648   1.129  0.00  0.00    -0.157 NA
ATOM     30  N   UNL     1       3.007  -7.436   0.952  0.00  0.00    -0.160 NA
ATOM     31  C   UNL     1       3.288 -10.464   2.890  0.00  0.00    +0.067 C 
ENDBRANCH  24  26
ENDBRANCH  21  22
ENDBRANCH   1  21
TORSDOF 4
