REMARK  Name = ZINC44385612
REMARK  6 active torsions:
REMARK  status: ('A' for Active; 'I' for Inactive)
REMARK    1  A    between atoms: C_1  and  C_2
REMARK    2  A    between atoms: C_7  and  C_8
REMARK    3  A    between atoms: C_8  and  C_10
REMARK    4  A    between atoms: C_8  and  N_11
REMARK    5  A    between atoms: C_12  and  C_14
REMARK    6  A    between atoms: C_14  and  C_20
REMARK                            x       y       z     vdW  Elec       q    Type
REMARK                         _______ _______ _______ _____ _____    ______ ____
ROOT
ATOM      1  N   UNL     1      -0.537  -0.808   3.554  0.00  0.00    -0.307 N 
ATOM      2  C   UNL     1      -1.190  -0.255   4.595  0.00  0.00    +0.234 C 
ATOM      3  O   UNL     1      -1.312   0.950   4.663  0.00  0.00    -0.274 OA
ATOM      4  H   UNL     1      -0.440  -1.772   3.500  0.00  0.00    +0.149 HD
ENDROOT
BRANCH   2   5
ATOM      5  C   UNL     1      -1.768  -1.133   5.675  0.00  0.00    +0.133 C 
ATOM      6  C   UNL     1      -2.794  -2.087   5.061  0.00  0.00    +0.031 C 
ATOM      7  C   UNL     1      -3.381  -2.978   6.157  0.00  0.00    +0.002 C 
ATOM      8  C   UNL     1      -4.064  -2.106   7.212  0.00  0.00    +0.000 C 
ATOM      9  C   UNL     1      -3.038  -1.151   7.826  0.00  0.00    +0.002 C 
ATOM     10  C   UNL     1      -2.451  -0.260   6.730  0.00  0.00    +0.031 C 
BRANCH   5  11
ATOM     11  C   UNL     1      -0.689  -1.911   6.305  0.00  0.00    +0.079 C 
ATOM     12  N   UNL     1       0.143  -2.511   6.791  0.00  0.00    -0.195 NA
ENDBRANCH   5  11
ENDBRANCH   2   5
BRANCH   1  13
ATOM     13  C   UNL     1       0.025   0.045   2.504  0.00  0.00    +0.100 C 
ATOM     14  C   UNL     1       1.455   0.440   2.880  0.00  0.00    +0.033 C 
BRANCH  13  21
ATOM     15  C   UNL     1      -0.099   1.488   0.004  0.00  0.00    +0.044 C 
ATOM     16  C   UNL     1      -0.021  -0.017   0.003  0.00  0.00    -0.046 A 
ATOM     17  C   UNL     1      -0.003  -0.707  -1.195  0.00  0.00    +0.004 A 
ATOM     18  C   UNL     1       0.069  -2.088  -1.197  0.00  0.00    +0.000 A 
ATOM     19  C   UNL     1       0.123  -2.778  -0.000  0.00  0.00    +0.000 A 
ATOM     20  C   UNL     1       0.106  -2.088   1.197  0.00  0.00    +0.006 A 
ATOM     21  C   UNL     1       0.039  -0.708   1.199  0.00  0.00    -0.025 A 
ENDBRANCH  13  21
ENDBRANCH   1  13
TORSDOF 4
