REMARK  Name = ZINC01110938
REMARK  9 active torsions:
REMARK  status: ('A' for Active; 'I' for Inactive)
REMARK    1  A    between atoms: C_1  and  C_2
REMARK    2  A    between atoms: C_2  and  C_3
REMARK    3  A    between atoms: C_2  and  C_4
REMARK    4  A    between atoms: C_2  and  C_5
REMARK    5  A    between atoms: C_12  and  N_35
REMARK    6  A    between atoms: C_13  and  C_33
REMARK    7  A    between atoms: C_14  and  C_16
REMARK    8  A    between atoms: N_18  and  C_27
REMARK    9  A    between atoms: C_20  and  C_21
REMARK                            x       y       z     vdW  Elec       q    Type
REMARK                         _______ _______ _______ _____ _____    ______ ____
ROOT
ATOM      1  C   UNL     1       3.986  -0.236   1.005  0.00  0.00    +0.076 A 
ATOM      2  C   UNL     1       3.034  -0.699   0.107  0.00  0.00    +0.050 A 
ATOM      3  C   UNL     1       3.530  -0.538  -1.157  0.00  0.00    +0.222 A 
ATOM      4  N   UNL     1       4.753   0.006  -1.047  0.00  0.00    -0.246 N 
ATOM      5  H   UNL     1       5.345   0.233  -1.780  0.00  0.00    +0.192 HD
ATOM      6  N   UNL     1       5.018   0.194   0.319  0.00  0.00    -0.175 NA
ATOM      7  O   UNL     1       2.836  -0.892  -2.267  0.00  0.00    -0.423 OA
ATOM      8  C   UNL     1       1.522  -1.160  -2.123  0.00  0.00    +0.200 C 
ATOM      9  C   UNL     1       0.920  -1.351  -0.928  0.00  0.00    +0.098 C 
ATOM     10  C   UNL     1       1.673  -1.288   0.377  0.00  0.00    +0.105 C 
ENDROOT
BRANCH  10  11
ATOM     11  C   UNL     1       1.824  -2.675   0.946  0.00  0.00    +0.011 A 
ATOM     12  C   UNL     1       1.083  -3.211   1.940  0.00  0.00    +0.119 A 
ATOM     13  N   UNL     1       1.530  -4.476   2.158  0.00  0.00    -0.239 N 
ATOM     14  N   UNL     1       2.583  -4.722   1.266  0.00  0.00    -0.166 NA
ATOM     15  C   UNL     1       2.759  -3.644   0.531  0.00  0.00    +0.097 A 
BRANCH  15  16
ATOM     16  C   UNL     1       3.768  -3.478  -0.543  0.00  0.00    +0.002 A 
ATOM     17  C   UNL     1       3.491  -3.913  -1.837  0.00  0.00    +0.010 A 
ATOM     18  C   UNL     1       4.433  -3.755  -2.833  0.00  0.00    +0.001 A 
ATOM     19  C   UNL     1       5.652  -3.166  -2.548  0.00  0.00    +0.000 A 
ATOM     20  C   UNL     1       5.933  -2.732  -1.265  0.00  0.00    +0.001 A 
ATOM     21  C   UNL     1       4.995  -2.880  -0.263  0.00  0.00    +0.010 A 
ENDBRANCH  15  16
BRANCH  13  22
ATOM     22  C   UNL     1       1.028  -5.375   3.108  0.00  0.00    +0.065 A 
ATOM     23  C   UNL     1      -0.027  -5.001   3.929  0.00  0.00    +0.028 A 
ATOM     24  C   UNL     1      -0.520  -5.889   4.865  0.00  0.00    +0.002 A 
ATOM     25  C   UNL     1       0.037  -7.150   4.984  0.00  0.00    +0.000 A 
ATOM     26  C   UNL     1       1.088  -7.524   4.168  0.00  0.00    +0.002 A 
ATOM     27  C   UNL     1       1.581  -6.643   3.226  0.00  0.00    +0.028 A 
ENDBRANCH  13  22
ENDBRANCH  10  11
BRANCH   1  29
ATOM     28  C   UNL     1       5.030   0.541   3.115  0.00  0.00    +0.017 C 
ATOM     29  C   UNL     1       3.854  -0.225   2.506  0.00  0.00    +0.007 C 
ATOM     30  C   UNL     1       3.856  -1.662   3.030  0.00  0.00    +0.017 C 
ATOM     31  C   UNL     1       2.543   0.459   2.898  0.00  0.00    +0.017 C 
ENDBRANCH   1  29
BRANCH   8  32
ATOM     32  N   UNL     1       0.752  -1.243  -3.256  0.00  0.00    -0.328 N 
ATOM     33  H   UNL     1       1.155  -1.110  -4.128  0.00  0.00    +0.145 HD
ATOM     34  H   UNL     1      -0.197  -1.435  -3.184  0.00  0.00    +0.145 HD
ENDBRANCH   8  32
BRANCH   9  35
ATOM     35  C   UNL     1      -0.485  -1.625  -0.900  0.00  0.00    +0.101 C 
ATOM     36  N   UNL     1      -1.600  -1.843  -0.879  0.00  0.00    -0.191 NA
ENDBRANCH   9  35
TORSDOF 6
