REMARK  Name = ZINC24956576
REMARK  15 active torsions:
REMARK  status: ('A' for Active; 'I' for Inactive)
REMARK    1  A    between atoms: C_1  and  C_2
REMARK    2  A    between atoms: C_2  and  C_3
REMARK    3  A    between atoms: C_3  and  C_4
REMARK    4  A    between atoms: C_4  and  N_5
REMARK    5  A    between atoms: C_6  and  N_37
REMARK    6  A    between atoms: C_7  and  N_14
REMARK    7  A    between atoms: N_14  and  C_15
REMARK    8  A    between atoms: N_14  and  C_17
REMARK    9  A    between atoms: C_15  and  C_16
REMARK   10  A    between atoms: C_17  and  C_18
REMARK   11  A    between atoms: N_20  and  C_21
REMARK   12  A    between atoms: C_22  and  C_35
REMARK   13  A    between atoms: C_23  and  C_34
REMARK   14  A    between atoms: C_24  and  C_33
REMARK   15  A    between atoms: N_25  and  C_26
REMARK                            x       y       z     vdW  Elec       q    Type
REMARK                         _______ _______ _______ _____ _____    ______ ____
ROOT
ATOM      1  C   UNL     1      -2.654   2.848  -0.471  0.00  0.00    +0.201 C 
ENDROOT
BRANCH   1   2
ATOM      2  C   UNL     1      -2.907   3.299   0.944  0.00  0.00    +0.236 C 
ATOM      3  O   UNL     1      -3.751   2.745   1.616  0.00  0.00    -0.274 OA
ATOM      4  N   UNL     1      -2.196   4.320   1.463  0.00  0.00    -0.269 N 
ATOM      5  H   UNL     1      -1.506   4.890   0.824  0.00  0.00    +0.156 HD
BRANCH   4   6
ATOM      6  C   UNL     1      -2.334   4.650   2.803  0.00  0.00    +0.128 A 
ATOM      7  C   UNL     1      -2.490   5.930   3.317  0.00  0.00    +0.095 A 
ATOM      8  C   UNL     1      -2.588   5.773   4.774  0.00  0.00    -0.010 A 
ATOM      9  C   UNL     1      -2.488   4.458   5.028  0.00  0.00    +0.027 A 
ATOM     10  N   UNL     1      -2.335   3.778   3.847  0.00  0.00    -0.300 N 
ATOM     11  C   UNL     1      -2.535   3.829   6.397  0.00  0.00    +0.064 C 
ATOM     12  C   UNL     1      -2.766   6.874   5.787  0.00  0.00    +0.047 C 
BRANCH  10  13
ATOM     13  C   UNL     1      -2.200   2.387   3.732  0.00  0.00    +0.048 A 
ATOM     14  C   UNL     1      -3.169   1.548   4.266  0.00  0.00    +0.029 A 
ATOM     15  C   UNL     1      -3.037   0.179   4.148  0.00  0.00    +0.040 A 
ATOM     16  C   UNL     1      -1.932  -0.358   3.507  0.00  0.00    +0.124 A 
ATOM     17  C   UNL     1      -0.962   0.477   2.979  0.00  0.00    +0.040 A 
ATOM     18  C   UNL     1      -1.094   1.847   3.091  0.00  0.00    +0.029 A 
ATOM     19  F   UNL     1      -1.801  -1.698   3.398  0.00  0.00    -0.205 F 
ENDBRANCH  10  13
BRANCH   7  20
ATOM     20  C   UNL     1      -2.545   7.155   2.577  0.00  0.00    +0.103 C 
ATOM     21  N   UNL     1      -2.587   8.127   1.990  0.00  0.00    -0.191 NA
ENDBRANCH   7  20
ENDBRANCH   4   6
ENDBRANCH   1   2
BRANCH   1  22
ATOM     22  N   UNL     1      -3.651   1.837  -0.849  0.00  0.00    -0.315 N 
BRANCH  22  25
ATOM     23  N   UNL     1      -7.193   2.618  -0.281  0.00  0.00    -0.280 N 
ATOM     24  C   UNL     1      -5.952   2.040  -0.138  0.00  0.00    +0.127 A 
ATOM     25  C   UNL     1      -4.936   2.415  -0.975  0.00  0.00    +0.134 A 
ATOM     26  C   UNL     1      -5.188   3.388  -1.959  0.00  0.00    +0.277 A 
ATOM     27  O   UNL     1      -4.297   3.742  -2.713  0.00  0.00    -0.266 OA
ATOM     28  N   UNL     1      -6.420   3.922  -2.067  0.00  0.00    -0.273 N 
ATOM     29  H   UNL     1      -6.627   4.676  -2.841  0.00  0.00    +0.173 HD
ATOM     30  C   UNL     1      -7.407   3.542  -1.235  0.00  0.00    +0.331 A 
ATOM     31  O   UNL     1      -8.510   4.042  -1.347  0.00  0.00    -0.246 OA
BRANCH  24  32
ATOM     32  N   UNL     1      -5.734   1.095   0.838  0.00  0.00    -0.343 N 
ATOM     33  H   UNL     1      -4.740   0.637   0.949  0.00  0.00    +0.144 HD
ATOM     34  H   UNL     1      -6.554   0.797   1.508  0.00  0.00    +0.144 HD
ENDBRANCH  24  32
BRANCH  23  35
ATOM     35  C   UNL     1      -8.287   2.224   0.610  0.00  0.00    +0.128 C 
BRANCH  35  36
ATOM     36  C   UNL     1      -8.290   3.128   1.844  0.00  0.00    +0.021 C 
BRANCH  36  38
ATOM     37  C   UNL     1      -9.437   3.620   4.008  0.00  0.00    +0.004 C 
ATOM     38  C   UNL     1      -9.433   2.716   2.774  0.00  0.00    -0.002 C 
ENDBRANCH  36  38
ENDBRANCH  35  36
ENDBRANCH  23  35
ENDBRANCH  22  25
BRANCH  22  39
ATOM     39  C   UNL     1      -3.260   1.148  -2.085  0.00  0.00    +0.102 C 
ATOM     40  C   UNL     1      -2.168   0.123  -1.774  0.00  0.00    +0.024 C 
ENDBRANCH  22  39
ENDBRANCH   1  22
TORSDOF 11
