REMARK  Name = ZINC66489853
REMARK  6 active torsions:
REMARK  status: ('A' for Active; 'I' for Inactive)
REMARK    1  A    between atoms: C_1  and  O_2
REMARK    2  A    between atoms: O_2  and  C_3
REMARK    3  A    between atoms: N_5  and  C_6
REMARK    4  A    between atoms: C_8  and  N_13
REMARK    5  A    between atoms: C_14  and  C_16
REMARK    6  A    between atoms: C_17  and  C_18
REMARK                            x       y       z     vdW  Elec       q    Type
REMARK                         _______ _______ _______ _____ _____    ______ ____
ROOT
ATOM      1  C   UNL     1       0.913  -2.753   2.431  0.00  0.00    +0.073 A 
ATOM      2  C   UNL     1       1.508  -2.044   3.463  0.00  0.00    +0.049 A 
ATOM      3  C   UNL     1       2.678  -2.516   4.042  0.00  0.00    +0.036 A 
ATOM      4  C   UNL     1       3.250  -3.697   3.587  0.00  0.00    +0.026 A 
ATOM      5  C   UNL     1       2.656  -4.403   2.558  0.00  0.00    +0.042 A 
ATOM      6  C   UNL     1       1.487  -3.938   1.982  0.00  0.00    +0.145 A 
ATOM      7  F   UNL     1       0.905  -4.634   0.981  0.00  0.00    -0.204 F 
ENDROOT
BRANCH   1  10
ATOM      8  C   UNL     1      -0.469  -0.954   1.711  0.00  0.00    +0.404 C 
ATOM      9  O   UNL     1       0.333  -0.168   2.174  0.00  0.00    -0.226 OA
ATOM     10  N   UNL     1      -0.268  -2.280   1.844  0.00  0.00    -0.248 N 
ATOM     11  H   UNL     1      -0.940  -2.907   1.534  0.00  0.00    +0.158 HD
BRANCH   8  13
ATOM     12  C   UNL     1      -1.710   0.916   0.960  0.00  0.00    +0.282 C 
ATOM     13  O   UNL     1      -1.560  -0.501   1.063  0.00  0.00    -0.453 OA
ENDBRANCH   8  13
ENDBRANCH   1  10
BRANCH   3  14
ATOM     14  N   UNL     1       3.281  -1.802   5.083  0.00  0.00    -0.282 N 
ATOM     15  C   UNL     1       4.056  -2.443   5.980  0.00  0.00    +0.241 C 
ATOM     16  O   UNL     1       4.145  -3.657   5.949  0.00  0.00    -0.270 OA
ATOM     17  H   UNL     1       3.142  -0.845   5.159  0.00  0.00    +0.155 HD
BRANCH  15  18
ATOM     18  C   UNL     1       4.789  -1.681   6.992  0.00  0.00    +0.068 C 
ATOM     19  C   UNL     1       5.564  -2.324   7.890  0.00  0.00    +0.016 C 
BRANCH  19  20
ATOM     20  C   UNL     1       6.301  -1.558   8.906  0.00  0.00    +0.010 A 
ATOM     21  C   UNL     1       6.196  -0.164   8.949  0.00  0.00    +0.011 A 
ATOM     22  C   UNL     1       6.890   0.547   9.905  0.00  0.00    +0.001 A 
ATOM     23  C   UNL     1       7.689  -0.114  10.822  0.00  0.00    +0.003 A 
ATOM     24  C   UNL     1       7.800  -1.492  10.789  0.00  0.00    +0.039 A 
ATOM     25  C   UNL     1       7.107  -2.221   9.841  0.00  0.00    +0.131 A 
ATOM     26  F   UNL     1       7.211  -3.568   9.812  0.00  0.00    -0.205 F 
ENDBRANCH  19  20
ENDBRANCH  15  18
ENDBRANCH   3  14
TORSDOF 5
