REMARK  Name = ZINC31931992
REMARK  8 active torsions:
REMARK  status: ('A' for Active; 'I' for Inactive)
REMARK    1  A    between atoms: C_1  and  C_2
REMARK    2  A    between atoms: C_2  and  N_3
REMARK    3  A    between atoms: C_8  and  C_14
REMARK    4  A    between atoms: N_16  and  C_17
REMARK    5  A    between atoms: C_17  and  C_19
REMARK    6  A    between atoms: C_17  and  C_20
REMARK    7  A    between atoms: C_23  and  O_27
REMARK    8  A    between atoms: O_27  and  C_28
REMARK                            x       y       z     vdW  Elec       q    Type
REMARK                         _______ _______ _______ _____ _____    ______ ____
ROOT
ATOM      1  C   UNL     1      -1.773   0.883  -1.664  0.00  0.00    +0.245 C 
ATOM      2  O   UNL     1      -2.134  -0.141  -1.117  0.00  0.00    -0.270 OA
ATOM      3  N   UNL     1      -0.721   1.571  -1.179  0.00  0.00    -0.305 N 
ATOM      4  H   UNL     1      -0.395   2.497  -1.674  0.00  0.00    +0.150 HD
ENDROOT
BRANCH   1  10
ATOM      5  N   UNL     1      -5.544   2.056  -6.708  0.00  0.00    -0.287 N 
ATOM      6  C   UNL     1      -4.497   2.783  -6.261  0.00  0.00    +0.262 A 
ATOM      7  C   UNL     1      -3.806   2.327  -5.118  0.00  0.00    +0.065 A 
ATOM      8  C   UNL     1      -2.709   3.027  -4.595  0.00  0.00    +0.016 A 
ATOM      9  C   UNL     1      -2.067   2.556  -3.491  0.00  0.00    +0.014 A 
ATOM     10  C   UNL     1      -2.490   1.373  -2.864  0.00  0.00    +0.039 A 
ATOM     11  C   UNL     1      -3.567   0.658  -3.361  0.00  0.00    +0.041 A 
ATOM     12  C   UNL     1      -4.244   1.130  -4.494  0.00  0.00    +0.080 A 
ATOM     13  N   UNL     1      -5.294   0.472  -5.007  0.00  0.00    -0.222 NA
ATOM     14  C   UNL     1      -5.920   0.929  -6.081  0.00  0.00    +0.183 A 
ATOM     15  S   UNL     1      -7.255   0.050  -6.694  0.00  0.00    -0.011 S 
ATOM     16  O   UNL     1      -4.123   3.911  -6.889  0.00  0.00    -0.267 OA
BRANCH   5  18
ATOM     17  C   UNL     1      -7.427   3.423  -7.463  0.00  0.00    +0.027 C 
ATOM     18  C   UNL     1      -6.281   2.504  -7.892  0.00  0.00    +0.124 C 
ENDBRANCH   5  18
ENDBRANCH   1  10
BRANCH   3  19
ATOM     19  C   UNL     1      -0.013   1.086   0.008  0.00  0.00    +0.100 C 
ATOM     20  C   UNL     1      -0.729   1.579   1.267  0.00  0.00    +0.033 C 
BRANCH  19  21
ATOM     21  C   UNL     1       1.401   1.607  -0.003  0.00  0.00    -0.026 A 
ATOM     22  C   UNL     1       2.442   0.788   0.393  0.00  0.00    +0.009 A 
ATOM     23  C   UNL     1       3.739   1.263   0.384  0.00  0.00    +0.047 A 
ATOM     24  C   UNL     1       3.997   2.564  -0.023  0.00  0.00    +0.134 A 
ATOM     25  C   UNL     1       2.951   3.385  -0.419  0.00  0.00    +0.060 A 
ATOM     26  C   UNL     1       1.656   2.903  -0.413  0.00  0.00    +0.024 A 
ATOM     27 BR   UNL     1       3.298   5.159  -0.974  0.00  0.00    -0.047 Br
BRANCH  24  28
ATOM     28  O   UNL     1       5.273   3.034  -0.033  0.00  0.00    -0.494 OA
ATOM     29  C   UNL     1       6.299   2.133   0.387  0.00  0.00    +0.277 C 
ENDBRANCH  24  28
ENDBRANCH  19  21
ENDBRANCH   3  19
TORSDOF 5
