REMARK  Name = ZINC44926884
REMARK  5 active torsions:
REMARK  status: ('A' for Active; 'I' for Inactive)
REMARK    1  A    between atoms: C_1  and  C_2
REMARK    2  A    between atoms: C_2  and  C_4
REMARK    3  A    between atoms: C_2  and  N_9
REMARK    4  A    between atoms: N_9  and  C_10
REMARK    5  A    between atoms: C_19  and  O_21
REMARK                            x       y       z     vdW  Elec       q    Type
REMARK                         _______ _______ _______ _____ _____    ______ ____
ROOT
ATOM      1  C   UNL     1      -0.180  -0.207  -2.487  0.00  0.00    -0.040 C 
ATOM      2  C   UNL     1       0.316  -1.012  -3.686  0.00  0.00    -0.011 C 
ATOM      3  C   UNL     1      -0.439  -0.538  -4.933  0.00  0.00    +0.003 C 
ATOM      4  C   UNL     1       0.037   0.872  -5.276  0.00  0.00    +0.035 C 
ATOM      5  C   UNL     1      -0.036   1.765  -4.065  0.00  0.00    -0.042 A 
ATOM      6  C   UNL     1      -0.131   1.269  -2.784  0.00  0.00    -0.058 A 
ATOM      7  C   UNL     1      -0.186   2.146  -1.708  0.00  0.00    +0.006 A 
ATOM      8  C   UNL     1      -0.150   3.509  -1.911  0.00  0.00    +0.045 A 
ATOM      9  C   UNL     1      -0.058   4.011  -3.201  0.00  0.00    +0.117 A 
ATOM     10  C   UNL     1      -0.002   3.137  -4.272  0.00  0.00    +0.049 A 
ENDROOT
BRANCH   1  11
ATOM     11  N   UNL     1       0.670  -0.496  -1.324  0.00  0.00    +0.390 N 
ATOM     12  H   UNL     1       0.393   0.090  -0.551  0.00  0.00    -0.084 HD
ATOM     13  H   UNL     1       1.634  -0.311  -1.558  0.00  0.00    -0.084 HD
BRANCH  11  15
ATOM     14  C   UNL     1      -0.909  -2.156  -0.459  0.00  0.00    -0.006 C 
ATOM     15  C   UNL     1       0.520  -1.908  -0.947  0.00  0.00    -0.001 C 
BRANCH  15  16
ATOM     16  C   UNL     1       1.492  -2.239   0.156  0.00  0.00    +0.163 A 
ATOM     17  N   UNL     1       2.264  -3.313   0.232  0.00  0.00    -0.113 NA
ATOM     18  N   UNL     1       2.947  -3.225   1.323  0.00  0.00    -0.021 NA
ATOM     19  N   UNL     1       2.629  -2.135   1.930  0.00  0.00    -0.021 NA
ATOM     20  N   UNL     1       1.742  -1.510   1.234  0.00  0.00    -0.113 NA
ENDBRANCH  15  16
ENDBRANCH  11  15
ENDBRANCH   1  11
BRANCH   9  21
ATOM     21  O   UNL     1      -0.024   5.353  -3.412  0.00  0.00    -0.507 OA
ATOM     22  H   UNL     1       0.867   5.728  -3.415  0.00  0.00    +0.292 HD
ENDBRANCH   9  21
TORSDOF 4
