REMARK  Name = ZINC16467078
REMARK  13 active torsions:
REMARK  status: ('A' for Active; 'I' for Inactive)
REMARK    1  A    between atoms: C_1  and  C_2
REMARK    2  A    between atoms: C_3  and  C_28
REMARK    3  A    between atoms: C_4  and  C_27
REMARK    4  A    between atoms: C_7  and  C_8
REMARK    5  A    between atoms: C_8  and  C_10
REMARK    6  A    between atoms: C_10  and  O_11
REMARK    7  A    between atoms: O_11  and  C_12
REMARK    8  A    between atoms: C_12  and  C_14
REMARK    9  A    between atoms: C_19  and  N_20
REMARK   10  A    between atoms: N_23  and  C_24
REMARK   11  A    between atoms: C_24  and  C_25
REMARK   12  A    between atoms: C_24  and  C_26
REMARK   13  A    between atoms: C_28  and  C_30
REMARK                            x       y       z     vdW  Elec       q    Type
REMARK                         _______ _______ _______ _____ _____    ______ ____
ROOT
ATOM      1  C   UNL     1      -3.577   3.411  -0.153  0.00  0.00    +0.341 C 
ATOM      2  O   UNL     1      -2.512   3.996  -0.168  0.00  0.00    -0.245 OA
ENDROOT
BRANCH   1   3
ATOM      3  C   UNL     1      -3.608   1.937  -0.154  0.00  0.00    +0.080 A 
ATOM      4  C   UNL     1      -4.827   1.260  -0.249  0.00  0.00    +0.017 A 
ATOM      5  C   UNL     1      -4.849  -0.117  -0.249  0.00  0.00    +0.001 A 
ATOM      6  C   UNL     1      -3.668  -0.837  -0.155  0.00  0.00    +0.002 A 
ATOM      7  C   UNL     1      -2.457  -0.182  -0.065  0.00  0.00    +0.024 A 
ATOM      8  C   UNL     1      -2.414   1.206  -0.059  0.00  0.00    +0.049 A 
BRANCH   8   9
ATOM      9  N   UNL     1      -1.193   1.868   0.036  0.00  0.00    -0.269 N 
ATOM     10  C   UNL     1      -0.099   1.352  -0.557  0.00  0.00    +0.304 C 
ATOM     11  O   UNL     1      -0.159   0.269  -1.106  0.00  0.00    -0.253 OA
ATOM     12  N   UNL     1       1.061   2.039  -0.546  0.00  0.00    -0.297 N 
ATOM     13  H   UNL     1      -1.131   2.701   0.529  0.00  0.00    +0.156 HD
ATOM     14  H   UNL     1       1.108   2.904  -0.109  0.00  0.00    +0.151 HD
BRANCH  12  15
ATOM     15  C   UNL     1       2.249   1.481  -1.196  0.00  0.00    +0.068 C 
ATOM     16  C   UNL     1       2.226   1.829  -2.686  0.00  0.00    +0.027 C 
ATOM     17  C   UNL     1       3.506   2.071  -0.554  0.00  0.00    +0.027 C 
ENDBRANCH  12  15
ENDBRANCH   8   9
ENDBRANCH   1   3
BRANCH   1  18
ATOM     18  O   UNL     1      -4.729   4.109  -0.135  0.00  0.00    -0.453 OA
BRANCH  18  19
ATOM     19  C   UNL     1      -4.623   5.557  -0.135  0.00  0.00    +0.313 C 
BRANCH  19  20
ATOM     20  C   UNL     1      -6.003   6.162  -0.114  0.00  0.00    +0.217 C 
ATOM     21  O   UNL     1      -6.981   5.443  -0.100  0.00  0.00    -0.287 OA
BRANCH  20  28
ATOM     22  C   UNL     1      -8.735   7.643  -0.084  0.00  0.00    +0.047 C 
ATOM     23  C   UNL     1      -7.356   8.251  -0.097  0.00  0.00    -0.012 A 
ATOM     24  C   UNL     1      -7.042   9.629  -0.096  0.00  0.00    +0.041 A 
ATOM     25  C   UNL     1      -5.658   9.732  -0.117  0.00  0.00    +0.024 A 
ATOM     26  N   UNL     1      -5.137   8.498  -0.125  0.00  0.00    -0.355 N 
ATOM     27  H   UNL     1      -4.189   8.290  -0.140  0.00  0.00    +0.166 HD
ATOM     28  C   UNL     1      -6.158   7.570  -0.110  0.00  0.00    +0.090 A 
ATOM     29  C   UNL     1      -4.873  11.018  -0.129  0.00  0.00    +0.064 C 
BRANCH  24  30
ATOM     30  C   UNL     1      -7.998  10.740  -0.081  0.00  0.00    +0.162 C 
ATOM     31  O   UNL     1      -8.479  11.141  -1.121  0.00  0.00    -0.292 OA
ATOM     32  C   UNL     1      -8.385  11.384   1.225  0.00  0.00    +0.091 C 
ENDBRANCH  24  30
ENDBRANCH  20  28
ENDBRANCH  19  20
ENDBRANCH  18  19
ENDBRANCH   1  18
TORSDOF 8
