REMARK  Name = ZINC20466127
REMARK  12 active torsions:
REMARK  status: ('A' for Active; 'I' for Inactive)
REMARK    1  A    between atoms: C_1  and  C_2
REMARK    2  A    between atoms: C_4  and  N_34
REMARK    3  A    between atoms: C_8  and  C_33
REMARK    4  A    between atoms: C_11  and  O_32
REMARK    5  A    between atoms: C_13  and  C_17
REMARK    6  A    between atoms: C_17  and  C_19
REMARK    7  A    between atoms: C_17  and  C_20
REMARK    8  A    between atoms: N_22  and  C_23
REMARK    9  A    between atoms: C_23  and  C_24
REMARK   10  A    between atoms: C_29  and  O_30
REMARK   11  A    between atoms: O_30  and  C_31
REMARK   12  A    between atoms: C_35  and  C_37
REMARK                            x       y       z     vdW  Elec       q    Type
REMARK                         _______ _______ _______ _____ _____    ______ ____
ROOT
ATOM      1  C   UNL     1       3.506   1.880   3.754  0.00  0.00    +0.010 C 
ATOM      2  C   UNL     1       4.252   1.206   2.601  0.00  0.00    +0.012 C 
ATOM      3  C   UNL     1       5.624   1.861   2.429  0.00  0.00    +0.076 C 
ATOM      4  C   UNL     1       6.370   1.186   1.276  0.00  0.00    +0.023 C 
ATOM      5  C   UNL     1       5.564   1.345  -0.015  0.00  0.00    +0.009 C 
ATOM      6  C   UNL     1       4.192   0.691   0.157  0.00  0.00    -0.027 C 
ATOM      7  C   UNL     1       3.446   1.365   1.310  0.00  0.00    +0.028 C 
ATOM      8  C   UNL     1       2.074   0.710   1.482  0.00  0.00    +0.122 C 
ATOM      9  C   UNL     1       1.268   0.869   0.191  0.00  0.00    +0.029 C 
ATOM     10  C   UNL     1       2.014   0.195  -0.962  0.00  0.00    +0.007 C 
ATOM     11  C   UNL     1       3.386   0.849  -1.134  0.00  0.00    +0.007 C 
ATOM     12  C   UNL     1       4.372  -0.797   0.466  0.00  0.00    +0.011 C 
ENDROOT
BRANCH   3  13
ATOM     13  N   UNL     1       6.396   1.709   3.665  0.00  0.00    -0.312 N 
ATOM     14  C   UNL     1       7.378   2.584   3.958  0.00  0.00    +0.210 C 
ATOM     15  O   UNL     1       7.622   3.498   3.199  0.00  0.00    -0.276 OA
ATOM     16  C   UNL     1       8.172   2.428   5.229  0.00  0.00    +0.109 C 
ATOM     17  H   UNL     1       6.175   0.880   4.353  0.00  0.00    +0.149 HD
ENDBRANCH   3  13
BRANCH   9  18
ATOM     18  C   UNL     1      -0.104   0.214   0.363  0.00  0.00    +0.077 C 
ATOM     19  C   UNL     1       0.068  -1.297   0.527  0.00  0.00    +0.017 C 
BRANCH  18  20
ATOM     20  C   UNL     1      -0.950   0.494  -0.852  0.00  0.00    +0.216 C 
ATOM     21  O   UNL     1      -0.489   1.126  -1.779  0.00  0.00    -0.276 OA
ATOM     22  N   UNL     1      -2.219   0.043  -0.909  0.00  0.00    -0.311 N 
ATOM     23  H   UNL     1      -2.637  -0.529  -0.068  0.00  0.00    +0.149 HD
BRANCH  22  24
ATOM     24  C   UNL     1      -3.042   0.315  -2.090  0.00  0.00    +0.143 C 
BRANCH  24  25
ATOM     25  C   UNL     1      -4.407  -0.293  -1.902  0.00  0.00    +0.011 A 
ATOM     26  C   UNL     1      -4.715  -1.499  -2.501  0.00  0.00    +0.009 A 
ATOM     27  C   UNL     1      -5.966  -2.061  -2.325  0.00  0.00    +0.001 A 
ATOM     28  C   UNL     1      -6.917  -1.411  -1.559  0.00  0.00    +0.004 A 
ATOM     29  C   UNL     1      -6.615  -0.202  -0.962  0.00  0.00    +0.046 A 
ATOM     30  C   UNL     1      -5.359   0.360  -1.133  0.00  0.00    +0.125 A 
BRANCH  30  31
ATOM     31  O   UNL     1      -5.060   1.550  -0.546  0.00  0.00    -0.495 OA
ATOM     32  C   UNL     1      -6.088   2.166   0.232  0.00  0.00    +0.277 C 
ENDBRANCH  30  31
ENDBRANCH  24  25
ENDBRANCH  22  24
ENDBRANCH  18  20
ENDBRANCH   9  18
BRANCH   8  33
ATOM     33  O   UNL     1       1.377   1.340   2.559  0.00  0.00    -0.391 OA
ATOM     34  H   UNL     1       0.367   1.002   2.833  0.00  0.00    +0.210 HD
ENDBRANCH   8  33
TORSDOF 7
