REMARK  Name = ZINC31166934
REMARK  8 active torsions:
REMARK  status: ('A' for Active; 'I' for Inactive)
REMARK    1  A    between atoms: C_1  and  C_2
REMARK    2  A    between atoms: C_10  and  O_25
REMARK    3  A    between atoms: C_11  and  O_24
REMARK    4  A    between atoms: C_12  and  C_13
REMARK    5  A    between atoms: C_13  and  C_15
REMARK    6  A    between atoms: C_19  and  O_23
REMARK    7  A    between atoms: C_20  and  C_21
REMARK    8  A    between atoms: C_26  and  O_28
REMARK                            x       y       z     vdW  Elec       q    Type
REMARK                         _______ _______ _______ _____ _____    ______ ____
ROOT
ATOM      1  C   UNL     1      -0.006  -0.575  -5.503  0.00  0.00    +0.011 C 
ATOM      2  C   UNL     1      -0.848  -0.295  -4.256  0.00  0.00    +0.026 C 
ATOM      3  C   UNL     1      -0.236  -1.022  -3.051  0.00  0.00    +0.085 C 
ATOM      4  C   UNL     1      -1.156  -0.792  -1.871  0.00  0.00    +0.165 C 
ATOM      5  O   UNL     1      -1.430  -1.692  -1.105  0.00  0.00    -0.292 OA
ATOM      6  C   UNL     1      -1.712   0.560  -1.688  0.00  0.00    +0.038 A 
ATOM      7  C   UNL     1      -1.576   1.515  -2.690  0.00  0.00    -0.004 A 
ATOM      8  C   UNL     1      -2.107   2.782  -2.503  0.00  0.00    +0.056 A 
ATOM      9  C   UNL     1      -2.762   3.109  -1.328  0.00  0.00    +0.159 A 
ATOM     10  C   UNL     1      -2.899   2.165  -0.307  0.00  0.00    +0.170 A 
ATOM     11  C   UNL     1      -2.372   0.884  -0.480  0.00  0.00    +0.078 A 
ATOM     12  C   UNL     1      -0.869   1.206  -3.982  0.00  0.00    +0.149 C 
ENDROOT
BRANCH  11  13
ATOM     13  C   UNL     1      -2.506  -0.124   0.588  0.00  0.00    +0.198 C 
ATOM     14  O   UNL     1      -1.571  -0.349   1.333  0.00  0.00    -0.286 OA
BRANCH  13  15
ATOM     15  C   UNL     1      -3.776  -0.862   0.753  0.00  0.00    +0.036 A 
ATOM     16  C   UNL     1      -4.178  -1.785  -0.206  0.00  0.00    +0.012 A 
ATOM     17  C   UNL     1      -5.369  -2.475  -0.052  0.00  0.00    +0.004 A 
ATOM     18  C   UNL     1      -6.169  -2.257   1.051  0.00  0.00    +0.046 A 
ATOM     19  C   UNL     1      -5.790  -1.339   2.024  0.00  0.00    +0.128 A 
ATOM     20  C   UNL     1      -4.586  -0.636   1.887  0.00  0.00    +0.066 A 
BRANCH  20  21
ATOM     21  C   UNL     1      -4.173   0.331   2.911  0.00  0.00    +0.263 C 
ATOM     22  O   UNL     1      -3.088   0.869   2.835  0.00  0.00    -0.296 OA
ENDBRANCH  20  21
BRANCH  19  23
ATOM     23  O   UNL     1      -6.581  -1.129   3.105  0.00  0.00    -0.506 OA
ATOM     24  H   UNL     1      -6.279  -0.403   3.874  0.00  0.00    +0.292 HD
ENDBRANCH  19  23
ENDBRANCH  13  15
ENDBRANCH  11  13
BRANCH  10  25
ATOM     25  O   UNL     1      -3.540   2.491   0.843  0.00  0.00    -0.503 OA
ATOM     26  H   UNL     1      -3.646   1.744   1.644  0.00  0.00    +0.292 HD
ENDBRANCH  10  25
BRANCH   9  27
ATOM     27  O   UNL     1      -3.275   4.356  -1.167  0.00  0.00    -0.503 OA
ATOM     28  H   UNL     1      -3.796   4.620  -0.234  0.00  0.00    +0.292 HD
ENDBRANCH   9  27
BRANCH  12  29
ATOM     29  O   UNL     1      -1.543   1.868  -5.054  0.00  0.00    -0.387 OA
ATOM     30  H   UNL     1      -1.661   2.961  -5.038  0.00  0.00    +0.210 HD
ENDBRANCH  12  29
TORSDOF 7
