REMARK  Name = ZINC41068524
REMARK  5 active torsions:
REMARK  status: ('A' for Active; 'I' for Inactive)
REMARK    1  A    between atoms: C_2  and  N_19
REMARK    2  A    between atoms: C_5  and  S_6
REMARK    3  A    between atoms: S_6  and  N_9
REMARK    4  A    between atoms: N_12  and  S_15
REMARK    5  A    between atoms: S_15  and  N_18
REMARK                            x       y       z     vdW  Elec       q    Type
REMARK                         _______ _______ _______ _____ _____    ______ ____
ROOT
ATOM      1  N   UNL     1      -1.744  -1.436  -1.570  0.00  0.00    -0.174 NA
ATOM      2  C   UNL     1      -2.726  -0.597  -2.273  0.00  0.00    +0.126 C 
ATOM      3  C   UNL     1      -2.077  -0.047  -3.549  0.00  0.00    +0.127 C 
ATOM      4  N   UNL     1      -1.449  -1.161  -4.274  0.00  0.00    -0.164 NA
ATOM      5  C   UNL     1      -0.468  -1.999  -3.572  0.00  0.00    +0.127 C 
ATOM      6  C   UNL     1      -1.112  -2.546  -2.297  0.00  0.00    +0.126 C 
ENDROOT
BRANCH   1   7
ATOM      7  S   UNL     1      -1.352  -1.131   0.009  0.00  0.00    +0.067 S 
ATOM      8  O   UNL     1      -0.863  -2.351   0.549  0.00  0.00    -0.152 OA
ATOM      9  O   UNL     1      -2.455  -0.436   0.575  0.00  0.00    -0.152 OA
BRANCH   7  14
ATOM     10  C   UNL     1      -0.016   1.351   0.009  0.00  0.00    +0.059 A 
ATOM     11  C   UNL     1       1.187   2.039   0.002  0.00  0.00    +0.034 A 
ATOM     12  C   UNL     1       2.346   1.331  -0.013  0.00  0.00    +0.069 A 
ATOM     13  S   UNL     1       1.753  -0.352  -0.017  0.00  0.00    -0.075 S 
ATOM     14  C   UNL     1       0.002  -0.004   0.002  0.00  0.00    +0.144 A 
BRANCH  11  15
ATOM     15  N   UNL     1       1.207   3.447   0.009  0.00  0.00    -0.358 N 
ATOM     16  H   UNL     1       0.374   3.944   0.019  0.00  0.00    +0.142 HD
ATOM     17  H   UNL     1       2.054   3.920   0.003  0.00  0.00    +0.142 HD
ENDBRANCH  11  15
ENDBRANCH   7  14
ENDBRANCH   1   7
BRANCH   4  18
ATOM     18  S   UNL     1      -1.841  -1.465  -5.854  0.00  0.00    +0.095 S 
ATOM     19  O   UNL     1      -1.549  -2.836  -6.087  0.00  0.00    -0.141 OA
ATOM     20  O   UNL     1      -3.134  -0.915  -6.065  0.00  0.00    -0.141 OA
BRANCH  18  21
ATOM     21  N   UNL     1      -0.795  -0.592  -6.795  0.00  0.00    -0.193 NA
ATOM     22  H   UNL     1      -0.117  -0.037  -6.379  0.00  0.00    +0.145 HD
ATOM     23  H   UNL     1      -0.862  -0.635  -7.762  0.00  0.00    +0.145 HD
ENDBRANCH  18  21
ENDBRANCH   4  18
TORSDOF 5
