REMARK  Name = ZINC62349494
REMARK  5 active torsions:
REMARK  status: ('A' for Active; 'I' for Inactive)
REMARK    1  A    between atoms: C_1  and  C_2
REMARK    2  A    between atoms: C_4  and  N_15
REMARK    3  A    between atoms: C_6  and  C_9
REMARK    4  A    between atoms: C_7  and  C_8
REMARK    5  A    between atoms: N_13  and  C_14
REMARK                            x       y       z     vdW  Elec       q    Type
REMARK                         _______ _______ _______ _____ _____    ______ ____
ROOT
ATOM      1  C   UNL     1       1.211   1.755   0.625  0.00  0.00    +0.044 C 
ATOM      2  C   UNL     1       0.872   0.299   0.436  0.00  0.00    -0.045 A 
ATOM      3  C   UNL     1       0.733  -0.216  -0.839  0.00  0.00    +0.026 A 
ATOM      4  C   UNL     1       0.421  -1.558  -1.021  0.00  0.00    +0.025 A 
ATOM      5  C   UNL     1       0.248  -2.385   0.079  0.00  0.00    +0.034 A 
ATOM      6  C   UNL     1       0.389  -1.865   1.365  0.00  0.00    +0.024 A 
ATOM      7  C   UNL     1       0.707  -0.517   1.536  0.00  0.00    -0.037 A 
ATOM      8  C   UNL     1       0.866   0.049   2.924  0.00  0.00    +0.045 C 
ENDROOT
BRANCH   6   9
ATOM      9  C   UNL     1       0.207  -2.741   2.543  0.00  0.00    +0.164 A 
ATOM     10  N   UNL     1      -0.539  -2.490   3.596  0.00  0.00    -0.129 NA
ATOM     11  N   UNL     1      -0.463  -3.469   4.425  0.00  0.00    -0.138 NA
ATOM     12  C   UNL     1       0.329  -4.394   3.954  0.00  0.00    +0.225 A 
ATOM     13  N   UNL     1       0.778  -3.969   2.742  0.00  0.00    -0.317 N 
ATOM     14  C   UNL     1       1.687  -4.677   1.837  0.00  0.00    +0.152 C 
ENDBRANCH   6   9
BRANCH   4  15
ATOM     15  N   UNL     1       0.281  -2.075  -2.312  0.00  0.00    -0.358 N 
ATOM     16  H   UNL     1       0.401  -1.496  -3.081  0.00  0.00    +0.142 HD
ATOM     17  H   UNL     1       0.063  -3.011  -2.438  0.00  0.00    +0.142 HD
ENDBRANCH   4  15
TORSDOF 2
