REMARK  Name = ZINC36854433
REMARK  3 active torsions:
REMARK  status: ('A' for Active; 'I' for Inactive)
REMARK    1  A    between atoms: C_4  and  S_8
REMARK    2  A    between atoms: C_5  and  N_7
REMARK    3  A    between atoms: S_8  and  C_9
REMARK                            x       y       z     vdW  Elec       q    Type
REMARK                         _______ _______ _______ _____ _____    ______ ____
ROOT
ATOM      1  C   UNL     1      -0.013   1.382   0.068  0.00  0.00    +0.002 A 
ATOM      2  C   UNL     1       1.157   2.077  -0.176  0.00  0.00    +0.001 A 
ATOM      3  C   UNL     1       2.367   1.409  -0.209  0.00  0.00    +0.016 A 
ATOM      4  C   UNL     1       2.409   0.039   0.002  0.00  0.00    +0.029 A 
ATOM      5  C   UNL     1       1.228  -0.662   0.247  0.00  0.00    +0.038 A 
ATOM      6  C   UNL     1       0.019   0.016   0.279  0.00  0.00    +0.024 A 
ENDROOT
BRANCH   5   7
ATOM      7  N   UNL     1       1.263  -2.045   0.460  0.00  0.00    -0.357 N 
ATOM      8  H   UNL     1       2.110  -2.518   0.437  0.00  0.00    +0.142 HD
ATOM      9  H   UNL     1       0.441  -2.530   0.631  0.00  0.00    +0.142 HD
ENDBRANCH   5   7
BRANCH   4  10
ATOM     10  S   UNL     1       3.950  -0.815  -0.042  0.00  0.00    -0.118 S 
BRANCH  10  11
ATOM     11  C   UNL     1       5.181   0.508  -0.201  0.00  0.00    +0.074 C 
ATOM     12  C   UNL     1       5.244   1.307   1.112  0.00  0.00    +0.039 C 
ATOM     13  C   UNL     1       6.505   2.217   1.065  0.00  0.00    +0.167 C 
ATOM     14  S   UNL     1       7.724   1.065   0.302  0.00  0.00    -0.030 S 
ATOM     15  O   UNL     1       8.426   0.385   1.334  0.00  0.00    -0.174 OA
ATOM     16  O   UNL     1       8.453   1.760  -0.699  0.00  0.00    -0.174 OA
ATOM     17  C   UNL     1       6.566  -0.112  -0.506  0.00  0.00    +0.180 C 
ENDBRANCH  10  11
ENDBRANCH   4  10
TORSDOF 3
