REMARK  Name = ZINC39856276
REMARK  9 active torsions:
REMARK  status: ('A' for Active; 'I' for Inactive)
REMARK    1  A    between atoms: C_1  and  C_2
REMARK    2  A    between atoms: C_4  and  C_28
REMARK    3  A    between atoms: C_6  and  O_8
REMARK    4  A    between atoms: O_8  and  C_9
REMARK    5  A    between atoms: C_9  and  C_11
REMARK    6  A    between atoms: C_12  and  C_27
REMARK    7  A    between atoms: C_17  and  C_25
REMARK    8  A    between atoms: C_17  and  C_26
REMARK    9  A    between atoms: N_20  and  N_21
REMARK                            x       y       z     vdW  Elec       q    Type
REMARK                         _______ _______ _______ _____ _____    ______ ____
ROOT
ATOM      1  C   UNL     1       0.281  -2.771   4.786  0.00  0.00    +0.215 A 
ATOM      2  C   UNL     1       0.384  -2.177   6.014  0.00  0.00    +0.011 A 
ATOM      3  C   UNL     1       0.488  -3.218   6.944  0.00  0.00    +0.042 A 
ATOM      4  C   UNL     1       0.445  -4.402   6.246  0.00  0.00    +0.116 A 
ATOM      5  O   UNL     1       0.312  -4.113   4.954  0.00  0.00    -0.452 OA
ATOM      6  C   UNL     1       0.535  -5.751   6.913  0.00  0.00    +0.081 C 
ATOM      7  C   UNL     1       1.175  -5.593   8.295  0.00  0.00    -0.023 C 
ATOM      8  C   UNL     1       0.439  -4.527   9.113  0.00  0.00    +0.064 C 
ATOM      9  C   UNL     1       0.620  -3.185   8.418  0.00  0.00    +0.071 C 
ATOM     10  N   UNL     1       0.872  -2.092   9.070  0.00  0.00    -0.183 NA
ATOM     11  C   UNL     1       2.639  -5.180   8.128  0.00  0.00    +0.011 C 
ATOM     12  C   UNL     1       1.111  -6.931   9.036  0.00  0.00    +0.011 C 
ATOM     13  C   UNL     1       0.387  -0.699   6.306  0.00  0.00    +0.048 C 
ENDROOT
BRANCH  10  14
ATOM     14  N   UNL     1       0.987  -2.120  10.466  0.00  0.00    -0.191 N 
ATOM     15  C   UNL     1       1.249  -0.985  11.143  0.00  0.00    +0.317 C 
ATOM     16  O   UNL     1       1.348  -1.009  12.355  0.00  0.00    -0.251 OA
ATOM     17  N   UNL     1       1.400   0.177  10.478  0.00  0.00    -0.312 N 
ATOM     18  H   UNL     1       0.878  -2.957  10.945  0.00  0.00    +0.179 HD
ATOM     19  H   UNL     1       1.320   0.197   9.511  0.00  0.00    +0.147 HD
ATOM     20  H   UNL     1       1.588   0.994  10.965  0.00  0.00    +0.147 HD
ENDBRANCH  10  14
BRANCH   1  21
ATOM     21  C   UNL     1       0.151  -2.071   3.505  0.00  0.00    +0.380 C 
ATOM     22  O   UNL     1       0.133  -0.855   3.475  0.00  0.00    -0.241 OA
BRANCH  21  23
ATOM     23  O   UNL     1       0.051  -2.776   2.359  0.00  0.00    -0.420 OA
BRANCH  23  29
ATOM     24  C   UNL     1       2.461  -0.068  -0.910  0.00  0.00    +0.044 C 
ATOM     25  C   UNL     1       1.206  -0.757  -0.439  0.00  0.00    -0.047 A 
ATOM     26  C   UNL     1       0.054  -0.690  -1.201  0.00  0.00    +0.007 A 
ATOM     27  C   UNL     1      -1.099  -1.321  -0.772  0.00  0.00    -0.047 A 
ATOM     28  C   UNL     1      -1.103  -2.020   0.420  0.00  0.00    +0.049 A 
ATOM     29  C   UNL     1       0.052  -2.089   1.186  0.00  0.00    +0.133 A 
ATOM     30  C   UNL     1       1.209  -1.459   0.750  0.00  0.00    +0.049 A 
ATOM     31  C   UNL     1      -2.353  -1.246  -1.605  0.00  0.00    +0.044 C 
ENDBRANCH  23  29
ENDBRANCH  21  23
ENDBRANCH   1  21
TORSDOF 4
