REMARK  Name = ZINC45167037
REMARK  8 active torsions:
REMARK  status: ('A' for Active; 'I' for Inactive)
REMARK    1  A    between atoms: C_1  and  C_2
REMARK    2  A    between atoms: C_5  and  N_9
REMARK    3  A    between atoms: N_9  and  C_10
REMARK    4  A    between atoms: C_10  and  C_12
REMARK    5  A    between atoms: C_10  and  C_13
REMARK    6  A    between atoms: C_14  and  C_20
REMARK    7  A    between atoms: N_16  and  C_19
REMARK    8  A    between atoms: C_17  and  C_18
REMARK                            x       y       z     vdW  Elec       q    Type
REMARK                         _______ _______ _______ _____ _____    ______ ____
ROOT
ATOM      1  N   UNL     1       0.052  -4.179  -0.065  0.00  0.00    -0.337 N 
ATOM      2  H   UNL     1      -0.108  -4.664  -0.890  0.00  0.00    +0.147 HD
ENDROOT
BRANCH   1   7
ATOM      3  C   UNL     1       1.022   1.407  -0.209  0.00  0.00    +0.045 C 
ATOM      4  C   UNL     1       0.764  -0.077  -0.171  0.00  0.00    -0.032 A 
ATOM      5  C   UNL     1       0.536  -0.769  -1.347  0.00  0.00    +0.006 A 
ATOM      6  C   UNL     1       0.300  -2.129  -1.315  0.00  0.00    +0.023 A 
ATOM      7  C   UNL     1       0.291  -2.803  -0.100  0.00  0.00    +0.029 A 
ATOM      8  C   UNL     1       0.521  -2.107   1.079  0.00  0.00    +0.043 A 
ATOM      9  C   UNL     1       0.762  -0.746   1.040  0.00  0.00    +0.046 A 
ATOM     10 CL   UNL     1       1.056   0.125   2.513  0.00  0.00    -0.083 Cl
ENDBRANCH   1   7
BRANCH   1  11
ATOM     11  C   UNL     1       0.044  -4.889   1.216  0.00  0.00    +0.101 C 
ATOM     12  C   UNL     1       1.483  -5.102   1.690  0.00  0.00    +0.033 C 
BRANCH  11  13
ATOM     13  C   UNL     1      -0.633  -6.225   1.046  0.00  0.00    +0.016 A 
ATOM     14  C   UNL     1      -0.366  -7.160   0.041  0.00  0.00    +0.065 A 
ATOM     15  N   UNL     1      -1.150  -8.191   0.224  0.00  0.00    -0.176 NA
ATOM     16  N   UNL     1      -1.941  -7.945   1.353  0.00  0.00    -0.271 N 
ATOM     17  C   UNL     1      -1.601  -6.734   1.843  0.00  0.00    +0.041 A 
ATOM     18  C   UNL     1      -2.195  -6.067   3.056  0.00  0.00    +0.065 C 
ATOM     19  C   UNL     1      -2.955  -8.845   1.908  0.00  0.00    +0.172 C 
ATOM     20  C   UNL     1       0.648  -7.006  -1.063  0.00  0.00    +0.068 C 
ENDBRANCH  11  13
ENDBRANCH   1  11
TORSDOF 3
