REMARK  Name = ZINC54668078
REMARK  8 active torsions:
REMARK  status: ('A' for Active; 'I' for Inactive)
REMARK    1  A    between atoms: C_1  and  C_2
REMARK    2  A    between atoms: C_2  and  C_3
REMARK    3  A    between atoms: C_4  and  C_9
REMARK    4  A    between atoms: C_7  and  N_8
REMARK    5  A    between atoms: C_12  and  C_15
REMARK    6  A    between atoms: C_15  and  C_16
REMARK    7  A    between atoms: C_15  and  C_17
REMARK    8  A    between atoms: C_15  and  C_18
REMARK                            x       y       z     vdW  Elec       q    Type
REMARK                         _______ _______ _______ _____ _____    ______ ____
ROOT
ATOM      1  C   UNL     1      -1.412  -0.526   0.013  0.00  0.00    +0.037 A 
ATOM      2  C   UNL     1      -2.175  -0.811   1.152  0.00  0.00    +0.092 A 
ATOM      3  N   UNL     1      -3.345  -1.241   0.763  0.00  0.00    -0.081 NA
ATOM      4  O   UNL     1      -3.364  -1.242  -0.653  0.00  0.00    -0.339 OA
ATOM      5  C   UNL     1      -2.172  -0.796  -1.081  0.00  0.00    +0.219 A 
ENDROOT
BRANCH   2   6
ATOM      6  C   UNL     1      -1.724  -0.651   2.581  0.00  0.00    +0.041 C 
ATOM      7  C   UNL     1      -1.781  -2.006   3.289  0.00  0.00    +0.010 C 
ATOM      8  C   UNL     1      -1.322  -1.844   4.739  0.00  0.00    +0.005 C 
ATOM      9  C   UNL     1      -2.242  -0.854   5.457  0.00  0.00    -0.006 C 
ATOM     10  C   UNL     1      -2.185   0.501   4.749  0.00  0.00    +0.005 C 
ATOM     11  C   UNL     1      -2.643   0.338   3.299  0.00  0.00    +0.010 C 
BRANCH   9  12
ATOM     12  C   UNL     1      -1.784  -0.692   6.908  0.00  0.00    -0.035 C 
ATOM     13  C   UNL     1      -0.348  -0.163   6.933  0.00  0.00    +0.011 C 
ATOM     14  C   UNL     1      -2.703   0.298   7.626  0.00  0.00    +0.011 C 
ATOM     15  C   UNL     1      -1.841  -2.047   7.616  0.00  0.00    +0.011 C 
ENDBRANCH   9  12
ENDBRANCH   2   6
BRANCH   5  16
ATOM     16  N   UNL     1      -1.785  -0.642  -2.400  0.00  0.00    -0.327 N 
ATOM     17  H   UNL     1      -0.897  -0.313  -2.610  0.00  0.00    +0.145 HD
ATOM     18  H   UNL     1      -2.402  -0.863  -3.115  0.00  0.00    +0.145 HD
ENDBRANCH   5  16
BRANCH   1  20
ATOM     19  C   UNL     1      -0.019   1.526   0.010  0.00  0.00    +0.009 C 
ATOM     20  C   UNL     1       0.002  -0.004   0.002  0.00  0.00    +0.039 C 
ENDBRANCH   1  20
TORSDOF 4
