REMARK  Name = ZINC15018641
REMARK  7 active torsions:
REMARK  status: ('A' for Active; 'I' for Inactive)
REMARK    1  A    between atoms: C_1  and  C_2
REMARK    2  A    between atoms: C_3  and  C_22
REMARK    3  A    between atoms: C_4  and  N_21
REMARK    4  A    between atoms: C_6  and  C_7
REMARK    5  A    between atoms: N_9  and  N_10
REMARK    6  A    between atoms: C_11  and  C_12
REMARK    7  A    between atoms: C_15  and  O_19
REMARK                            x       y       z     vdW  Elec       q    Type
REMARK                         _______ _______ _______ _____ _____    ______ ____
ROOT
ATOM      1  C   UNL     1       2.129   4.522   0.005  0.00  0.00    +0.270 C 
ATOM      2  O   UNL     1       3.293   4.163  -0.008  0.00  0.00    -0.268 OA
ATOM      3  N   UNL     1       1.828   5.835   0.015  0.00  0.00    -0.203 N 
ATOM      4  H   UNL     1       0.901   6.121   0.026  0.00  0.00    +0.178 HD
ENDROOT
BRANCH   1  10
ATOM      5  C   UNL     1       2.502   1.478  -0.013  0.00  0.00    +0.046 C 
ATOM      6  C   UNL     1       1.159   2.160   0.003  0.00  0.00    -0.012 A 
ATOM      7  C   UNL     1      -0.017   1.428   0.010  0.00  0.00    +0.083 A 
ATOM      8  C   UNL     1      -1.225   2.135   0.019  0.00  0.00    +0.081 A 
ATOM      9  S   UNL     1      -0.706   3.789   0.029  0.00  0.00    -0.068 S 
ATOM     10  C   UNL     1       1.058   3.526   0.011  0.00  0.00    +0.081 A 
BRANCH   8  11
ATOM     11  N   UNL     1      -2.510   1.639   0.022  0.00  0.00    -0.352 N 
ATOM     12  H   UNL     1      -2.659   0.681   0.018  0.00  0.00    +0.143 HD
ATOM     13  H   UNL     1      -3.264   2.248   0.029  0.00  0.00    +0.143 HD
ENDBRANCH   8  11
BRANCH   7  14
ATOM     14  C   UNL     1       0.002  -0.004   0.002  0.00  0.00    +0.102 C 
ATOM     15  N   UNL     1       0.018  -1.140  -0.004  0.00  0.00    -0.191 NA
ENDBRANCH   7  14
ENDBRANCH   1  10
BRANCH   3  16
ATOM     16  N   UNL     1       2.854   6.789   0.010  0.00  0.00    -0.187 NA
ATOM     17  C   UNL     1       2.565   8.054   0.020  0.00  0.00    +0.138 C 
BRANCH  17  18
ATOM     18  C   UNL     1       3.645   9.058   0.014  0.00  0.00    -0.003 A 
ATOM     19  C   UNL     1       4.981   8.649   0.004  0.00  0.00    +0.028 A 
ATOM     20  C   UNL     1       5.988   9.591  -0.005  0.00  0.00    +0.061 A 
ATOM     21  C   UNL     1       5.676  10.944   0.005  0.00  0.00    +0.145 A 
ATOM     22  C   UNL     1       4.349  11.355   0.020  0.00  0.00    +0.061 A 
ATOM     23  C   UNL     1       3.336  10.420   0.025  0.00  0.00    +0.028 A 
ATOM     24 BR   UNL     1       3.932  13.200   0.035  0.00  0.00    -0.046 Br
ATOM     25 BR   UNL     1       7.797   9.039  -0.026  0.00  0.00    -0.046 Br
BRANCH  21  26
ATOM     26  O   UNL     1       6.672  11.869  -0.000  0.00  0.00    -0.505 OA
ATOM     27  H   UNL     1       6.968  12.132   0.882  0.00  0.00    +0.292 HD
ENDBRANCH  21  26
ENDBRANCH  17  18
ENDBRANCH   3  16
TORSDOF 6
