REMARK  Name = ZINC67538353
REMARK  8 active torsions:
REMARK  status: ('A' for Active; 'I' for Inactive)
REMARK    1  A    between atoms: C_1  and  C_2
REMARK    2  A    between atoms: C_2  and  C_4
REMARK    3  A    between atoms: C_2  and  N_11
REMARK    4  A    between atoms: C_8  and  O_10
REMARK    5  A    between atoms: N_11  and  C_12
REMARK    6  A    between atoms: N_15  and  C_16
REMARK    7  A    between atoms: C_21  and  O_22
REMARK    8  A    between atoms: O_22  and  C_23
REMARK                            x       y       z     vdW  Elec       q    Type
REMARK                         _______ _______ _______ _____ _____    ______ ____
ROOT
ATOM      1  N   UNL     1      -1.380  -0.398   0.185  0.00  0.00    -0.282 N 
ATOM      2  C   UNL     1      -2.333  -0.220  -0.913  0.00  0.00    +0.134 C 
ATOM      3  C   UNL     1      -1.802  -0.883   1.370  0.00  0.00    +0.307 C 
ATOM      4  O   UNL     1      -1.011  -1.030   2.282  0.00  0.00    -0.252 OA
ATOM      5  N   UNL     1      -3.099  -1.204   1.544  0.00  0.00    -0.266 N 
ATOM      6  H   UNL     1      -3.742  -1.020   0.842  0.00  0.00    +0.156 HD
ENDROOT
BRANCH   5   7
ATOM      7  C   UNL     1      -3.518  -1.803   2.740  0.00  0.00    +0.077 A 
ATOM      8  C   UNL     1      -2.904  -1.469   3.938  0.00  0.00    +0.027 A 
ATOM      9  C   UNL     1      -3.319  -2.062   5.116  0.00  0.00    +0.002 A 
ATOM     10  C   UNL     1      -4.346  -2.988   5.103  0.00  0.00    +0.004 A 
ATOM     11  C   UNL     1      -4.963  -3.326   3.913  0.00  0.00    +0.048 A 
ATOM     12  C   UNL     1      -4.556  -2.732   2.729  0.00  0.00    +0.151 A 
BRANCH  12  13
ATOM     13  O   UNL     1      -5.165  -3.059   1.558  0.00  0.00    -0.404 OA
BRANCH  13  14
ATOM     14  C   UNL     1      -6.222  -4.019   1.623  0.00  0.00    +0.575 C 
ATOM     15  F   UNL     1      -7.239  -3.537   2.454  0.00  0.00    -0.133 F 
ATOM     16  F   UNL     1      -6.733  -4.237   0.339  0.00  0.00    -0.133 F 
ATOM     17  F   UNL     1      -5.729  -5.222   2.139  0.00  0.00    -0.133 F 
ENDBRANCH  13  14
ENDBRANCH  12  13
ENDBRANCH   5   7
BRANCH   1  19
ATOM     18  C   UNL     1       0.136   1.396  -0.496  0.00  0.00    +0.033 C 
ATOM     19  C   UNL     1       0.030  -0.049  -0.004  0.00  0.00    +0.104 C 
BRANCH  19  20
ATOM     20  C   UNL     1       0.644  -0.973  -1.023  0.00  0.00    -0.024 A 
ATOM     21  C   UNL     1       1.741  -1.743  -0.685  0.00  0.00    +0.006 A 
ATOM     22  C   UNL     1       2.307  -2.592  -1.618  0.00  0.00    +0.004 A 
ATOM     23  C   UNL     1       1.777  -2.673  -2.891  0.00  0.00    +0.045 A 
ATOM     24  C   UNL     1       0.676  -1.902  -3.233  0.00  0.00    +0.117 A 
ATOM     25  C   UNL     1       0.106  -1.055  -2.293  0.00  0.00    +0.050 A 
BRANCH  24  26
ATOM     26  O   UNL     1       0.152  -1.980  -4.485  0.00  0.00    -0.507 OA
ATOM     27  H   UNL     1      -0.536  -2.651  -4.582  0.00  0.00    +0.292 HD
ENDBRANCH  24  26
ENDBRANCH  19  20
ENDBRANCH   1  19
TORSDOF 6
