REMARK  Name = ZINC50669554
REMARK  5 active torsions:
REMARK  status: ('A' for Active; 'I' for Inactive)
REMARK    1  A    between atoms: C_1  and  N_2
REMARK    2  A    between atoms: C_6  and  N_9
REMARK    3  A    between atoms: N_9  and  S_10
REMARK    4  A    between atoms: S_10  and  C_13
REMARK    5  A    between atoms: C_18  and  N_19
REMARK                            x       y       z     vdW  Elec       q    Type
REMARK                         _______ _______ _______ _____ _____    ______ ____
ROOT
ATOM      1  S   UNL     1       2.418  -3.920   2.276  0.00  0.00    +0.062 S 
ATOM      2  O   UNL     1       2.916  -4.287   3.555  0.00  0.00    -0.153 OA
ATOM      3  O   UNL     1       1.573  -4.773   1.514  0.00  0.00    -0.153 OA
ENDROOT
BRANCH   1   4
ATOM      4  C   UNL     1       3.821  -3.572   1.269  0.00  0.00    +0.146 A 
ATOM      5  C   UNL     1       3.940  -4.138   0.013  0.00  0.00    +0.048 A 
ATOM      6  C   UNL     1       5.064  -3.836  -0.747  0.00  0.00    +0.038 A 
ATOM      7  C   UNL     1       6.022  -2.986  -0.228  0.00  0.00    +0.128 A 
ATOM      8  N   UNL     1       5.881  -2.462   0.974  0.00  0.00    -0.238 NA
ATOM      9  C   UNL     1       4.822  -2.721   1.725  0.00  0.00    +0.143 A 
ATOM     10 BR   UNL     1       5.280  -4.581  -2.471  0.00  0.00    -0.049 Br
BRANCH   9  11
ATOM     11  N   UNL     1       4.712  -2.140   2.984  0.00  0.00    -0.342 N 
ATOM     12  H   UNL     1       3.903  -2.263   3.506  0.00  0.00    +0.144 HD
ATOM     13  H   UNL     1       5.444  -1.613   3.341  0.00  0.00    +0.144 HD
ENDBRANCH   9  11
ENDBRANCH   1   4
BRANCH   1  14
ATOM     14  N   UNL     1       1.595  -2.497   2.478  0.00  0.00    -0.189 NA
ATOM     15  H   UNL     1       1.520  -2.102   3.361  0.00  0.00    +0.148 HD
BRANCH  14  21
ATOM     16  C   UNL     1       0.638   1.801   0.461  0.00  0.00    -0.096 C 
ATOM     17  N   UNL     1       0.468   0.347   0.336  0.00  0.00    +0.379 N 
ATOM     18  C   UNL     1      -0.964   0.026   0.282  0.00  0.00    -0.079 C 
ATOM     19  C   UNL     1      -1.145  -1.479   0.070  0.00  0.00    -0.017 C 
ATOM     20  C   UNL     1      -0.494  -2.235   1.232  0.00  0.00    +0.017 C 
ATOM     21  C   UNL     1       0.982  -1.836   1.324  0.00  0.00    +0.060 C 
ATOM     22  C   UNL     1       1.084  -0.318   1.490  0.00  0.00    -0.059 C 
ATOM     23  H   UNL     1       0.914   0.029  -0.512  0.00  0.00    -0.082 HD
ENDBRANCH  14  21
ENDBRANCH   1  14
TORSDOF 4
