REMARK  Name = ZINC13640181
REMARK  8 active torsions:
REMARK  status: ('A' for Active; 'I' for Inactive)
REMARK    1  A    between atoms: C_1  and  C_2
REMARK    2  A    between atoms: C_2  and  C_3
REMARK    3  A    between atoms: C_2  and  C_4
REMARK    4  A    between atoms: C_4  and  O_5
REMARK    5  A    between atoms: O_5  and  C_6
REMARK    6  A    between atoms: C_19  and  C_22
REMARK    7  A    between atoms: C_25  and  O_29
REMARK    8  A    between atoms: C_27  and  O_28
REMARK                            x       y       z     vdW  Elec       q    Type
REMARK                         _______ _______ _______ _____ _____    ______ ____
ROOT
ATOM      1  C   UNL     1       1.301   1.931  -0.021  0.00  0.00    +0.121 A 
ATOM      2  C   UNL     1       0.139   1.174  -0.018  0.00  0.00    +0.047 A 
ATOM      3  C   UNL     1      -1.089   1.806  -0.004  0.00  0.00    +0.027 A 
ATOM      4  C   UNL     1      -1.156   3.194   0.018  0.00  0.00    +0.032 A 
ATOM      5  C   UNL     1      -0.001   3.955   0.013  0.00  0.00    -0.016 A 
ATOM      6  C   UNL     1       1.230   3.313  -0.006  0.00  0.00    +0.051 A 
ATOM      7  C   UNL     1      -0.013   5.460   0.023  0.00  0.00    +0.049 C 
ATOM      8  C   UNL     1       0.701   5.931  -1.236  0.00  0.00    -0.023 C 
ATOM      9  C   UNL     1      -0.166   6.202  -2.179  0.00  0.00    -0.030 C 
ATOM     10  C   UNL     1      -1.580   5.956  -1.687  0.00  0.00    +0.033 C 
ATOM     11  C   UNL     1      -1.430   6.037  -0.149  0.00  0.00    +0.029 C 
ATOM     12  C   UNL     1      -2.481   5.194   0.547  0.00  0.00    +0.108 C 
ATOM     13  N   UNL     1      -2.413   3.815   0.048  0.00  0.00    -0.336 N 
ATOM     14  H   UNL     1      -3.210   3.350  -0.251  0.00  0.00    +0.147 HD
ENDROOT
BRANCH  12  15
ATOM     15  C   UNL     1      -2.230   5.203   2.033  0.00  0.00    +0.015 A 
ATOM     16  C   UNL     1      -1.632   4.114   2.638  0.00  0.00    +0.012 A 
ATOM     17  C   UNL     1      -1.399   4.120   4.000  0.00  0.00    +0.046 A 
ATOM     18  C   UNL     1      -1.766   5.220   4.763  0.00  0.00    +0.120 A 
ATOM     19  C   UNL     1      -2.366   6.313   4.158  0.00  0.00    +0.091 A 
ATOM     20  C   UNL     1      -2.594   6.307   2.790  0.00  0.00    +0.125 A 
BRANCH  20  21
ATOM     21  O   UNL     1      -3.177   7.379   2.193  0.00  0.00    -0.506 OA
ATOM     22  H   UNL     1      -4.142   7.333   2.157  0.00  0.00    +0.292 HD
ENDBRANCH  20  21
BRANCH  18  23
ATOM     23  O   UNL     1      -1.538   5.225   6.103  0.00  0.00    -0.507 OA
ATOM     24  H   UNL     1      -0.677   5.586   6.354  0.00  0.00    +0.292 HD
ENDBRANCH  18  23
ENDBRANCH  12  15
BRANCH   1  25
ATOM     25  O   UNL     1       2.513   1.314  -0.039  0.00  0.00    -0.492 OA
BRANCH  25  26
ATOM     26  C   UNL     1       2.513  -0.115  -0.054  0.00  0.00    +0.232 C 
BRANCH  26  28
ATOM     27  C   UNL     1       4.651  -0.234   1.232  0.00  0.00    +0.010 C 
ATOM     28  C   UNL     1       3.955  -0.625  -0.073  0.00  0.00    +0.020 C 
ATOM     29  C   UNL     1       3.956  -2.148  -0.214  0.00  0.00    +0.010 C 
ENDBRANCH  26  28
ENDBRANCH  25  26
ENDBRANCH   1  25
TORSDOF 6
