REMARK  Name = ZINC00279074
REMARK  8 active torsions:
REMARK  status: ('A' for Active; 'I' for Inactive)
REMARK    1  A    between atoms: C_1  and  C_2
REMARK    2  A    between atoms: C_2  and  C_3
REMARK    3  A    between atoms: C_2  and  C_4
REMARK    4  A    between atoms: C_7  and  C_10
REMARK    5  A    between atoms: C_11  and  C_20
REMARK    6  A    between atoms: C_12  and  N_19
REMARK    7  A    between atoms: C_14  and  N_18
REMARK    8  A    between atoms: C_15  and  C_16
REMARK                            x       y       z     vdW  Elec       q    Type
REMARK                         _______ _______ _______ _____ _____    ______ ____
ROOT
ATOM      1  C   UNL     1       1.151   3.592   0.010  0.00  0.00    +0.110 C 
ATOM      2  C   UNL     1       1.837   4.107  -1.226  0.00  0.00    +0.099 C 
ATOM      3  C   UNL     1       3.087   4.620  -1.169  0.00  0.00    +0.200 C 
ATOM      4  O   UNL     1       3.769   4.691  -0.012  0.00  0.00    -0.427 OA
ATOM      5  C   UNL     1       3.111   4.608   1.159  0.00  0.00    +0.200 C 
ATOM      6  C   UNL     1       1.860   4.095   1.237  0.00  0.00    +0.099 C 
ENDROOT
BRANCH   1  10
ATOM      7  C   UNL     1       1.208  -0.679  -0.013  0.00  0.00    -0.045 A 
ATOM      8  C   UNL     1       0.002  -0.004   0.002  0.00  0.00    +0.004 A 
ATOM      9  C   UNL     1      -0.017   1.378   0.010  0.00  0.00    +0.005 A 
ATOM     10  C   UNL     1       1.171   2.086   0.002  0.00  0.00    -0.034 A 
ATOM     11  C   UNL     1       2.377   1.411  -0.015  0.00  0.00    +0.005 A 
ATOM     12  C   UNL     1       2.396   0.029  -0.021  0.00  0.00    +0.004 A 
BRANCH   7  14
ATOM     13  C   UNL     1       1.944  -2.680  -1.279  0.00  0.00    +0.012 C 
ATOM     14  C   UNL     1       1.229  -2.186  -0.021  0.00  0.00    +0.013 C 
ATOM     15  C   UNL     1       1.969  -2.692   1.219  0.00  0.00    +0.012 C 
ENDBRANCH   7  14
ENDBRANCH   1  10
BRANCH   5  16
ATOM     16  N   UNL     1       3.724   5.055   2.304  0.00  0.00    -0.328 N 
ATOM     17  H   UNL     1       3.260   5.001   3.154  0.00  0.00    +0.145 HD
ATOM     18  H   UNL     1       4.619   5.425   2.262  0.00  0.00    +0.145 HD
ENDBRANCH   5  16
BRANCH   3  19
ATOM     19  N   UNL     1       3.675   5.079  -2.321  0.00  0.00    -0.328 N 
ATOM     20  H   UNL     1       4.572   5.448  -2.294  0.00  0.00    +0.145 HD
ATOM     21  H   UNL     1       3.195   5.033  -3.163  0.00  0.00    +0.145 HD
ENDBRANCH   3  19
BRANCH   6  22
ATOM     22  C   UNL     1       1.203   4.029   2.508  0.00  0.00    +0.101 C 
ATOM     23  N   UNL     1       0.682   3.978   3.516  0.00  0.00    -0.191 NA
ENDBRANCH   6  22
BRANCH   2  24
ATOM     24  C   UNL     1       1.156   4.055  -2.484  0.00  0.00    +0.101 C 
ATOM     25  N   UNL     1       0.616   4.014  -3.483  0.00  0.00    -0.191 NA
ENDBRANCH   2  24
TORSDOF 6
