REMARK  Name = ZINC13495845
REMARK  13 active torsions:
REMARK  status: ('A' for Active; 'I' for Inactive)
REMARK    1  A    between atoms: C_1  and  C_2
REMARK    2  A    between atoms: C_2  and  C_3
REMARK    3  A    between atoms: C_3  and  C_5
REMARK    4  A    between atoms: C_3  and  N_72
REMARK    5  A    between atoms: N_9  and  C_10
REMARK    6  A    between atoms: C_10  and  C_11
REMARK    7  A    between atoms: C_18  and  C_19
REMARK    8  A    between atoms: C_18  and  N_72
REMARK    9  A    between atoms: C_19  and  C_20
REMARK   10  A    between atoms: C_26  and  C_27
REMARK   11  A    between atoms: C_26  and  N_72
REMARK   12  A    between atoms: C_31  and  C_40
REMARK   13  A    between atoms: C_33  and  C_39
REMARK                            x       y       z     vdW  Elec       q    Type
REMARK                         _______ _______ _______ _____ _____    ______ ____
ROOT
ATOM      1  N   UNL     1      -1.063   7.852  -1.517  0.00  0.00    +0.389 N 
ATOM      2  H   UNL     1      -0.203   7.553  -1.990  0.00  0.00    -0.080 HD
ENDROOT
BRANCH   1   3
ATOM      3  C   UNL     1      -0.953   9.287  -1.181  0.00  0.00    +0.003 C 
BRANCH   3   4
ATOM      4  C   UNL     1       0.482   9.591  -0.835  0.00  0.00    +0.138 A 
ATOM      5  N   UNL     1       1.248   8.918  -0.011  0.00  0.00    -0.115 NA
ATOM      6  N   UNL     1       2.402   9.489   0.016  0.00  0.00    -0.023 NA
ATOM      7  N   UNL     1       2.393  10.509  -0.769  0.00  0.00    -0.044 NA
ATOM      8  N   UNL     1       1.228  10.602  -1.317  0.00  0.00    -0.226 N 
BRANCH   8   9
ATOM      9  C   UNL     1       0.797  11.620  -2.279  0.00  0.00    +0.182 C 
BRANCH   9  10
ATOM     10  C   UNL     1       0.217  12.797  -1.539  0.00  0.00    -0.026 A 
ATOM     11  C   UNL     1      -1.135  12.835  -1.253  0.00  0.00    +0.008 A 
ATOM     12  C   UNL     1      -1.668  13.912  -0.570  0.00  0.00    +0.038 A 
ATOM     13  C   UNL     1      -0.849  14.958  -0.181  0.00  0.00    +0.123 A 
ATOM     14  C   UNL     1       0.504  14.922  -0.473  0.00  0.00    +0.038 A 
ATOM     15  C   UNL     1       1.036  13.841  -1.151  0.00  0.00    +0.008 A 
ATOM     16  F   UNL     1      -1.369  16.014   0.482  0.00  0.00    -0.205 F 
ENDBRANCH   9  10
ENDBRANCH   8   9
ENDBRANCH   3   4
BRANCH   3  18
ATOM     17  C   UNL     1      -3.316   9.451  -0.385  0.00  0.00    +0.002 C 
ATOM     18  C   UNL     1      -1.848   9.627   0.012  0.00  0.00    -0.011 C 
ENDBRANCH   3  18
ENDBRANCH   1   3
BRANCH   1  19
ATOM     19  C   UNL     1      -2.211   7.632  -2.423  0.00  0.00    -0.073 C 
BRANCH  19  20
ATOM     20  C   UNL     1      -1.926   8.323  -3.758  0.00  0.00    +0.016 C 
BRANCH  20  21
ATOM     21  C   UNL     1      -3.011   7.977  -4.744  0.00  0.00    -0.049 A 
ATOM     22  C   UNL     1      -2.877   6.868  -5.559  0.00  0.00    +0.003 A 
ATOM     23  C   UNL     1      -3.875   6.548  -6.461  0.00  0.00    +0.000 A 
ATOM     24  C   UNL     1      -5.003   7.342  -6.554  0.00  0.00    +0.000 A 
ATOM     25  C   UNL     1      -5.134   8.454  -5.743  0.00  0.00    +0.000 A 
ATOM     26  C   UNL     1      -4.139   8.771  -4.838  0.00  0.00    +0.003 A 
ENDBRANCH  20  21
ENDBRANCH  19  20
ENDBRANCH   1  19
BRANCH   1  27
ATOM     27  C   UNL     1      -1.234   7.056  -0.283  0.00  0.00    -0.037 C 
BRANCH  27  28
ATOM     28  C   UNL     1      -1.016   5.601  -0.611  0.00  0.00    +0.001 A 
ATOM     29  C   UNL     1       0.209   5.047  -0.442  0.00  0.00    +0.017 A 
ATOM     30  C   UNL     1       0.388   3.631  -0.769  0.00  0.00    -0.001 A 
ATOM     31  C   UNL     1       1.629   3.004  -0.615  0.00  0.00    +0.013 A 
ATOM     32  C   UNL     1       1.762   1.681  -0.929  0.00  0.00    -0.050 A 
ATOM     33  C   UNL     1       0.677   0.954  -1.400  0.00  0.00    +0.008 A 
ATOM     34  C   UNL     1      -0.553   1.553  -1.565  0.00  0.00    -0.026 A 
ATOM     35  C   UNL     1      -0.714   2.897  -1.246  0.00  0.00    +0.052 A 
ATOM     36  N   UNL     1      -1.935   3.520  -1.396  0.00  0.00    -0.322 N 
ATOM     37  H   UNL     1      -2.693   3.013  -1.724  0.00  0.00    +0.169 HD
ATOM     38  C   UNL     1      -2.089   4.821  -1.092  0.00  0.00    +0.251 A 
ATOM     39  O   UNL     1      -3.183   5.339  -1.237  0.00  0.00    -0.268 OA
ATOM     40  C   UNL     1      -1.720   0.753  -2.083  0.00  0.00    +0.046 C 
ATOM     41  C   UNL     1       3.098   1.005  -0.762  0.00  0.00    +0.044 C 
ENDBRANCH  27  28
ENDBRANCH   1  27
TORSDOF 10
