REMARK  Name = ZINC49932231
REMARK  4 active torsions:
REMARK  status: ('A' for Active; 'I' for Inactive)
REMARK    1  A    between atoms: C_1  and  C_2
REMARK    2  A    between atoms: C_9  and  C_11
REMARK    3  A    between atoms: C_11  and  S_12
REMARK    4  A    between atoms: S_12  and  C_13
REMARK                            x       y       z     vdW  Elec       q    Type
REMARK                         _______ _______ _______ _____ _____    ______ ____
ROOT
ATOM      1  C   UNL     1       4.215   0.473   5.055  0.00  0.00    +0.191 A 
ATOM      2  N   UNL     1       4.937   1.232   5.872  0.00  0.00    -0.207 NA
ATOM      3  C   UNL     1       5.719   0.714   6.804  0.00  0.00    +0.129 A 
ATOM      4  C   UNL     1       5.795  -0.700   6.943  0.00  0.00    +0.047 A 
ATOM      5  C   UNL     1       6.569  -1.500   7.877  0.00  0.00    +0.021 A 
ATOM      6  C   UNL     1       6.482  -2.837   7.824  0.00  0.00    +0.048 A 
ATOM      7  S   UNL     1       5.333  -3.126   6.491  0.00  0.00    -0.077 S 
ATOM      8  C   UNL     1       5.001  -1.443   6.042  0.00  0.00    +0.114 A 
ATOM      9  N   UNL     1       4.242  -0.850   5.142  0.00  0.00    -0.215 NA
ATOM     10  N   UNL     1       6.455   1.538   7.635  0.00  0.00    -0.343 N 
ATOM     11  H   UNL     1       6.400   2.501   7.535  0.00  0.00    +0.144 HD
ATOM     12  H   UNL     1       7.027   1.153   8.317  0.00  0.00    +0.144 HD
ENDROOT
BRANCH   1  13
ATOM     13  S   UNL     1       3.197   1.239   3.838  0.00  0.00    -0.077 S 
BRANCH  13  14
ATOM     14  C   UNL     1       2.412  -0.154   2.982  0.00  0.00    +0.173 C 
BRANCH  14  22
ATOM     15  C   UNL     1      -0.017   1.526   0.009  0.00  0.00    +0.028 C 
ATOM     16  C   UNL     1       0.003  -0.004   0.001  0.00  0.00    +0.073 C 
ATOM     17  C   UNL     1      -1.426  -0.537   0.144  0.00  0.00    +0.022 C 
ATOM     18  C   UNL     1      -1.387  -2.061   0.276  0.00  0.00    +0.003 C 
ATOM     19  C   UNL     1      -0.600  -2.447   1.530  0.00  0.00    +0.019 C 
ATOM     20  C   UNL     1       0.838  -1.935   1.403  0.00  0.00    +0.108 C 
ATOM     21  N   UNL     1       0.808  -0.492   1.130  0.00  0.00    -0.298 N 
ATOM     22  C   UNL     1       1.502   0.368   1.901  0.00  0.00    +0.226 C 
ATOM     23  O   UNL     1       1.393   1.563   1.725  0.00  0.00    -0.275 OA
ENDBRANCH  14  22
ENDBRANCH  13  14
ENDBRANCH   1  13
TORSDOF 3
