REMARK  Name = ZINC50828908
REMARK  3 active torsions:
REMARK  status: ('A' for Active; 'I' for Inactive)
REMARK    1  A    between atoms: N_11  and  C_15
REMARK    2  A    between atoms: C_15  and  C_16
REMARK    3  A    between atoms: C_17  and  N_21
REMARK                            x       y       z     vdW  Elec       q    Type
REMARK                         _______ _______ _______ _____ _____    ______ ____
ROOT
ATOM      1  C   UNL     1      -0.019   1.523   0.010  0.00  0.00    +0.000 C 
ATOM      2  C   UNL     1       1.413   2.083  -0.000  0.00  0.00    +0.000 C 
ATOM      3  C   UNL     1       2.247   1.276  -1.002  0.00  0.00    +0.003 C 
ATOM      4  C   UNL     1       1.978   1.647  -2.477  0.00  0.00    +0.035 C 
ATOM      5  C   UNL     1       0.651   1.013  -2.921  0.00  0.00    +0.113 C 
ATOM      6  C   UNL     1       0.552  -0.426  -2.412  0.00  0.00    +0.035 C 
ATOM      7  C   UNL     1      -0.526  -0.534  -1.337  0.00  0.00    +0.003 C 
ATOM      8  C   UNL     1       0.002  -0.004   0.002  0.00  0.00    +0.000 C 
ATOM      9  C   UNL     1       0.789   0.896  -4.454  0.00  0.00    +0.247 C 
ATOM     10  O   UNL     1       1.446   0.072  -5.039  0.00  0.00    -0.273 OA
ATOM     11  N   UNL     1       0.037   1.893  -4.949  0.00  0.00    -0.218 N 
ATOM     12  C   UNL     1      -0.689   2.467  -3.986  0.00  0.00    +0.310 C 
ATOM     13  O   UNL     1      -1.405   3.433  -4.136  0.00  0.00    -0.252 OA
ATOM     14  N   UNL     1      -0.535   1.819  -2.801  0.00  0.00    -0.285 N 
ATOM     15  H   UNL     1      -1.222   1.886  -2.124  0.00  0.00    +0.151 HD
ENDROOT
BRANCH  11  16
ATOM     16  C   UNL     1       0.013   2.295  -6.358  0.00  0.00    +0.177 C 
BRANCH  16  17
ATOM     17  C   UNL     1      -1.052   1.514  -7.085  0.00  0.00    +0.111 A 
ATOM     18  C   UNL     1      -0.786   0.311  -7.677  0.00  0.00    +0.108 A 
ATOM     19  S   UNL     1      -2.284  -0.099  -8.319  0.00  0.00    +0.051 S 
ATOM     20  N   UNL     1      -3.157   1.241  -7.819  0.00  0.00    -0.108 NA
ATOM     21  N   UNL     1      -2.288   1.949  -7.180  0.00  0.00    -0.143 NA
BRANCH  18  22
ATOM     22  N   UNL     1       0.414  -0.392  -7.734  0.00  0.00    -0.350 N 
ATOM     23  H   UNL     1       1.209  -0.028  -7.313  0.00  0.00    +0.143 HD
ATOM     24  H   UNL     1       0.456  -1.244  -8.194  0.00  0.00    +0.143 HD
ENDBRANCH  18  22
ENDBRANCH  16  17
ENDBRANCH  11  16
TORSDOF 3
