REMARK  Name = ZINC15959860
REMARK  5 active torsions:
REMARK  status: ('A' for Active; 'I' for Inactive)
REMARK    1  A    between atoms: C_6  and  C_7
REMARK    2  A    between atoms: C_7  and  N_8
REMARK    3  A    between atoms: C_13  and  C_31
REMARK    4  A    between atoms: C_31  and  C_32
REMARK    5  A    between atoms: C_32  and  C_33
REMARK                            x       y       z     vdW  Elec       q    Type
REMARK                         _______ _______ _______ _____ _____    ______ ____
ROOT
ATOM      1  N   UNL     1      -0.900  -1.409  -1.778  0.00  0.00    -0.237 N 
ATOM      2  C   UNL     1      -2.052  -0.900  -2.229  0.00  0.00    +0.227 C 
ATOM      3  O   UNL     1      -2.878  -0.327  -1.552  0.00  0.00    -0.275 OA
ATOM      4  C   UNL     1      -2.163  -1.151  -3.716  0.00  0.00    +0.107 C 
ATOM      5  C   UNL     1      -2.079   0.194  -4.468  0.00  0.00    +0.068 C 
ATOM      6  N   UNL     1      -0.625   0.430  -4.667  0.00  0.00    -0.295 NA
ATOM      7  C   UNL     1      -0.081  -0.907  -4.969  0.00  0.00    +0.136 C 
ATOM      8  C   UNL     1      -0.843  -1.899  -4.054  0.00  0.00    +0.122 C 
ATOM      9  C   UNL     1      -0.143  -1.990  -2.716  0.00  0.00    +0.229 C 
ATOM     10  O   UNL     1       0.934  -2.510  -2.523  0.00  0.00    -0.275 OA
ATOM     11  C   UNL     1       1.401  -0.969  -4.734  0.00  0.00    +0.005 A 
ATOM     12  C   UNL     1       2.196  -0.754  -3.630  0.00  0.00    +0.027 A 
ATOM     13  C   UNL     1       3.570  -0.892  -3.728  0.00  0.00    +0.041 A 
ATOM     14  C   UNL     1       4.142  -1.245  -4.939  0.00  0.00    +0.022 A 
ATOM     15  C   UNL     1       3.349  -1.458  -6.047  0.00  0.00    +0.025 A 
ATOM     16  C   UNL     1       1.966  -1.323  -5.956  0.00  0.00    +0.039 A 
ATOM     17  N   UNL     1       0.967  -1.485  -6.920  0.00  0.00    -0.283 N 
ATOM     18  C   UNL     1      -0.263  -1.260  -6.420  0.00  0.00    +0.243 C 
ATOM     19  O   UNL     1      -1.313  -1.327  -7.022  0.00  0.00    -0.273 OA
ATOM     20 CL   UNL     1       4.574  -0.624  -2.337  0.00  0.00    -0.084 Cl
ATOM     21  H   UNL     1      -0.463   1.067  -5.433  0.00  0.00    +0.123 HD
ATOM     22  H   UNL     1       1.140  -1.731  -7.842  0.00  0.00    +0.155 HD
ENDROOT
BRANCH   1  23
ATOM     23  C   UNL     1      -0.497  -1.331  -0.372  0.00  0.00    +0.151 C 
BRANCH  23  29
ATOM     24  C   UNL     1      -0.379   1.097   0.222  0.00  0.00    +0.009 A 
ATOM     25  C   UNL     1       0.331   2.264   0.434  0.00  0.00    +0.050 A 
ATOM     26  C   UNL     1       1.708   2.276   0.281  0.00  0.00    +0.166 A 
ATOM     27  C   UNL     1       2.374   1.109  -0.087  0.00  0.00    +0.167 A 
ATOM     28  C   UNL     1       1.656  -0.057  -0.297  0.00  0.00    +0.054 A 
ATOM     29  C   UNL     1       0.282  -0.061  -0.142  0.00  0.00    -0.026 A 
ATOM     30  O   UNL     1       3.709   1.377  -0.172  0.00  0.00    -0.453 OA
ATOM     31  C   UNL     1       3.809   2.812  -0.252  0.00  0.00    +0.466 C 
ATOM     32  O   UNL     1       2.626   3.275   0.426  0.00  0.00    -0.453 OA
ENDBRANCH  23  29
ENDBRANCH   1  23
BRANCH   5  33
ATOM     33  C   UNL     1      -2.795   0.095  -5.816  0.00  0.00    +0.031 C 
BRANCH  33  34
ATOM     34  C   UNL     1      -4.249   0.542  -5.656  0.00  0.00    +0.126 C 
BRANCH  34  35
ATOM     35  C   UNL     1      -4.954   0.446  -6.985  0.00  0.00    +0.356 C 
ATOM     36  O   UNL     1      -4.349   0.055  -7.968  0.00  0.00    -0.246 OA
ATOM     37  O   UNL     1      -6.129   0.758  -7.076  0.00  0.00    -0.246 OA
ENDBRANCH  34  35
ENDBRANCH  33  34
ENDBRANCH   5  33
TORSDOF 5
