REMARK  Name = ZINC39015889
REMARK  10 active torsions:
REMARK  status: ('A' for Active; 'I' for Inactive)
REMARK    1  A    between atoms: C_1  and  C_2
REMARK    2  A    between atoms: C_5  and  N_9
REMARK    3  A    between atoms: C_10  and  C_12
REMARK    4  A    between atoms: C_12  and  S_13
REMARK    5  A    between atoms: S_13  and  C_14
REMARK    6  A    between atoms: C_18  and  C_22
REMARK    7  A    between atoms: N_20  and  N_21
REMARK    8  A    between atoms: C_25  and  C_28
REMARK    9  A    between atoms: C_31  and  O_34
REMARK   10  A    between atoms: O_34  and  C_35
REMARK                            x       y       z     vdW  Elec       q    Type
REMARK                         _______ _______ _______ _____ _____    ______ ____
ROOT
ATOM      1  C   UNL     1       0.599  -8.763   2.626  0.00  0.00    +0.214 C 
ATOM      2  N   UNL     1       1.772  -9.085   1.781  0.00  0.00    -0.228 NA
ATOM      3  N   UNL     1       1.339 -10.239   0.977  0.00  0.00    -0.234 NA
ATOM      4  C   UNL     1      -0.083  -9.927   0.680  0.00  0.00    +0.185 C 
ATOM      5  N   UNL     1      -0.586  -9.299   1.925  0.00  0.00    -0.197 NA
ATOM      6  H   UNL     1       2.017  -8.304   1.191  0.00  0.00    +0.143 HD
ATOM      7  H   UNL     1       1.879 -10.310   0.128  0.00  0.00    +0.143 HD
ENDROOT
BRANCH   4   8
ATOM      8  C   UNL     1      -0.860 -11.209   0.374  0.00  0.00    +0.187 C 
ATOM      9  C   UNL     1      -0.248 -11.937  -0.810  0.00  0.00    +0.034 C 
ATOM     10  C   UNL     1      -1.235 -11.950  -1.726  0.00  0.00    +0.091 C 
ATOM     11  N   UNL     1      -2.342 -11.330  -1.240  0.00  0.00    -0.154 NA
ATOM     12  N   UNL     1      -2.222 -10.894  -0.089  0.00  0.00    -0.176 NA
BRANCH  10  13
ATOM     13  C   UNL     1      -1.129 -12.557  -3.076  0.00  0.00    +0.002 A 
ATOM     14  C   UNL     1       0.055 -13.176  -3.472  0.00  0.00    +0.013 A 
ATOM     15  C   UNL     1       0.150 -13.740  -4.727  0.00  0.00    +0.046 A 
ATOM     16  C   UNL     1      -0.932 -13.691  -5.596  0.00  0.00    +0.120 A 
ATOM     17  C   UNL     1      -2.113 -13.076  -5.203  0.00  0.00    +0.046 A 
ATOM     18  C   UNL     1      -2.216 -12.515  -3.948  0.00  0.00    +0.013 A 
BRANCH  16  19
ATOM     19  O   UNL     1      -0.835 -14.246  -6.832  0.00  0.00    -0.495 OA
ATOM     20  C   UNL     1      -1.986 -14.161  -7.674  0.00  0.00    +0.277 C 
ENDBRANCH  16  19
ENDBRANCH  10  13
ENDBRANCH   4   8
BRANCH   5  21
ATOM     21  N   UNL     1      -1.287 -10.267   2.753  0.00  0.00    -0.264 NA
ATOM     22  H   UNL     1      -1.599  -9.848   3.616  0.00  0.00    +0.137 HD
ATOM     23  H   UNL     1      -2.060 -10.679   2.251  0.00  0.00    +0.137 HD
ENDBRANCH   5  21
BRANCH   1  24
ATOM     24  S   UNL     1       0.447  -6.965   2.820  0.00  0.00    -0.115 S 
BRANCH  24  25
ATOM     25  C   UNL     1       0.310  -6.351   1.119  0.00  0.00    +0.168 C 
BRANCH  25  27
ATOM     26  N   UNL     1       0.059  -4.170  -0.022  0.00  0.00    -0.285 N 
ATOM     27  C   UNL     1       0.176  -4.850   1.136  0.00  0.00    +0.227 C 
ATOM     28  O   UNL     1       0.174  -4.254   2.192  0.00  0.00    -0.275 OA
ATOM     29  H   UNL     1      -0.015  -4.651  -0.861  0.00  0.00    +0.155 HD
BRANCH  26  34
ATOM     30  C   UNL     1       0.008   1.503   0.012  0.00  0.00    +0.045 C 
ATOM     31  C   UNL     1       0.022  -0.004   0.003  0.00  0.00    -0.032 A 
ATOM     32  C   UNL     1       0.777  -0.693   0.934  0.00  0.00    +0.006 A 
ATOM     33  C   UNL     1       0.792  -2.074   0.928  0.00  0.00    +0.023 A 
ATOM     34  C   UNL     1       0.046  -2.771  -0.014  0.00  0.00    +0.035 A 
ATOM     35  C   UNL     1      -0.712  -2.078  -0.948  0.00  0.00    +0.043 A 
ATOM     36  C   UNL     1      -0.726  -0.695  -0.934  0.00  0.00    +0.046 A 
ATOM     37 CL   UNL     1      -1.678   0.174  -2.096  0.00  0.00    -0.083 Cl
ENDBRANCH  26  34
ENDBRANCH  25  27
ENDBRANCH  24  25
ENDBRANCH   1  24
TORSDOF 8
