REMARK  Name = ZINC39920296
REMARK  8 active torsions:
REMARK  status: ('A' for Active; 'I' for Inactive)
REMARK    1  A    between atoms: C_1  and  C_2
REMARK    2  A    between atoms: C_5  and  O_8
REMARK    3  A    between atoms: O_8  and  C_9
REMARK    4  A    between atoms: C_9  and  C_11
REMARK    5  A    between atoms: C_9  and  C_12
REMARK    6  A    between atoms: N_14  and  N_15
REMARK    7  A    between atoms: C_16  and  C_27
REMARK    8  A    between atoms: C_30  and  O_33
REMARK                            x       y       z     vdW  Elec       q    Type
REMARK                         _______ _______ _______ _____ _____    ______ ____
ROOT
ATOM      1  N   UNL     1       2.187  -7.968   2.010  0.00  0.00    -0.191 N 
ATOM      2  C   UNL     1       1.538  -9.277   2.086  0.00  0.00    +0.212 C 
ATOM      3  N   UNL     1       2.446 -10.260   2.690  0.00  0.00    -0.320 N 
ATOM      4  C   UNL     1       3.772 -10.282   2.275  0.00  0.00    +0.041 A 
ATOM      5  C   UNL     1       4.523 -11.445   2.282  0.00  0.00    +0.024 A 
ATOM      6  C   UNL     1       5.836 -11.414   1.855  0.00  0.00    +0.002 A 
ATOM      7  C   UNL     1       6.407 -10.228   1.420  0.00  0.00    +0.001 A 
ATOM      8  C   UNL     1       5.673  -9.060   1.406  0.00  0.00    +0.015 A 
ATOM      9  C   UNL     1       4.349  -9.077   1.836  0.00  0.00    +0.059 A 
ATOM     10  C   UNL     1       3.521  -7.857   1.846  0.00  0.00    +0.266 C 
ATOM     11  O   UNL     1       4.036  -6.763   1.712  0.00  0.00    -0.268 OA
ATOM     12  H   UNL     1       2.127 -10.879   3.365  0.00  0.00    +0.148 HD
ENDROOT
BRANCH   2  13
ATOM     13  C   UNL     1       1.168  -9.731   0.698  0.00  0.00    -0.008 A 
ATOM     14  C   UNL     1      -0.158  -9.954   0.375  0.00  0.00    +0.011 A 
ATOM     15  C   UNL     1      -0.500 -10.371  -0.897  0.00  0.00    +0.046 A 
ATOM     16  C   UNL     1       0.489 -10.567  -1.851  0.00  0.00    +0.117 A 
ATOM     17  C   UNL     1       1.818 -10.343  -1.524  0.00  0.00    +0.046 A 
ATOM     18  C   UNL     1       2.154  -9.921  -0.253  0.00  0.00    +0.011 A 
BRANCH  16  19
ATOM     19  O   UNL     1       0.155 -10.978  -3.102  0.00  0.00    -0.507 OA
ATOM     20  H   UNL     1      -0.021 -10.255  -3.720  0.00  0.00    +0.292 HD
ENDBRANCH  16  19
ENDBRANCH   2  13
BRANCH   1  23
ATOM     21  C   UNL     1       1.141  -6.083   0.998  0.00  0.00    +0.270 C 
ATOM     22  O   UNL     1       1.498  -6.484  -0.090  0.00  0.00    -0.270 OA
ATOM     23  N   UNL     1       1.407  -6.807   2.103  0.00  0.00    -0.227 N 
ATOM     24  H   UNL     1       1.058  -6.525   2.963  0.00  0.00    +0.173 HD
BRANCH  21  25
ATOM     25  C   UNL     1       0.402  -4.775   1.113  0.00  0.00    +0.257 C 
ATOM     26  C   UNL     1      -0.975  -5.021   1.733  0.00  0.00    +0.062 C 
BRANCH  25  27
ATOM     27  O   UNL     1       0.244  -4.201  -0.185  0.00  0.00    -0.480 OA
BRANCH  27  32
ATOM     28  C   UNL     1      -0.431   1.385  -0.446  0.00  0.00    +0.044 C 
ATOM     29  C   UNL     1      -0.251  -0.110  -0.376  0.00  0.00    -0.050 A 
ATOM     30  C   UNL     1      -0.199  -0.742   0.852  0.00  0.00    +0.007 A 
ATOM     31  C   UNL     1      -0.033  -2.112   0.919  0.00  0.00    +0.046 A 
ATOM     32  C   UNL     1       0.080  -2.853  -0.248  0.00  0.00    +0.122 A 
ATOM     33  C   UNL     1       0.027  -2.216  -1.480  0.00  0.00    +0.046 A 
ATOM     34  C   UNL     1      -0.144  -0.847  -1.541  0.00  0.00    +0.007 A 
ENDBRANCH  27  32
ENDBRANCH  25  27
ENDBRANCH  21  25
ENDBRANCH   1  23
TORSDOF 6
