REMARK  Name = ZINC20344369
REMARK  8 active torsions:
REMARK  status: ('A' for Active; 'I' for Inactive)
REMARK    1  A    between atoms: C_1  and  C_2
REMARK    2  A    between atoms: C_4  and  C_21
REMARK    3  A    between atoms: C_5  and  C_9
REMARK    4  A    between atoms: C_6  and  C_8
REMARK    5  A    between atoms: C_10  and  C_19
REMARK    6  A    between atoms: C_11  and  N_18
REMARK    7  A    between atoms: C_13  and  N_17
REMARK    8  A    between atoms: C_14  and  C_15
REMARK                            x       y       z     vdW  Elec       q    Type
REMARK                         _______ _______ _______ _____ _____    ______ ____
ROOT
ATOM      1  C   UNL     1      -2.810   1.784  -0.106  0.00  0.00    +0.105 C 
ATOM      2  C   UNL     1      -2.929   0.340  -0.455  0.00  0.00    +0.069 C 
ATOM      3  C   UNL     1      -2.124  -0.332  -1.292  0.00  0.00    +0.079 C 
ATOM      4  S   UNL     1      -0.780   0.416  -2.136  0.00  0.00    -0.058 S 
ATOM      5  C   UNL     1      -1.228   2.110  -2.041  0.00  0.00    +0.079 C 
ATOM      6  C   UNL     1      -2.106   2.589  -1.143  0.00  0.00    +0.069 C 
ENDROOT
BRANCH   1  11
ATOM      7  C   UNL     1       0.084   2.262   4.873  0.00  0.00    +0.044 C 
ATOM      8  C   UNL     1      -0.671   2.135   3.575  0.00  0.00    -0.050 A 
ATOM      9  C   UNL     1      -1.951   2.646   3.468  0.00  0.00    +0.007 A 
ATOM     10  C   UNL     1      -2.645   2.529   2.278  0.00  0.00    -0.046 A 
ATOM     11  C   UNL     1      -2.056   1.906   1.193  0.00  0.00    -0.028 A 
ATOM     12  C   UNL     1      -0.779   1.389   1.302  0.00  0.00    -0.046 A 
ATOM     13  C   UNL     1      -0.085   1.506   2.493  0.00  0.00    +0.007 A 
ATOM     14  C   UNL     1      -0.140   0.705   0.122  0.00  0.00    +0.044 C 
ATOM     15  C   UNL     1      -4.040   3.086   2.161  0.00  0.00    +0.044 C 
ENDBRANCH   1  11
BRANCH   5  16
ATOM     16  N   UNL     1      -0.654   2.990  -2.928  0.00  0.00    -0.352 N 
ATOM     17  H   UNL     1      -0.916   4.058  -2.891  0.00  0.00    +0.143 HD
ATOM     18  H   UNL     1       0.068   2.626  -3.673  0.00  0.00    +0.143 HD
ENDBRANCH   5  16
BRANCH   3  19
ATOM     19  N   UNL     1      -2.364  -1.670  -1.499  0.00  0.00    -0.352 N 
ATOM     20  H   UNL     1      -1.720  -2.244  -2.181  0.00  0.00    +0.143 HD
ATOM     21  H   UNL     1      -3.199  -2.166  -0.983  0.00  0.00    +0.143 HD
ENDBRANCH   3  19
BRANCH   6  22
ATOM     22  C   UNL     1      -2.388   3.993  -1.186  0.00  0.00    +0.098 C 
ATOM     23  N   UNL     1      -2.611   5.106  -1.220  0.00  0.00    -0.191 NA
ENDBRANCH   6  22
BRANCH   2  24
ATOM     24  C   UNL     1      -3.993  -0.397   0.157  0.00  0.00    +0.098 C 
ATOM     25  N   UNL     1      -4.838  -0.981   0.643  0.00  0.00    -0.191 NA
ENDBRANCH   2  24
TORSDOF 5
