REMARK  Name = ZINC30529875
REMARK  9 active torsions:
REMARK  status: ('A' for Active; 'I' for Inactive)
REMARK    1  A    between atoms: C_1  and  C_2
REMARK    2  A    between atoms: N_4  and  C_5
REMARK    3  A    between atoms: C_8  and  O_11
REMARK    4  A    between atoms: O_11  and  C_12
REMARK    5  A    between atoms: C_12  and  C_13
REMARK    6  A    between atoms: C_13  and  C_15
REMARK    7  A    between atoms: C_13  and  O_31
REMARK    8  A    between atoms: C_15  and  S_16
REMARK    9  A    between atoms: S_16  and  C_17
REMARK                            x       y       z     vdW  Elec       q    Type
REMARK                         _______ _______ _______ _____ _____    ______ ____
ROOT
ATOM      1  C   UNL     1       1.581  10.809  -0.573  0.00  0.00    +0.112 C 
ENDROOT
BRANCH   1   2
ATOM      2  C   UNL     1       0.259  10.281  -1.134  0.00  0.00    +0.162 C 
BRANCH   2   3
ATOM      3  O   UNL     1      -0.122  11.061  -2.269  0.00  0.00    -0.388 OA
ATOM      4  H   UNL     1      -0.292  12.143  -2.160  0.00  0.00    +0.210 HD
ENDBRANCH   2   3
BRANCH   2   5
ATOM      5  C   UNL     1       0.431   8.820  -1.555  0.00  0.00    +0.261 C 
BRANCH   5   6
ATOM      6  O   UNL     1      -0.830   8.292  -1.970  0.00  0.00    -0.489 OA
BRANCH   6  10
ATOM      7  C   UNL     1      -0.898   4.355  -3.211  0.00  0.00    +0.034 A 
ATOM      8  C   UNL     1       0.293   4.930  -2.789  0.00  0.00    +0.027 A 
ATOM      9  C   UNL     1       0.316   6.248  -2.380  0.00  0.00    +0.047 A 
ATOM     10  C   UNL     1      -0.853   6.995  -2.379  0.00  0.00    +0.121 A 
ATOM     11  C   UNL     1      -2.044   6.420  -2.795  0.00  0.00    +0.047 A 
ATOM     12  C   UNL     1      -2.068   5.103  -3.210  0.00  0.00    +0.027 A 
BRANCH   7  16
ATOM     13  C   UNL     1       0.168   1.026  -4.612  0.00  0.00    +0.109 C 
ATOM     14  C   UNL     1       0.146   2.492  -4.262  0.00  0.00    +0.214 C 
ATOM     15  O   UNL     1       1.088   3.199  -4.554  0.00  0.00    -0.276 OA
ATOM     16  N   UNL     1      -0.922   3.019  -3.631  0.00  0.00    -0.286 N 
ATOM     17  H   UNL     1      -1.812   2.399  -3.446  0.00  0.00    +0.155 HD
ENDBRANCH   7  16
ENDBRANCH   6  10
ENDBRANCH   5   6
ENDBRANCH   2   5
ENDBRANCH   1   2
BRANCH   1  18
ATOM     18  S   UNL     1       1.340  12.487   0.060  0.00  0.00    -0.083 S 
BRANCH  18  19
ATOM     19  C   UNL     1       2.971  12.837   0.628  0.00  0.00    +0.191 A 
ATOM     20  N   UNL     1       3.920  11.917   0.493  0.00  0.00    -0.207 NA
ATOM     21  C   UNL     1       5.161  12.122   0.899  0.00  0.00    +0.129 A 
ATOM     22  C   UNL     1       5.498  13.366   1.503  0.00  0.00    +0.051 A 
ATOM     23  C   UNL     1       6.794  13.809   2.023  0.00  0.00    -0.025 A 
ATOM     24  C   UNL     1       6.850  15.049   2.550  0.00  0.00    -0.004 A 
ATOM     25  S   UNL     1       5.206  15.694   2.391  0.00  0.00    -0.073 S 
ATOM     26  C   UNL     1       4.444  14.294   1.613  0.00  0.00    +0.115 A 
ATOM     27  N   UNL     1       3.230  14.016   1.178  0.00  0.00    -0.215 NA
ATOM     28  C   UNL     1       8.045  15.730   3.144  0.00  0.00    +0.043 C 
ATOM     29  C   UNL     1       9.126  14.671   3.406  0.00  0.00    +0.005 C 
ATOM     30  C   UNL     1       9.276  13.803   2.153  0.00  0.00    +0.005 C 
ATOM     31  C   UNL     1       8.037  12.924   1.979  0.00  0.00    +0.037 C 
ATOM     32  N   UNL     1       6.120  11.139   0.740  0.00  0.00    -0.343 N 
ATOM     33  H   UNL     1       7.151  11.316   1.081  0.00  0.00    +0.144 HD
ATOM     34  H   UNL     1       5.853  10.180   0.273  0.00  0.00    +0.144 HD
ENDBRANCH  18  19
ENDBRANCH   1  18
TORSDOF 8
