REMARK  Name = ZINC37340218
REMARK  6 active torsions:
REMARK  status: ('A' for Active; 'I' for Inactive)
REMARK    1  A    between atoms: C_1  and  N_2
REMARK    2  A    between atoms: N_2  and  C_3
REMARK    3  A    between atoms: N_2  and  C_14
REMARK    4  A    between atoms: C_3  and  C_4
REMARK    5  A    between atoms: C_4  and  C_6
REMARK    6  A    between atoms: C_8  and  N_11
REMARK                            x       y       z     vdW  Elec       q    Type
REMARK                         _______ _______ _______ _____ _____    ______ ____
ROOT
ATOM      1  C   UNL     1       0.727  -0.381   1.223  0.00  0.00    +0.004 C 
ENDROOT
BRANCH   1   3
ATOM      2  C   UNL     1       0.032   1.456  -0.154  0.00  0.00    -0.095 C 
ATOM      3  N   UNL     1       0.002  -0.004   0.002  0.00  0.00    +0.385 N 
ATOM      4  H   UNL     1       0.441  -0.437  -0.797  0.00  0.00    -0.081 HD
BRANCH   3   5
ATOM      5  C   UNL     1      -1.392  -0.457   0.100  0.00  0.00    -0.068 C 
ATOM      6  C   UNL     1      -2.086  -0.235  -1.260  0.00  0.00    -0.015 C 
ATOM      7  C   UNL     1      -3.293  -1.131  -1.332  0.00  0.00    -0.002 C 
ATOM      8  C   UNL     1      -4.583  -0.418  -0.881  0.00  0.00    -0.000 C 
ATOM      9  C   UNL     1      -4.374   0.462   0.366  0.00  0.00    -0.000 C 
ATOM     10  C   UNL     1      -3.502  -0.200   1.399  0.00  0.00    -0.002 C 
ATOM     11  C   UNL     1      -2.047   0.263   1.181  0.00  0.00    -0.015 C 
ENDBRANCH   3   5
ENDBRANCH   1   3
BRANCH   1  12
ATOM     12  C   UNL     1       2.192  -0.074   1.053  0.00  0.00    +0.165 C 
ATOM     13  O   UNL     1       2.594   0.412   0.015  0.00  0.00    -0.292 OA
BRANCH  12  14
ATOM     14  C   UNL     1       3.099  -0.352   2.101  0.00  0.00    +0.106 A 
ATOM     15  C   UNL     1       4.463  -0.119   2.088  0.00  0.00    +0.065 A 
ATOM     16  C   UNL     1       4.960  -0.541   3.322  0.00  0.00    +0.146 A 
ATOM     17  C   UNL     1       3.918  -1.012   4.052  0.00  0.00    +0.144 A 
ATOM     18  N   UNL     1       2.786  -0.899   3.327  0.00  0.00    -0.250 NA
BRANCH  16  19
ATOM     19  N   UNL     1       6.373  -0.483   3.758  0.00  0.00    +0.058 N 
ATOM     20  O   UNL     1       7.217  -0.039   3.016  0.00  0.00    -0.126 OA
ATOM     21  O   UNL     1       6.683  -0.880   4.857  0.00  0.00    -0.126 OA
ENDBRANCH  16  19
ENDBRANCH  12  14
ENDBRANCH   1  12
TORSDOF 5
