REMARK  Name = ZINC50584506
REMARK  7 active torsions:
REMARK  status: ('A' for Active; 'I' for Inactive)
REMARK    1  A    between atoms: C_4  and  N_22
REMARK    2  A    between atoms: C_6  and  C_7
REMARK    3  A    between atoms: C_7  and  N_8
REMARK    4  A    between atoms: C_9  and  C_11
REMARK    5  A    between atoms: C_11  and  N_12
REMARK    6  A    between atoms: N_15  and  C_16
REMARK    7  A    between atoms: C_16  and  C_17
REMARK                            x       y       z     vdW  Elec       q    Type
REMARK                         _______ _______ _______ _____ _____    ______ ____
ROOT
ATOM      1  N   UNL     1      -1.699  -1.012  -1.431  0.00  0.00    -0.310 N 
ATOM      2  C   UNL     1      -2.829  -1.698  -1.694  0.00  0.00    +0.231 C 
ATOM      3  O   UNL     1      -3.500  -2.133  -0.783  0.00  0.00    -0.274 OA
ATOM      4  H   UNL     1      -1.161  -0.664  -2.160  0.00  0.00    +0.149 HD
ENDROOT
BRANCH   1   5
ATOM      5  C   UNL     1      -1.283  -0.791  -0.044  0.00  0.00    +0.139 C 
BRANCH   5  11
ATOM      6  C   UNL     1      -0.017   1.384   0.010  0.00  0.00    +0.023 A 
ATOM      7  C   UNL     1       1.178   2.076   0.028  0.00  0.00    +0.084 A 
ATOM      8  N   UNL     1       2.331   1.436   0.013  0.00  0.00    -0.350 N 
ATOM      9  C   UNL     1       2.391   0.113  -0.021  0.00  0.00    +0.099 A 
ATOM     10  C   UNL     1       1.226  -0.647  -0.041  0.00  0.00    +0.047 A 
ATOM     11  C   UNL     1       0.002  -0.004  -0.024  0.00  0.00    -0.026 A 
ATOM     12  H   UNL     1       3.156   1.946   0.026  0.00  0.00    +0.166 HD
BRANCH   9  13
ATOM     13  N   UNL     1       3.628  -0.520  -0.036  0.00  0.00    -0.317 N 
ATOM     14  C   UNL     1       4.867   0.261  -0.148  0.00  0.00    +0.106 C 
ATOM     15  C   UNL     1       5.799  -0.125   1.006  0.00  0.00    +0.019 C 
ATOM     16  C   UNL     1       6.008  -1.641   1.002  0.00  0.00    +0.003 C 
ATOM     17  C   UNL     1       4.665  -2.344   1.210  0.00  0.00    +0.019 C 
ATOM     18  C   UNL     1       3.721  -1.983   0.065  0.00  0.00    +0.106 C 
ENDBRANCH   9  13
ENDBRANCH   5  11
ENDBRANCH   1   5
BRANCH   2  19
ATOM     19  C   UNL     1      -3.257  -1.926  -3.121  0.00  0.00    +0.201 C 
BRANCH  19  20
ATOM     20  N   UNL     1      -4.505  -2.691  -3.140  0.00  0.00    -0.291 N 
ATOM     21  C   UNL     1      -5.080  -3.014  -4.316  0.00  0.00    +0.300 C 
ATOM     22  O   UNL     1      -4.562  -2.671  -5.361  0.00  0.00    -0.253 OA
ATOM     23  N   UNL     1      -6.229  -3.719  -4.334  0.00  0.00    -0.299 N 
ATOM     24  H   UNL     1      -4.919  -2.966  -2.307  0.00  0.00    +0.151 HD
ATOM     25  H   UNL     1      -6.642  -3.993  -3.500  0.00  0.00    +0.150 HD
BRANCH  23  26
ATOM     26  C   UNL     1      -6.853  -4.070  -5.612  0.00  0.00    +0.109 C 
BRANCH  26  27
ATOM     27  C   UNL     1      -8.136  -4.863  -5.352  0.00  0.00    +0.006 C 
ATOM     28  C   UNL     1      -7.792  -6.242  -4.752  0.00  0.00    +0.005 C 
ATOM     29  C   UNL     1      -8.825  -7.203  -5.391  0.00  0.00    +0.000 C 
ATOM     30  C   UNL     1      -8.943  -6.664  -6.838  0.00  0.00    +0.000 C 
ATOM     31  C   UNL     1      -8.867  -5.131  -6.678  0.00  0.00    +0.005 C 
ENDBRANCH  26  27
ENDBRANCH  23  26
ENDBRANCH  19  20
ENDBRANCH   2  19
TORSDOF 7
