REMARK  Name = ZINC33699198
REMARK  8 active torsions:
REMARK  status: ('A' for Active; 'I' for Inactive)
REMARK    1  A    between atoms: C_1  and  O_2
REMARK    2  A    between atoms: O_2  and  C_3
REMARK    3  A    between atoms: C_6  and  C_9
REMARK    4  A    between atoms: C_14  and  O_41
REMARK    5  A    between atoms: C_15  and  O_40
REMARK    6  A    between atoms: C_26  and  C_32
REMARK    7  A    between atoms: C_35  and  O_38
REMARK    8  A    between atoms: O_38  and  C_39
REMARK                            x       y       z     vdW  Elec       q    Type
REMARK                         _______ _______ _______ _____ _____    ______ ____
ROOT
ATOM      1  C   UNL     1       1.055   3.357   0.305  0.00  0.00    +0.061 C 
ATOM      2  C   UNL     1       1.590   1.938   0.402  0.00  0.00    +0.006 A 
ATOM      3  C   UNL     1       0.691   0.913   0.644  0.00  0.00    +0.011 A 
ATOM      4  C   UNL     1       1.126  -0.395   0.717  0.00  0.00    +0.050 A 
ATOM      5  C   UNL     1       2.471  -0.688   0.546  0.00  0.00    +0.162 A 
ATOM      6  C   UNL     1       3.377   0.337   0.309  0.00  0.00    +0.201 A 
ATOM      7  C   UNL     1       2.937   1.659   0.242  0.00  0.00    +0.172 A 
ATOM      8  O   UNL     1       3.879   2.632   0.032  0.00  0.00    -0.464 OA
ATOM      9  C   UNL     1       3.452   3.946   0.402  0.00  0.00    +0.186 C 
ATOM     10  C   UNL     1       2.144   4.188  -0.338  0.00  0.00    +0.064 C 
ATOM     11  C   UNL     1       1.886   5.654  -0.555  0.00  0.00    +0.010 C 
ATOM     12  C   UNL     1       2.921   6.210  -1.564  0.00  0.00    +0.001 C 
ATOM     13  C   UNL     1       4.274   5.495  -1.396  0.00  0.00    +0.011 C 
ATOM     14  C   UNL     1       4.424   5.050   0.029  0.00  0.00    +0.077 C 
ATOM     15  C   UNL     1       5.797   4.743   0.569  0.00  0.00    +0.111 C 
ATOM     16  N   UNL     1       5.640   4.535   2.023  0.00  0.00    -0.319 N 
ATOM     17  C   UNL     1       4.453   4.232   2.572  0.00  0.00    +0.134 C 
ATOM     18  S   UNL     1       4.355   4.163   4.280  0.00  0.00    -0.019 S 
ATOM     19  N   UNL     1       3.329   3.978   1.864  0.00  0.00    -0.289 N 
ATOM     20  H   UNL     1       6.510   4.627   2.690  0.00  0.00    +0.148 HD
ATOM     21  H   UNL     1       2.353   3.800   2.338  0.00  0.00    +0.151 HD
ENDROOT
BRANCH   1  25
ATOM     22  C   UNL     1       0.174   4.858   4.208  0.00  0.00    +0.120 A 
ATOM     23  C   UNL     1       0.182   5.717   3.119  0.00  0.00    +0.046 A 
ATOM     24  C   UNL     1       0.467   5.229   1.858  0.00  0.00    +0.008 A 
ATOM     25  C   UNL     1       0.744   3.886   1.682  0.00  0.00    -0.039 A 
ATOM     26  C   UNL     1       0.731   3.027   2.765  0.00  0.00    +0.008 A 
ATOM     27  C   UNL     1       0.452   3.511   4.028  0.00  0.00    +0.046 A 
BRANCH  22  29
ATOM     28  C   UNL     1      -0.096   4.393   6.524  0.00  0.00    +0.277 C 
ATOM     29  O   UNL     1      -0.106   5.335   5.450  0.00  0.00    -0.495 OA
ENDBRANCH  22  29
ENDBRANCH   1  25
BRANCH  15  30
ATOM     30  C   UNL     1       6.340   3.494  -0.077  0.00  0.00    -0.027 A 
ATOM     31  C   UNL     1       6.688   3.505  -1.415  0.00  0.00    +0.009 A 
ATOM     32  C   UNL     1       7.191   2.364  -2.009  0.00  0.00    +0.046 A 
ATOM     33  C   UNL     1       7.336   1.203  -1.264  0.00  0.00    +0.120 A 
ATOM     34  C   UNL     1       6.981   1.192   0.077  0.00  0.00    +0.046 A 
ATOM     35  C   UNL     1       6.483   2.338   0.667  0.00  0.00    +0.009 A 
BRANCH  33  36
ATOM     36  O   UNL     1       7.825   0.077  -1.847  0.00  0.00    -0.495 OA
ATOM     37  C   UNL     1       8.171   0.160  -3.231  0.00  0.00    +0.277 C 
ENDBRANCH  33  36
ENDBRANCH  15  30
BRANCH   6  38
ATOM     38  O   UNL     1       4.697   0.052   0.142  0.00  0.00    -0.501 OA
ATOM     39  H   UNL     1       5.415   0.863  -0.046  0.00  0.00    +0.292 HD
ENDBRANCH   6  38
BRANCH   5  40
ATOM     40  O   UNL     1       2.902  -1.976   0.612  0.00  0.00    -0.503 OA
ATOM     41  H   UNL     1       3.969  -2.206   0.476  0.00  0.00    +0.292 HD
ENDBRANCH   5  40
TORSDOF 6
