REMARK  Name = ZINC08845171
REMARK  10 active torsions:
REMARK  status: ('A' for Active; 'I' for Inactive)
REMARK    1  A    between atoms: C_1  and  C_2
REMARK    2  A    between atoms: C_4  and  O_33
REMARK    3  A    between atoms: C_5  and  C_9
REMARK    4  A    between atoms: N_17  and  C_30
REMARK    5  A    between atoms: C_18  and  C_20
REMARK    6  A    between atoms: C_22  and  O_28
REMARK    7  A    between atoms: C_23  and  O_27
REMARK    8  A    between atoms: O_28  and  C_29
REMARK    9  A    between atoms: C_30  and  C_31
REMARK   10  A    between atoms: C_31  and  O_32
REMARK                            x       y       z     vdW  Elec       q    Type
REMARK                         _______ _______ _______ _____ _____    ______ ____
ROOT
ATOM      1  C   UNL     1       0.132  -3.930   0.003  0.00  0.00    +0.102 A 
ATOM      2  C   UNL     1       0.187  -4.873   1.035  0.00  0.00    +0.035 A 
ATOM      3  C   UNL     1       0.127  -6.108   0.419  0.00  0.00    +0.126 A 
ATOM      4  N   UNL     1       0.041  -5.861  -0.922  0.00  0.00    -0.272 N 
ATOM      5  H   UNL     1      -0.015  -6.540  -1.611  0.00  0.00    +0.189 HD
ATOM      6  N   UNL     1       0.041  -4.593  -1.133  0.00  0.00    -0.173 NA
ATOM      7  C   UNL     1       0.180  -7.148   1.453  0.00  0.00    +0.266 C 
ATOM      8  O   UNL     1       0.148  -8.344   1.237  0.00  0.00    -0.268 OA
ATOM      9  N   UNL     1       0.270  -6.590   2.674  0.00  0.00    -0.283 N 
ATOM     10  C   UNL     1       0.282  -5.130   2.514  0.00  0.00    +0.141 C 
ENDROOT
BRANCH   1  15
ATOM     11  C   UNL     1       0.257   1.800   0.612  0.00  0.00    +0.045 C 
ATOM     12  C   UNL     1       0.224   0.302   0.450  0.00  0.00    -0.029 A 
ATOM     13  C   UNL     1      -0.009  -0.250  -0.795  0.00  0.00    +0.050 A 
ATOM     14  C   UNL     1      -0.040  -1.627  -0.949  0.00  0.00    +0.126 A 
ATOM     15  C   UNL     1       0.165  -2.454   0.159  0.00  0.00    +0.045 A 
ATOM     16  C   UNL     1       0.399  -1.888   1.409  0.00  0.00    +0.034 A 
ATOM     17  C   UNL     1       0.433  -0.514   1.548  0.00  0.00    +0.045 A 
ATOM     18 CL   UNL     1       0.732   0.191   3.107  0.00  0.00    -0.083 Cl
BRANCH  14  19
ATOM     19  O   UNL     1      -0.270  -2.170  -2.173  0.00  0.00    -0.506 OA
ATOM     20  H   UNL     1       0.532  -2.330  -2.689  0.00  0.00    +0.292 HD
ENDBRANCH  14  19
ENDBRANCH   1  15
BRANCH  10  21
ATOM     21  C   UNL     1      -0.900  -4.522   3.223  0.00  0.00    -0.018 A 
ATOM     22  C   UNL     1      -2.158  -5.077   3.070  0.00  0.00    +0.055 A 
ATOM     23  C   UNL     1      -3.246  -4.519   3.721  0.00  0.00    +0.163 A 
ATOM     24  C   UNL     1      -3.070  -3.399   4.529  0.00  0.00    +0.173 A 
ATOM     25  C   UNL     1      -1.808  -2.848   4.679  0.00  0.00    +0.063 A 
ATOM     26  C   UNL     1      -0.725  -3.413   4.029  0.00  0.00    +0.025 A 
ATOM     27 BR   UNL     1      -1.564  -1.327   5.776  0.00  0.00    -0.046 Br
BRANCH  24  28
ATOM     28  O   UNL     1      -4.136  -2.848   5.170  0.00  0.00    -0.503 OA
ATOM     29  H   UNL     1      -4.297  -3.213   6.050  0.00  0.00    +0.292 HD
ENDBRANCH  24  28
BRANCH  23  30
ATOM     30  O   UNL     1      -4.483  -5.063   3.570  0.00  0.00    -0.491 OA
ATOM     31  C   UNL     1      -4.567  -6.293   2.847  0.00  0.00    +0.277 C 
ENDBRANCH  23  30
ENDBRANCH  10  21
BRANCH   9  32
ATOM     32  C   UNL     1       0.343  -7.315   3.945  0.00  0.00    +0.137 C 
BRANCH  32  33
ATOM     33  C   UNL     1       1.808  -7.589   4.292  0.00  0.00    +0.175 C 
BRANCH  33  34
ATOM     34  O   UNL     1       2.482  -6.350   4.524  0.00  0.00    -0.393 OA
ATOM     35  H   UNL     1       3.417  -6.448   4.750  0.00  0.00    +0.209 HD
ENDBRANCH  33  34
ENDBRANCH  32  33
ENDBRANCH   9  32
TORSDOF 8
