REMARK  Name = ZINC36772003
REMARK  7 active torsions:
REMARK  status: ('A' for Active; 'I' for Inactive)
REMARK    1  A    between atoms: C_1  and  C_2
REMARK    2  A    between atoms: C_15  and  C_17
REMARK    3  A    between atoms: C_17  and  O_18
REMARK    4  A    between atoms: O_18  and  C_19
REMARK    5  A    between atoms: C_19  and  C_21
REMARK    6  A    between atoms: C_21  and  N_22
REMARK    7  A    between atoms: C_23  and  C_25
REMARK                            x       y       z     vdW  Elec       q    Type
REMARK                         _______ _______ _______ _____ _____    ______ ____
ROOT
ATOM      1  O   UNL     1      -0.177  -1.912   4.442  0.00  0.00    -0.454 OA
ENDROOT
BRANCH   1   2
ATOM      2  C   UNL     1       0.323  -2.388   5.593  0.00  0.00    +0.325 C 
ATOM      3  O   UNL     1       1.518  -2.418   5.766  0.00  0.00    -0.249 OA
BRANCH   2   4
ATOM      4  C   UNL     1      -0.607  -2.883   6.671  0.00  0.00    +0.224 C 
BRANCH   4   5
ATOM      5  N   UNL     1       0.178  -3.346   7.818  0.00  0.00    -0.304 N 
ATOM      6  C   UNL     1      -0.445  -3.835   8.908  0.00  0.00    +0.220 C 
ATOM      7  O   UNL     1      -1.656  -3.893   8.939  0.00  0.00    -0.275 OA
ATOM      8  H   UNL     1       1.147  -3.300   7.793  0.00  0.00    +0.149 HD
BRANCH   6   9
ATOM      9  C   UNL     1       0.362  -4.311  10.088  0.00  0.00    +0.048 C 
ATOM     10  C   UNL     1       1.202  -3.154  10.632  0.00  0.00    +0.019 C 
ATOM     11  C   UNL     1       2.022  -3.638  11.829  0.00  0.00    -0.009 C 
ATOM     12  C   UNL     1       1.079  -4.141  12.924  0.00  0.00    +0.007 C 
ATOM     13  C   UNL     1       0.238  -5.298  12.380  0.00  0.00    -0.009 C 
ATOM     14  C   UNL     1      -0.581  -4.814  11.182  0.00  0.00    +0.019 C 
ATOM     15  C   UNL     1       1.162  -6.436  11.940  0.00  0.00    +0.007 C 
ATOM     16  C   UNL     1       2.106  -5.933  10.846  0.00  0.00    -0.009 C 
ATOM     17  C   UNL     1       2.946  -4.775  11.390  0.00  0.00    +0.007 C 
ATOM     18  C   UNL     1       1.286  -5.449   9.648  0.00  0.00    +0.019 C 
ENDBRANCH   6   9
ENDBRANCH   4   5
ENDBRANCH   2   4
ENDBRANCH   1   2
BRANCH   1  19
ATOM     19  C   UNL     1       0.762  -1.460   3.464  0.00  0.00    +0.328 C 
BRANCH  19  33
ATOM     20  C   UNL     1      -0.019   1.526   0.010  0.00  0.00    +0.029 C 
ATOM     21  C   UNL     1       0.002  -0.004   0.002  0.00  0.00    +0.087 C 
ATOM     22  C   UNL     1       0.715  -0.496  -1.259  0.00  0.00    +0.118 C 
ATOM     23  C   UNL     1       1.097  -1.944  -1.106  0.00  0.00    +0.219 C 
ATOM     24  O   UNL     1       0.459  -2.800  -1.683  0.00  0.00    -0.275 OA
ATOM     25  N   UNL     1       2.146  -2.297  -0.332  0.00  0.00    -0.284 N 
ATOM     26  C   UNL     1       2.832  -1.333   0.416  0.00  0.00    +0.055 A 
ATOM     27  C   UNL     1       4.214  -1.255   0.377  0.00  0.00    +0.025 A 
ATOM     28  C   UNL     1       4.871  -0.309   1.143  0.00  0.00    +0.002 A 
ATOM     29  C   UNL     1       4.154   0.557   1.947  0.00  0.00    +0.002 A 
ATOM     30  C   UNL     1       2.773   0.492   1.984  0.00  0.00    +0.025 A 
ATOM     31  C   UNL     1       2.107  -0.445   1.211  0.00  0.00    +0.058 A 
ATOM     32  N   UNL     1       0.707  -0.488   1.190  0.00  0.00    -0.264 N 
ATOM     33  C   UNL     1       0.022  -0.966   2.248  0.00  0.00    +0.258 C 
ATOM     34  O   UNL     1      -1.190  -0.998   2.221  0.00  0.00    -0.271 OA
ATOM     35  H   UNL     1       2.425  -3.225  -0.293  0.00  0.00    +0.155 HD
ENDBRANCH  19  33
ENDBRANCH   1  19
TORSDOF 6
