REMARK  Name = ZINC12420082
REMARK  8 active torsions:
REMARK  status: ('A' for Active; 'I' for Inactive)
REMARK    1  A    between atoms: C_1  and  C_2
REMARK    2  A    between atoms: C_2  and  C_3
REMARK    3  A    between atoms: C_3  and  C_4
REMARK    4  A    between atoms: C_4  and  N_5
REMARK    5  A    between atoms: C_15  and  C_28
REMARK    6  A    between atoms: C_16  and  N_27
REMARK    7  A    between atoms: C_23  and  C_25
REMARK    8  A    between atoms: C_23  and  C_26
REMARK                            x       y       z     vdW  Elec       q    Type
REMARK                         _______ _______ _______ _____ _____    ______ ____
ROOT
ATOM      1  N   UNL     1      -2.542   3.627   0.047  0.00  0.00    -0.270 N 
ATOM      2  C   UNL     1      -1.233   3.180   0.032  0.00  0.00    +0.041 A 
ATOM      3  C   UNL     1      -0.046   3.914   0.024  0.00  0.00    +0.024 A 
ATOM      4  C   UNL     1       1.141   3.199   0.008  0.00  0.00    +0.002 A 
ATOM      5  C   UNL     1       1.163   1.819   0.001  0.00  0.00    +0.000 A 
ATOM      6  C   UNL     1      -0.013   1.076   0.008  0.00  0.00    +0.007 A 
ATOM      7  C   UNL     1      -1.197   1.780   0.017  0.00  0.00    -0.001 A 
ATOM      8  C   UNL     1      -2.623   1.323   0.033  0.00  0.00    +0.144 C 
ATOM      9  C   UNL     1      -3.426   2.608   0.050  0.00  0.00    +0.240 C 
ATOM     10  O   UNL     1      -4.635   2.702   0.064  0.00  0.00    -0.274 OA
ATOM     11  C   UNL     1      -2.945   0.532  -1.201  0.00  0.00    +0.110 C 
ATOM     12  C   UNL     1      -3.090  -0.814  -1.129  0.00  0.00    +0.199 C 
ATOM     13  O   UNL     1      -2.946  -1.471   0.032  0.00  0.00    -0.445 OA
ATOM     14  C   UNL     1      -3.071  -0.815   1.201  0.00  0.00    +0.116 C 
ATOM     15  C   UNL     1      -2.919   0.521   1.273  0.00  0.00    +0.058 C 
ATOM     16  C   UNL     1      -3.028   1.204   2.500  0.00  0.00    +0.165 C 
ATOM     17  O   UNL     1      -2.898   2.412   2.523  0.00  0.00    -0.292 OA
ATOM     18  C   UNL     1      -3.303   0.466   3.781  0.00  0.00    +0.086 C 
ATOM     19  C   UNL     1      -2.751  -0.959   3.661  0.00  0.00    -0.021 C 
ATOM     20  C   UNL     1      -3.386  -1.622   2.438  0.00  0.00    +0.081 C 
ATOM     21  C   UNL     1      -1.232  -0.909   3.488  0.00  0.00    +0.012 C 
ATOM     22  C   UNL     1      -3.099  -1.753   4.921  0.00  0.00    +0.012 C 
ENDROOT
BRANCH  12  23
ATOM     23  N   UNL     1      -3.392  -1.520  -2.267  0.00  0.00    -0.328 N 
ATOM     24  H   UNL     1      -3.498  -2.483  -2.227  0.00  0.00    +0.145 HD
ATOM     25  H   UNL     1      -3.498  -1.055  -3.112  0.00  0.00    +0.145 HD
ENDBRANCH  12  23
BRANCH  11  26
ATOM     26  C   UNL     1      -3.100   1.201  -2.458  0.00  0.00    +0.102 C 
ATOM     27  N   UNL     1      -3.223   1.731  -3.455  0.00  0.00    -0.191 NA
ENDBRANCH  11  26
BRANCH   1  28
ATOM     28  C   UNL     1      -2.924   5.042   0.059  0.00  0.00    +0.114 C 
BRANCH  28  29
ATOM     29  C   UNL     1      -3.071   5.542  -1.379  0.00  0.00    +0.019 C 
BRANCH  29  31
ATOM     30  C   UNL     1      -3.617   7.519  -2.806  0.00  0.00    +0.004 C 
ATOM     31  C   UNL     1      -3.470   7.019  -1.367  0.00  0.00    -0.002 C 
ENDBRANCH  29  31
ENDBRANCH  28  29
ENDBRANCH   1  28
TORSDOF 5
