REMARK  Name = ZINC20595708
REMARK  5 active torsions:
REMARK  status: ('A' for Active; 'I' for Inactive)
REMARK    1  A    between atoms: C_3  and  O_11
REMARK    2  A    between atoms: C_6  and  C_7
REMARK    3  A    between atoms: O_11  and  C_12
REMARK    4  A    between atoms: C_15  and  N_16
REMARK    5  A    between atoms: C_15  and  N_17
REMARK                            x       y       z     vdW  Elec       q    Type
REMARK                         _______ _______ _______ _____ _____    ______ ____
ROOT
ATOM      1  C   UNL     1       4.767   1.450   0.444  0.00  0.00    +0.191 C 
ATOM      2  C   UNL     1       5.910   2.208   0.273  0.00  0.00    +0.074 C 
ATOM      3  C   UNL     1       7.158   1.581   0.340  0.00  0.00    +0.024 C 
ATOM      4  C   UNL     1       8.401   2.357   0.162  0.00  0.00    +0.168 C 
ATOM      5  C   UNL     1       7.207   0.194   0.581  0.00  0.00    +0.027 C 
ATOM      6  C   UNL     1       6.052  -0.498   0.742  0.00  0.00    +0.075 C 
ATOM      7  N   UNL     1       4.858   0.124   0.679  0.00  0.00    -0.292 N 
ATOM      8  H   UNL     1       4.046  -0.393   0.801  0.00  0.00    +0.154 HD
ENDROOT
BRANCH   4   9
ATOM      9  N   UNL     1       8.349   3.745   0.081  0.00  0.00    -0.340 N 
ATOM     10  H   UNL     1       7.495   4.203   0.141  0.00  0.00    +0.144 HD
ATOM     11  H   UNL     1       9.165   4.255  -0.036  0.00  0.00    +0.144 HD
ENDBRANCH   4   9
BRANCH   4  12
ATOM     12  N   UNL     1       9.547   1.742   0.081  0.00  0.00    -0.015 NA
ATOM     13  O   UNL     1       9.584   0.526   0.036  0.00  0.00    -0.142 OA
ENDBRANCH   4  12
BRANCH   1  14
ATOM     14  O   UNL     1       3.554   2.040   0.383  0.00  0.00    -0.442 OA
BRANCH  14  17
ATOM     15  C   UNL     1       2.518   1.542   3.835  0.00  0.00    +0.016 A 
ATOM     16  C   UNL     1       3.280   1.498   2.683  0.00  0.00    +0.047 A 
ATOM     17  C   UNL     1       2.806   2.082   1.517  0.00  0.00    +0.130 A 
ATOM     18  C   UNL     1       1.569   2.710   1.511  0.00  0.00    +0.047 A 
ATOM     19  C   UNL     1       0.811   2.752   2.665  0.00  0.00    +0.016 A 
ATOM     20  C   UNL     1       1.285   2.169   3.826  0.00  0.00    +0.055 A 
BRANCH  20  21
ATOM     21  C   UNL     1       0.457   2.216   5.084  0.00  0.00    +0.417 C 
ATOM     22  F   UNL     1       0.776   3.368   5.810  0.00  0.00    -0.166 F 
ATOM     23  F   UNL     1      -0.901   2.237   4.748  0.00  0.00    -0.166 F 
ATOM     24  F   UNL     1       0.726   1.085   5.862  0.00  0.00    -0.166 F 
ENDBRANCH  20  21
ENDBRANCH  14  17
ENDBRANCH   1  14
TORSDOF 5
