REMARK  Name = ZINC08849806
REMARK  6 active torsions:
REMARK  status: ('A' for Active; 'I' for Inactive)
REMARK    1  A    between atoms: C_1  and  C_2
REMARK    2  A    between atoms: C_2  and  O_3
REMARK    3  A    between atoms: O_3  and  C_4
REMARK    4  A    between atoms: C_9  and  N_10
REMARK    5  A    between atoms: C_11  and  C_13
REMARK    6  A    between atoms: C_26  and  C_29
REMARK                            x       y       z     vdW  Elec       q    Type
REMARK                         _______ _______ _______ _____ _____    ______ ____
ROOT
ATOM      1  N   UNL     1      -2.461   1.513   0.022  0.00  0.00    -0.278 N 
ATOM      2  C   UNL     1      -1.374   2.062  -0.557  0.00  0.00    +0.250 C 
ATOM      3  O   UNL     1      -1.452   3.158  -1.079  0.00  0.00    -0.270 OA
ATOM      4  H   UNL     1      -2.420   0.607   0.367  0.00  0.00    +0.155 HD
ENDROOT
BRANCH   2   5
ATOM      5  C   UNL     1      -0.093   1.336  -0.556  0.00  0.00    +0.051 C 
ATOM      6  C   UNL     1       1.019   1.882  -1.148  0.00  0.00    +0.089 C 
ATOM      7  N   UNL     1       2.211   1.228  -1.167  0.00  0.00    -0.288 N 
ATOM      8  C   UNL     1       3.293   1.908  -1.886  0.00  0.00    +0.136 C 
ATOM      9  C   UNL     1       4.633   1.690  -1.177  0.00  0.00    +0.212 C 
ATOM     10  S   UNL     1       4.894  -0.110  -1.077  0.00  0.00    +0.073 S 
ATOM     11  O   UNL     1       5.877  -0.415  -0.098  0.00  0.00    -0.151 OA
ATOM     12  O   UNL     1       4.962  -0.675  -2.380  0.00  0.00    -0.151 OA
ATOM     13  N   UNL     1       3.468  -0.660  -0.444  0.00  0.00    -0.118 NA
ATOM     14  C   UNL     1       2.347   0.017  -0.547  0.00  0.00    +0.147 C 
ATOM     15  C   UNL     1       1.213  -0.604   0.060  0.00  0.00    +0.046 C 
ATOM     16  C   UNL     1       0.014   0.016   0.069  0.00  0.00    +0.018 C 
ENDBRANCH   2   5
BRANCH   1  22
ATOM     17  C   UNL     1      -4.869   1.588   0.227  0.00  0.00    +0.142 A 
ATOM     18  C   UNL     1      -6.039   2.324   0.332  0.00  0.00    +0.055 A 
ATOM     19  C   UNL     1      -5.989   3.701   0.335  0.00  0.00    +0.001 A 
ATOM     20  C   UNL     1      -4.778   4.373   0.227  0.00  0.00    +0.126 A 
ATOM     21  C   UNL     1      -3.603   3.634   0.130  0.00  0.00    +0.073 A 
ATOM     22  C   UNL     1      -3.647   2.249   0.125  0.00  0.00    +0.079 A 
ATOM     23  O   UNL     1      -4.961   5.723   0.236  0.00  0.00    -0.488 OA
ATOM     24  C   UNL     1      -6.252   6.022   0.792  0.00  0.00    +0.175 C 
ATOM     25  C   UNL     1      -7.073   4.756   0.453  0.00  0.00    +0.083 C 
ATOM     26  C   UNL     1      -6.157   6.217   2.307  0.00  0.00    +0.052 C 
BRANCH  17  27
ATOM     27  O   UNL     1      -4.913   0.228   0.223  0.00  0.00    -0.490 OA
BRANCH  27  29
ATOM     28  C   UNL     1      -6.052  -1.901   0.310  0.00  0.00    +0.048 C 
ATOM     29  C   UNL     1      -6.202  -0.379   0.332  0.00  0.00    +0.226 C 
ENDBRANCH  27  29
ENDBRANCH  17  27
ENDBRANCH   1  22
TORSDOF 4
