REMARK  Name = ZINC14544079
REMARK  5 active torsions:
REMARK  status: ('A' for Active; 'I' for Inactive)
REMARK    1  A    between atoms: C_1  and  O_2
REMARK    2  A    between atoms: O_2  and  C_3
REMARK    3  A    between atoms: C_12  and  C_13
REMARK    4  A    between atoms: C_23  and  N_30
REMARK    5  A    between atoms: C_26  and  O_29
REMARK                            x       y       z     vdW  Elec       q    Type
REMARK                         _______ _______ _______ _____ _____    ______ ____
ROOT
ATOM      1  C   UNL     1       0.980   3.363   0.193  0.00  0.00    +0.109 C 
ATOM      2  C   UNL     1       0.119   3.666  -1.023  0.00  0.00    +0.029 C 
ATOM      3  C   UNL     1      -0.715   4.949  -0.786  0.00  0.00    +0.033 C 
ATOM      4  C   UNL     1      -1.974   4.697  -1.595  0.00  0.00    -0.030 C 
ATOM      5  C   UNL     1      -2.137   3.414  -1.802  0.00  0.00    -0.023 C 
ATOM      6  C   UNL     1      -1.008   2.623  -1.162  0.00  0.00    +0.051 C 
ATOM      7  C   UNL     1      -1.481   2.144   0.185  0.00  0.00    +0.014 A 
ATOM      8  C   UNL     1      -2.550   1.254   0.213  0.00  0.00    +0.132 A 
ATOM      9  C   UNL     1      -3.034   0.774   1.411  0.00  0.00    +0.037 A 
ATOM     10  C   UNL     1      -2.458   1.176   2.603  0.00  0.00    +0.049 A 
ATOM     11  C   UNL     1      -1.396   2.060   2.587  0.00  0.00    +0.138 A 
ATOM     12  C   UNL     1      -0.904   2.547   1.371  0.00  0.00    +0.076 A 
ATOM     13  N   UNL     1       0.170   3.441   1.410  0.00  0.00    -0.333 N 
ATOM     14  H   UNL     1       0.445   4.145   2.210  0.00  0.00    +0.147 HD
ENDROOT
BRANCH   1  24
ATOM     15  C   UNL     1       1.385   1.065   1.066  0.00  0.00    +0.126 A 
ATOM     16  C   UNL     1       1.921  -0.223   0.964  0.00  0.00    +0.046 A 
ATOM     17  C   UNL     1       2.618  -0.604  -0.139  0.00  0.00    +0.012 A 
ATOM     18  C   UNL     1       2.816   0.309  -1.190  0.00  0.00    -0.017 A 
ATOM     19  C   UNL     1       3.536  -0.050  -2.341  0.00  0.00    +0.008 A 
ATOM     20  C   UNL     1       3.709   0.859  -3.339  0.00  0.00    +0.001 A 
ATOM     21  C   UNL     1       3.181   2.145  -3.237  0.00  0.00    +0.001 A 
ATOM     22  C   UNL     1       2.478   2.529  -2.137  0.00  0.00    +0.009 A 
ATOM     23  C   UNL     1       2.279   1.617  -1.086  0.00  0.00    -0.009 A 
ATOM     24  C   UNL     1       1.558   1.977   0.064  0.00  0.00    +0.022 A 
BRANCH  15  26
ATOM     25  C   UNL     1       0.674   0.478   3.257  0.00  0.00    +0.277 C 
ATOM     26  O   UNL     1       0.689   1.415   2.179  0.00  0.00    -0.495 OA
ENDBRANCH  15  26
ENDBRANCH   1  24
BRANCH   8  27
ATOM     27  N   UNL     1      -3.174   0.819  -1.057  0.00  0.00    +0.057 N 
ATOM     28  O   UNL     1      -4.379   0.653  -1.118  0.00  0.00    -0.126 OA
ATOM     29  O   UNL     1      -2.482   0.626  -2.041  0.00  0.00    -0.126 OA
ENDBRANCH   8  27
BRANCH  11  30
ATOM     30  O   UNL     1      -0.827   2.458   3.757  0.00  0.00    -0.505 OA
ATOM     31  H   UNL     1       0.019   3.161   3.746  0.00  0.00    +0.292 HD
ENDBRANCH  11  30
TORSDOF 4
