REMARK  Name = ZINC22564435
REMARK  5 active torsions:
REMARK  status: ('A' for Active; 'I' for Inactive)
REMARK    1  A    between atoms: C_1  and  C_2
REMARK    2  A    between atoms: C_21  and  C_34
REMARK    3  A    between atoms: C_22  and  N_33
REMARK    4  A    between atoms: C_29  and  C_31
REMARK    5  A    between atoms: C_29  and  C_32
REMARK                            x       y       z     vdW  Elec       q    Type
REMARK                         _______ _______ _______ _____ _____    ______ ____
ROOT
ATOM      1  C   UNL     1      -0.019   1.526   0.010  0.00  0.00    +0.012 C 
ATOM      2  C   UNL     1       0.002  -0.004   0.002  0.00  0.00    +0.020 C 
ATOM      3  C   UNL     1       0.724  -0.489  -1.258  0.00  0.00    +0.034 C 
ATOM      4  C   UNL     1       0.790  -2.030  -1.315  0.00  0.00    +0.043 C 
ATOM      5  C   UNL     1      -0.640  -2.559  -1.286  0.00  0.00    +0.026 C 
ATOM      6  C   UNL     1      -0.655  -4.062  -1.567  0.00  0.00    +0.002 C 
ATOM      7  C   UNL     1      -0.139  -4.272  -2.994  0.00  0.00    +0.000 C 
ATOM      8  C   UNL     1       1.320  -3.834  -3.067  0.00  0.00    +0.002 C 
ATOM      9  C   UNL     1       1.531  -2.413  -2.582  0.00  0.00    +0.026 C 
ATOM     10  N   UNL     1       1.507  -2.474  -0.107  0.00  0.00    -0.263 N 
ATOM     11  C   UNL     1       1.439  -1.710   1.060  0.00  0.00    +0.045 A 
ATOM     12  C   UNL     1       0.734  -0.512   1.209  0.00  0.00    -0.023 A 
ATOM     13  C   UNL     1       0.771   0.086   2.445  0.00  0.00    +0.006 A 
ATOM     14  C   UNL     1       1.503  -0.473   3.484  0.00  0.00    +0.001 A 
ATOM     15  C   UNL     1       2.217  -1.658   3.337  0.00  0.00    +0.007 A 
ATOM     16  C   UNL     1       2.165  -2.270   2.102  0.00  0.00    -0.001 A 
ATOM     17  C   UNL     1       2.751  -3.526   1.544  0.00  0.00    +0.144 C 
ATOM     18  C   UNL     1       2.266  -3.559   0.101  0.00  0.00    +0.241 C 
ATOM     19  O   UNL     1       2.535  -4.435  -0.693  0.00  0.00    -0.273 OA
ATOM     20  C   UNL     1       4.249  -3.486   1.569  0.00  0.00    +0.110 C 
ATOM     21  C   UNL     1       4.952  -4.306   2.389  0.00  0.00    +0.199 C 
ATOM     22  O   UNL     1       4.337  -5.173   3.204  0.00  0.00    -0.445 OA
ATOM     23  C   UNL     1       3.035  -5.479   3.049  0.00  0.00    +0.116 C 
ATOM     24  C   UNL     1       2.223  -4.732   2.276  0.00  0.00    +0.058 C 
ATOM     25  C   UNL     1       0.859  -5.055   2.142  0.00  0.00    +0.165 C 
ATOM     26  O   UNL     1       0.131  -4.318   1.505  0.00  0.00    -0.292 OA
ATOM     27  C   UNL     1       0.272  -6.290   2.767  0.00  0.00    +0.086 C 
ATOM     28  C   UNL     1       1.370  -7.333   2.985  0.00  0.00    -0.021 C 
ATOM     29  C   UNL     1       2.507  -6.691   3.779  0.00  0.00    +0.081 C 
ATOM     30  C   UNL     1       0.799  -8.512   3.781  0.00  0.00    +0.012 C 
ATOM     31  C   UNL     1       1.889  -7.838   1.638  0.00  0.00    +0.012 C 
ENDROOT
BRANCH  21  32
ATOM     32  N   UNL     1       6.325  -4.244   2.382  0.00  0.00    -0.328 N 
ATOM     33  H   UNL     1       6.780  -3.620   1.796  0.00  0.00    +0.145 HD
ATOM     34  H   UNL     1       6.839  -4.825   2.964  0.00  0.00    +0.145 HD
ENDBRANCH  21  32
BRANCH  20  35
ATOM     35  C   UNL     1       4.953  -2.570   0.719  0.00  0.00    +0.102 C 
ATOM     36  N   UNL     1       5.511  -1.844   0.046  0.00  0.00    -0.191 NA
ENDBRANCH  20  35
TORSDOF 2
