REMARK  Name = ZINC01094236
REMARK  14 active torsions:
REMARK  status: ('A' for Active; 'I' for Inactive)
REMARK    1  A    between atoms: C_1  and  C_2
REMARK    2  A    between atoms: C_2  and  O_3
REMARK    3  A    between atoms: O_3  and  C_4
REMARK    4  A    between atoms: C_6  and  N_29
REMARK    5  A    between atoms: C_9  and  C_10
REMARK    6  A    between atoms: N_12  and  N_13
REMARK    7  A    between atoms: N_13  and  C_15
REMARK    8  A    between atoms: C_15  and  C_17
REMARK    9  A    between atoms: C_15  and  C_19
REMARK   10  A    between atoms: C_22  and  N_26
REMARK   11  A    between atoms: C_24  and  O_25
REMARK   12  A    between atoms: N_26  and  C_27
REMARK   13  A    between atoms: N_26  and  C_28
REMARK   14  A    between atoms: C_30  and  C_32
REMARK                            x       y       z     vdW  Elec       q    Type
REMARK                         _______ _______ _______ _____ _____    ______ ____
ROOT
ATOM      1  C   UNL     1      -2.566   2.461   3.524  0.00  0.00    +0.261 C 
ATOM      2  O   UNL     1      -3.148   2.794   2.509  0.00  0.00    -0.269 OA
ATOM      3  N   UNL     1      -3.048   2.827   4.728  0.00  0.00    -0.245 N 
ATOM      4  H   UNL     1      -2.584   2.561   5.537  0.00  0.00    +0.169 HD
ENDROOT
BRANCH   1  10
ATOM      5  C   UNL     1      -0.830   1.275   2.184  0.00  0.00    +0.134 A 
ATOM      6  C   UNL     1       0.331   0.525   2.114  0.00  0.00    +0.069 A 
ATOM      7  C   UNL     1       0.986   0.152   3.280  0.00  0.00    +0.037 A 
ATOM      8  C   UNL     1       0.478   0.529   4.521  0.00  0.00    +0.024 A 
ATOM      9  C   UNL     1      -0.666   1.269   4.602  0.00  0.00    +0.018 A 
ATOM     10  C   UNL     1      -1.335   1.658   3.437  0.00  0.00    +0.080 A 
BRANCH   7  11
ATOM     11  N   UNL     1       2.155  -0.604   3.209  0.00  0.00    -0.286 N 
ATOM     12  C   UNL     1       3.147  -0.398   4.098  0.00  0.00    +0.214 C 
ATOM     13  O   UNL     1       2.990   0.386   5.010  0.00  0.00    -0.276 OA
ATOM     14  C   UNL     1       4.450  -1.141   3.960  0.00  0.00    +0.109 C 
ATOM     15  H   UNL     1       2.256  -1.279   2.519  0.00  0.00    +0.155 HD
ENDBRANCH   7  11
BRANCH   5  16
ATOM     16  O   UNL     1      -1.474   1.644   1.048  0.00  0.00    -0.491 OA
BRANCH  16  18
ATOM     17  C   UNL     1      -1.757   1.729  -1.350  0.00  0.00    +0.048 C 
ATOM     18  C   UNL     1      -0.898   1.223  -0.190  0.00  0.00    +0.226 C 
ENDBRANCH  16  18
ENDBRANCH   5  16
ENDBRANCH   1  10
BRANCH   3  19
ATOM     19  N   UNL     1      -4.190   3.572   4.809  0.00  0.00    -0.219 NA
ATOM     20  H   UNL     1      -4.133   4.387   4.216  0.00  0.00    +0.146 HD
BRANCH  19  21
ATOM     21  C   UNL     1      -4.475   3.950   6.199  0.00  0.00    +0.208 C 
BRANCH  21  22
ATOM     22  C   UNL     1      -4.551   2.710   7.052  0.00  0.00    +0.026 A 
ATOM     23  C   UNL     1      -3.500   2.382   7.888  0.00  0.00    +0.011 A 
ATOM     24  C   UNL     1      -3.568   1.249   8.675  0.00  0.00    +0.024 A 
ATOM     25  C   UNL     1      -4.690   0.430   8.620  0.00  0.00    +0.033 A 
ATOM     26  C   UNL     1      -5.743   0.755   7.777  0.00  0.00    +0.068 A 
ATOM     27  C   UNL     1      -5.673   1.896   6.992  0.00  0.00    +0.124 A 
BRANCH  25  28
ATOM     28  N   UNL     1      -4.756  -0.719   9.411  0.00  0.00    -0.336 N 
ATOM     29  C   UNL     1      -5.878  -1.648   9.260  0.00  0.00    +0.129 C 
ATOM     30  C   UNL     1      -3.703  -0.994  10.392  0.00  0.00    +0.129 C 
ENDBRANCH  25  28
BRANCH  27  31
ATOM     31  O   UNL     1      -6.703   2.217   6.166  0.00  0.00    -0.506 OA
ATOM     32  H   UNL     1      -6.626   1.841   5.278  0.00  0.00    +0.292 HD
ENDBRANCH  27  31
ENDBRANCH  21  22
BRANCH  21  33
ATOM     33  C   UNL     1      -3.401   4.825   6.699  0.00  0.00    +0.088 C 
ATOM     34  N   UNL     1      -2.573   5.500   7.085  0.00  0.00    -0.195 NA
ENDBRANCH  21  33
ENDBRANCH  19  21
ENDBRANCH   3  19
TORSDOF 10
