REMARK  Name = ZINC19832590
REMARK  8 active torsions:
REMARK  status: ('A' for Active; 'I' for Inactive)
REMARK    1  A    between atoms: C_1  and  C_2
REMARK    2  A    between atoms: C_2  and  C_12
REMARK    3  A    between atoms: C_4  and  O_11
REMARK    4  A    between atoms: C_7  and  C_9
REMARK    5  A    between atoms: C_7  and  C_10
REMARK    6  A    between atoms: C_12  and  N_13
REMARK    7  A    between atoms: N_13  and  C_14
REMARK    8  A    between atoms: N_21  and  C_24
REMARK                            x       y       z     vdW  Elec       q    Type
REMARK                         _______ _______ _______ _____ _____    ______ ____
ROOT
ATOM      1  C   UNL     1       0.625  -0.222  -3.670  0.00  0.00    +0.085 C 
ATOM      2  C   UNL     1      -0.038   0.199  -4.808  0.00  0.00    +0.113 C 
ATOM      3  C   UNL     1       0.458  -0.136  -6.155  0.00  0.00    +0.258 C 
ATOM      4  O   UNL     1       1.470  -0.796  -6.302  0.00  0.00    -0.270 OA
ATOM      5  N   UNL     1      -0.240   0.309  -7.220  0.00  0.00    -0.235 N 
ATOM      6  C   UNL     1      -1.356   1.036  -7.072  0.00  0.00    +0.320 C 
ATOM      7  O   UNL     1      -1.939   1.406  -8.072  0.00  0.00    -0.251 OA
ATOM      8  N   UNL     1      -1.864   1.377  -5.879  0.00  0.00    -0.190 N 
ATOM      9  C   UNL     1      -1.274   0.996  -4.727  0.00  0.00    +0.265 C 
ATOM     10  O   UNL     1      -1.748   1.307  -3.650  0.00  0.00    -0.269 OA
ATOM     11  H   UNL     1       0.073   0.098  -8.114  0.00  0.00    +0.159 HD
ENDROOT
BRANCH   8  12
ATOM     12  C   UNL     1      -3.038   2.140  -5.827  0.00  0.00    +0.046 A 
ATOM     13  C   UNL     1      -3.003   3.438  -5.333  0.00  0.00    +0.025 A 
ATOM     14  C   UNL     1      -4.161   4.188  -5.283  0.00  0.00    +0.017 A 
ATOM     15  C   UNL     1      -5.356   3.648  -5.725  0.00  0.00    +0.018 A 
ATOM     16  C   UNL     1      -5.394   2.355  -6.217  0.00  0.00    +0.017 A 
ATOM     17  C   UNL     1      -4.238   1.603  -6.274  0.00  0.00    +0.025 A 
ATOM     18 BR   UNL     1      -6.940   4.678  -5.655  0.00  0.00    -0.050 Br
ENDBRANCH   8  12
BRANCH   1  19
ATOM     19  N   UNL     1       0.075  -0.020  -2.456  0.00  0.00    -0.348 N 
ATOM     20  H   UNL     1      -0.748   0.486  -2.375  0.00  0.00    +0.146 HD
BRANCH  19  21
ATOM     21  C   UNL     1       0.722  -0.564  -1.259  0.00  0.00    +0.107 C 
BRANCH  21  23
ATOM     22  C   UNL     1      -0.161   1.339   0.052  0.00  0.00    +0.013 C 
ATOM     23  C   UNL     1      -0.109  -0.190  -0.008  0.00  0.00    -0.014 C 
ATOM     24  C   UNL     1      -1.505  -0.766  -0.202  0.00  0.00    +0.039 C 
ATOM     25  C   UNL     1      -2.337  -0.715   1.071  0.00  0.00    +0.116 C 
ATOM     26  C   UNL     1      -1.626  -1.435   2.207  0.00  0.00    +0.037 C 
ATOM     27  C   UNL     1      -0.230  -0.887   2.465  0.00  0.00    -0.032 C 
ATOM     28  C   UNL     1       0.602  -0.763   1.203  0.00  0.00    +0.014 C 
ATOM     29  C   UNL     1       0.491  -1.882   3.404  0.00  0.00    +0.011 C 
ATOM     30  C   UNL     1      -0.308   0.450   3.208  0.00  0.00    +0.011 C 
BRANCH  25  31
ATOM     31  O   UNL     1      -2.671   0.622   1.426  0.00  0.00    -0.392 OA
ATOM     32  H   UNL     1      -3.201   0.694   2.232  0.00  0.00    +0.210 HD
ENDBRANCH  25  31
ENDBRANCH  21  23
ENDBRANCH  19  21
ENDBRANCH   1  19
TORSDOF 5
