REMARK  Name = ZINC40372774
REMARK  5 active torsions:
REMARK  status: ('A' for Active; 'I' for Inactive)
REMARK    1  A    between atoms: C_5  and  C_8
REMARK    2  A    between atoms: C_5  and  N_12
REMARK    3  A    between atoms: N_9  and  O_10
REMARK    4  A    between atoms: C_13  and  C_15
REMARK    5  A    between atoms: C_15  and  C_16
REMARK                            x       y       z     vdW  Elec       q    Type
REMARK                         _______ _______ _______ _____ _____    ______ ____
ROOT
ATOM      1  C   UNL     1      -0.496   1.178   0.088  0.00  0.00    +0.000 C 
ATOM      2  C   UNL     1       0.879   1.624  -0.451  0.00  0.00    +0.000 C 
ATOM      3  C   UNL     1       1.798   1.855   0.718  0.00  0.00    +0.002 C 
ATOM      4  C   UNL     1       2.651   0.616   1.051  0.00  0.00    +0.033 C 
ATOM      5  C   UNL     1       1.850  -0.698   0.974  0.00  0.00    +0.093 C 
ATOM      6  C   UNL     1       0.475  -0.571   1.573  0.00  0.00    +0.033 C 
ATOM      7  C   UNL     1      -0.521  -0.232   0.445  0.00  0.00    +0.002 C 
ENDROOT
BRANCH   5   8
ATOM      8  C   UNL     1       2.606  -1.774   1.711  0.00  0.00    +0.155 C 
ATOM      9  N   UNL     1       2.673  -1.747   3.001  0.00  0.00    -0.075 NA
ATOM     10  N   UNL     1       3.224  -2.785   1.010  0.00  0.00    -0.342 N 
ATOM     11  H   UNL     1       3.207  -2.784   0.040  0.00  0.00    +0.144 HD
ATOM     12  H   UNL     1       3.676  -3.499   1.486  0.00  0.00    +0.144 HD
BRANCH   9  13
ATOM     13  O   UNL     1       2.118  -0.658   3.717  0.00  0.00    -0.408 OA
ATOM     14  H   UNL     1       2.217  -0.727   4.676  0.00  0.00    +0.328 HD
ENDBRANCH   9  13
ENDBRANCH   5   8
BRANCH   5  15
ATOM     15  N   UNL     1       1.720  -1.093  -0.431  0.00  0.00    -0.303 N 
ATOM     16  C   UNL     1       1.142  -2.267  -0.751  0.00  0.00    +0.214 C 
ATOM     17  O   UNL     1       0.631  -2.947   0.114  0.00  0.00    -0.276 OA
ATOM     18  H   UNL     1       2.051  -0.508  -1.131  0.00  0.00    +0.150 HD
BRANCH  16  19
ATOM     19  C   UNL     1       1.129  -2.736  -2.183  0.00  0.00    +0.099 C 
BRANCH  19  20
ATOM     20  C   UNL     1       0.417  -4.087  -2.272  0.00  0.00    -0.002 C 
ATOM     21  C   UNL     1      -1.101  -3.917  -2.017  0.00  0.00    +0.004 C 
ATOM     22  C   UNL     1      -1.706  -5.158  -2.718  0.00  0.00    +0.000 C 
ATOM     23  C   UNL     1      -0.850  -5.329  -3.990  0.00  0.00    +0.000 C 
ATOM     24  C   UNL     1       0.500  -4.648  -3.706  0.00  0.00    +0.004 C 
ENDBRANCH  19  20
ENDBRANCH  16  19
ENDBRANCH   5  15
TORSDOF 5
