REMARK  Name = ZINC67608595
REMARK  5 active torsions:
REMARK  status: ('A' for Active; 'I' for Inactive)
REMARK    1  A    between atoms: C_1  and  C_2
REMARK    2  A    between atoms: C_4  and  C_7
REMARK    3  A    between atoms: C_7  and  N_8
REMARK    4  A    between atoms: C_13  and  C_20
REMARK    5  A    between atoms: C_16  and  C_19
REMARK                            x       y       z     vdW  Elec       q    Type
REMARK                         _______ _______ _______ _____ _____    ______ ____
ROOT
ATOM      1  N   UNL     1      -3.016  -5.592  -0.615  0.00  0.00    -0.294 N 
ATOM      2  C   UNL     1      -2.442  -4.923  -1.635  0.00  0.00    +0.303 C 
ATOM      3  O   UNL     1      -1.841  -3.888  -1.421  0.00  0.00    -0.253 OA
ATOM      4  N   UNL     1      -2.534  -5.402  -2.891  0.00  0.00    -0.285 N 
ATOM      5  C   UNL     1      -1.818  -4.750  -3.996  0.00  0.00    +0.112 C 
ATOM      6  C   UNL     1      -0.970  -5.799  -4.721  0.00  0.00    +0.004 C 
ATOM      7  C   UNL     1      -1.865  -6.963  -5.154  0.00  0.00    +0.009 C 
ATOM      8  C   UNL     1      -2.487  -7.616  -3.917  0.00  0.00    +0.004 C 
ATOM      9  C   UNL     1      -3.348  -6.591  -3.182  0.00  0.00    +0.112 C 
ATOM     10  C   UNL     1      -3.356  -8.800  -4.348  0.00  0.00    +0.009 C 
ATOM     11  C   UNL     1       0.120  -6.315  -3.780  0.00  0.00    +0.009 C 
ATOM     12  H   UNL     1      -3.557  -6.377  -0.793  0.00  0.00    +0.151 HD
ENDROOT
BRANCH   1  13
ATOM     13  C   UNL     1      -2.823  -5.132   0.763  0.00  0.00    +0.164 C 
BRANCH  13  17
ATOM     14  C   UNL     1      -3.846  -8.913   4.020  0.00  0.00    +0.089 C 
ATOM     15  C   UNL     1      -3.993  -7.706   3.130  0.00  0.00    +0.135 A 
ATOM     16  C   UNL     1      -3.017  -7.147   2.388  0.00  0.00    +0.072 A 
ATOM     17  C   UNL     1      -3.564  -6.046   1.705  0.00  0.00    +0.101 A 
ATOM     18  N   UNL     1      -4.822  -5.953   2.030  0.00  0.00    -0.081 NA
ATOM     19  O   UNL     1      -5.118  -7.003   2.932  0.00  0.00    -0.360 OA
ENDBRANCH  13  17
ENDBRANCH   1  13
TORSDOF 2
