REMARK  Name = ZINC42361776
REMARK  7 active torsions:
REMARK  status: ('A' for Active; 'I' for Inactive)
REMARK    1  A    between atoms: C_1  and  N_2
REMARK    2  A    between atoms: N_2  and  C_3
REMARK    3  A    between atoms: N_2  and  C_10
REMARK    4  A    between atoms: C_3  and  C_4
REMARK    5  A    between atoms: C_10  and  C_12
REMARK    6  A    between atoms: C_10  and  C_14
REMARK    7  A    between atoms: C_12  and  N_13
REMARK                            x       y       z     vdW  Elec       q    Type
REMARK                         _______ _______ _______ _____ _____    ______ ____
ROOT
ATOM      1  C   UNL     1       0.485  -0.739  -1.057  0.00  0.00    +0.072 C 
ENDROOT
BRANCH   1   2
ATOM      2  C   UNL     1      -0.027  -0.298  -2.404  0.00  0.00    +0.004 A 
ATOM      3  C   UNL     1      -1.191   0.442  -2.492  0.00  0.00    +0.023 A 
ATOM      4  C   UNL     1      -1.661   0.847  -3.728  0.00  0.00    +0.018 A 
ATOM      5  C   UNL     1      -0.967   0.512  -4.877  0.00  0.00    +0.018 A 
ATOM      6  C   UNL     1       0.197  -0.227  -4.790  0.00  0.00    +0.040 A 
ATOM      7  C   UNL     1       0.671  -0.628  -3.552  0.00  0.00    +0.128 A 
ATOM      8  F   UNL     1       1.812  -1.347  -3.466  0.00  0.00    -0.205 F 
ATOM      9 BR   UNL     1      -3.254   1.859  -3.848  0.00  0.00    -0.050 Br
ENDBRANCH   1   2
BRANCH   1  11
ATOM     10  C   UNL     1       0.304   1.499  -0.151  0.00  0.00    +0.105 C 
ATOM     11  N   UNL     1      -0.113   0.098  -0.008  0.00  0.00    -0.296 NA
BRANCH  11  12
ATOM     12  C   UNL     1       0.219  -0.416   1.328  0.00  0.00    +0.120 C 
BRANCH  12  13
ATOM     13  C   UNL     1      -0.657   0.253   2.355  0.00  0.00    -0.025 A 
ATOM     14  C   UNL     1      -0.256   1.429   2.960  0.00  0.00    +0.028 A 
ATOM     15  C   UNL     1      -1.069   2.005   3.881  0.00  0.00    +0.055 A 
ATOM     16  S   UNL     1      -2.449   0.874   3.915  0.00  0.00    -0.090 S 
ATOM     17  C   UNL     1      -1.853  -0.287   2.696  0.00  0.00    +0.051 A 
ATOM     18 BR   UNL     1      -0.807   3.594   4.872  0.00  0.00    -0.043 Br
ENDBRANCH  12  13
ENDBRANCH  11  12
ENDBRANCH   1  11
BRANCH   1  19
ATOM     19  C   UNL     1       0.105  -2.202  -0.821  0.00  0.00    -0.062 C 
BRANCH  19  20
ATOM     20  N   UNL     1      -1.357  -2.320  -0.733  0.00  0.00    +0.379 N 
ATOM     21  H   UNL     1      -1.777  -1.928  -1.563  0.00  0.00    -0.090 HD
ATOM     22  H   UNL     1      -1.612  -3.293  -0.655  0.00  0.00    -0.090 HD
ATOM     23  H   UNL     1      -1.687  -1.820   0.079  0.00  0.00    -0.090 HD
ENDBRANCH  19  20
ENDBRANCH   1  19
TORSDOF 6
