REMARK  Name = ZINC09110932
REMARK  9 active torsions:
REMARK  status: ('A' for Active; 'I' for Inactive)
REMARK    1  A    between atoms: C_1  and  C_2
REMARK    2  A    between atoms: C_2  and  C_28
REMARK    3  A    between atoms: N_3  and  N_4
REMARK    4  A    between atoms: N_9  and  C_10
REMARK    5  A    between atoms: C_10  and  C_11
REMARK    6  A    between atoms: C_11  and  C_13
REMARK    7  A    between atoms: C_11  and  O_19
REMARK    8  A    between atoms: N_26  and  C_27
REMARK    9  A    between atoms: C_33  and  O_34
REMARK                            x       y       z     vdW  Elec       q    Type
REMARK                         _______ _______ _______ _____ _____    ______ ____
ROOT
ATOM      1  N   UNL     1       0.024   0.035   2.340  0.00  0.00    -0.206 N 
ATOM      2  C   UNL     1       0.044  -0.660   3.528  0.00  0.00    +0.218 A 
ATOM      3  N   UNL     1       0.069  -1.972   3.643  0.00  0.00    -0.195 NA
ATOM      4  C   UNL     1       0.085  -2.317   4.931  0.00  0.00    +0.170 A 
ATOM      5  C   UNL     1       0.069  -1.144   5.679  0.00  0.00    +0.153 A 
ATOM      6  N   UNL     1       0.049  -0.098   4.767  0.00  0.00    -0.302 N 
ATOM      7  C   UNL     1       0.082  -1.225   7.083  0.00  0.00    +0.280 A 
ATOM      8  O   UNL     1       0.068  -0.211   7.758  0.00  0.00    -0.265 OA
ATOM      9  N   UNL     1       0.109  -2.438   7.674  0.00  0.00    -0.273 N 
ATOM     10  H   UNL     1       0.118  -2.497   8.642  0.00  0.00    +0.173 HD
ATOM     11  C   UNL     1       0.123  -3.565   6.941  0.00  0.00    +0.331 A 
ATOM     12  O   UNL     1       0.147  -4.640   7.508  0.00  0.00    -0.246 OA
ATOM     13  N   UNL     1       0.112  -3.532   5.596  0.00  0.00    -0.280 N 
ATOM     14  C   UNL     1       0.129  -4.783   4.833  0.00  0.00    +0.155 C 
ATOM     15  H   UNL     1       0.011   1.005   2.345  0.00  0.00    +0.177 HD
ENDROOT
BRANCH   1  18
ATOM     16  C   UNL     1      -0.018   1.503   0.010  0.00  0.00    +0.068 C 
ATOM     17  C   UNL     1       0.002  -0.004   0.002  0.00  0.00    +0.067 C 
ATOM     18  N   UNL     1       0.022  -0.659   1.123  0.00  0.00    -0.184 NA
BRANCH  17  19
ATOM     19  C   UNL     1      -0.000  -0.734  -1.278  0.00  0.00    +0.039 A 
ATOM     20  C   UNL     1      -0.015  -0.033  -2.486  0.00  0.00    +0.013 A 
ATOM     21  C   UNL     1      -0.017  -0.722  -3.681  0.00  0.00    +0.001 A 
ATOM     22  C   UNL     1      -0.003  -2.107  -3.688  0.00  0.00    +0.004 A 
ATOM     23  C   UNL     1       0.012  -2.812  -2.499  0.00  0.00    +0.046 A 
ATOM     24  C   UNL     1       0.019  -2.135  -1.290  0.00  0.00    +0.126 A 
BRANCH  24  25
ATOM     25  O   UNL     1       0.039  -2.827  -0.122  0.00  0.00    -0.506 OA
ATOM     26  H   UNL     1      -0.839  -3.040   0.225  0.00  0.00    +0.292 HD
ENDBRANCH  24  25
ENDBRANCH  17  19
ENDBRANCH   1  18
BRANCH   6  27
ATOM     27  C   UNL     1       0.032   1.333   5.078  0.00  0.00    +0.161 C 
BRANCH  27  28
ATOM     28  C   UNL     1      -1.417   1.811   5.201  0.00  0.00    +0.164 C 
BRANCH  28  29
ATOM     29  C   UNL     1      -1.434   3.253   5.641  0.00  0.00    -0.017 A 
ATOM     30  C   UNL     1      -1.325   4.263   4.704  0.00  0.00    +0.006 A 
ATOM     31  C   UNL     1      -1.341   5.585   5.107  0.00  0.00    +0.000 A 
ATOM     32  C   UNL     1      -1.467   5.896   6.448  0.00  0.00    +0.000 A 
ATOM     33  C   UNL     1      -1.577   4.886   7.386  0.00  0.00    +0.000 A 
ATOM     34  C   UNL     1      -1.565   3.564   6.981  0.00  0.00    +0.006 A 
ENDBRANCH  28  29
BRANCH  28  35
ATOM     35  O   UNL     1      -2.067   1.692   3.934  0.00  0.00    -0.385 OA
ATOM     36  H   UNL     1      -1.654   2.211   3.230  0.00  0.00    +0.210 HD
ENDBRANCH  28  35
ENDBRANCH  27  28
ENDBRANCH   6  27
TORSDOF 7
