REMARK  Name = ZINC04030339
REMARK  11 active torsions:
REMARK  status: ('A' for Active; 'I' for Inactive)
REMARK    1  A    between atoms: C_1  and  C_2
REMARK    2  A    between atoms: C_6  and  C_19
REMARK    3  A    between atoms: N_8  and  C_9
REMARK    4  A    between atoms: C_12  and  C_15
REMARK    5  A    between atoms: N_21  and  C_22
REMARK    6  A    between atoms: C_25  and  O_30
REMARK    7  A    between atoms: C_27  and  O_28
REMARK    8  A    between atoms: O_28  and  C_29
REMARK    9  A    between atoms: O_30  and  C_31
REMARK   10  A    between atoms: C_32  and  C_35
REMARK   11  A    between atoms: C_35  and  O_36
REMARK                            x       y       z     vdW  Elec       q    Type
REMARK                         _______ _______ _______ _____ _____    ______ ____
ROOT
ATOM      1  C   UNL     1       5.503   1.634   1.076  0.00  0.00    +0.069 C 
ATOM      2  C   UNL     1       5.461   3.082   1.492  0.00  0.00    +0.081 A 
ATOM      3  C   UNL     1       4.466   3.914   0.996  0.00  0.00    +0.159 A 
ATOM      4  C   UNL     1       4.447   5.262   1.402  0.00  0.00    +0.027 A 
ATOM      5  C   UNL     1       3.403   6.155   0.896  0.00  0.00    +0.030 A 
ATOM      6  C   UNL     1       2.325   5.567   0.244  0.00  0.00    +0.099 A 
ATOM      7  C   UNL     1       2.329   4.095   0.136  0.00  0.00    +0.233 A 
ATOM      8  N   UNL     1       1.202   3.420   0.035  0.00  0.00    -0.213 NA
ATOM      9  O   UNL     1       3.526   3.456   0.137  0.00  0.00    -0.435 OA
ATOM     10  C   UNL     1       5.435   5.710   2.288  0.00  0.00    +0.007 A 
ATOM     11  C   UNL     1       6.383   4.809   2.725  0.00  0.00    +0.117 A 
ATOM     12  N   UNL     1       6.368   3.550   2.325  0.00  0.00    -0.256 NA
ENDROOT
BRANCH   8  13
ATOM     13  C   UNL     1       1.222   2.058   0.034  0.00  0.00    +0.068 A 
ATOM     14  C   UNL     1       1.231   1.356   1.246  0.00  0.00    +0.028 A 
ATOM     15  C   UNL     1       1.250  -0.008   1.243  0.00  0.00    +0.015 A 
ATOM     16  C   UNL     1       1.260  -0.706   0.030  0.00  0.00    +0.037 A 
ATOM     17  C   UNL     1       1.251  -0.005  -1.181  0.00  0.00    +0.015 A 
ATOM     18  C   UNL     1       1.232   1.359  -1.180  0.00  0.00    +0.028 A 
BRANCH  16  19
ATOM     19  C   UNL     1       1.281  -2.180   0.029  0.00  0.00    +0.242 C 
ATOM     20  O   UNL     1       1.289  -2.789   1.081  0.00  0.00    -0.270 OA
ATOM     21  N   UNL     1       1.290  -2.852  -1.139  0.00  0.00    -0.325 N 
ATOM     22  H   UNL     1       1.284  -2.366  -1.979  0.00  0.00    +0.145 HD
ATOM     23  H   UNL     1       1.304  -3.822  -1.141  0.00  0.00    +0.145 HD
ENDBRANCH  16  19
ENDBRANCH   8  13
BRANCH   6  24
ATOM     24  C   UNL     1       1.223   6.375  -0.310  0.00  0.00    +0.254 C 
ATOM     25  O   UNL     1       1.246   7.587  -0.206  0.00  0.00    -0.270 OA
ATOM     26  N   UNL     1       0.191   5.771  -0.932  0.00  0.00    -0.278 N 
ATOM     27  H   UNL     1       0.141   4.803  -0.960  0.00  0.00    +0.155 HD
BRANCH  26  28
ATOM     28  C   UNL     1      -0.809   6.543  -1.540  0.00  0.00    +0.076 A 
ATOM     29  C   UNL     1      -1.192   7.752  -0.978  0.00  0.00    +0.030 A 
ATOM     30  C   UNL     1      -2.174   8.515  -1.579  0.00  0.00    +0.047 A 
ATOM     31  C   UNL     1      -2.787   8.069  -2.742  0.00  0.00    +0.124 A 
ATOM     32  C   UNL     1      -2.412   6.859  -3.305  0.00  0.00    +0.093 A 
ATOM     33  C   UNL     1      -1.424   6.094  -2.707  0.00  0.00    +0.145 A 
BRANCH  33  34
ATOM     34  O   UNL     1      -1.054   4.907  -3.258  0.00  0.00    -0.493 OA
ATOM     35  C   UNL     1      -1.727   4.510  -4.454  0.00  0.00    +0.277 C 
ENDBRANCH  33  34
BRANCH  31  36
ATOM     36  O   UNL     1      -3.758   8.819  -3.328  0.00  0.00    -0.495 OA
ATOM     37  C   UNL     1      -4.095  10.055  -2.694  0.00  0.00    +0.277 C 
ENDBRANCH  31  36
ENDBRANCH  26  28
ENDBRANCH   6  24
BRANCH  10  38
ATOM     38  C   UNL     1       5.461   7.143   2.752  0.00  0.00    +0.193 C 
BRANCH  38  39
ATOM     39  O   UNL     1       6.562   7.335   3.643  0.00  0.00    -0.390 OA
ATOM     40  H   UNL     1       6.640   8.237   3.982  0.00  0.00    +0.210 HD
ENDBRANCH  38  39
ENDBRANCH  10  38
TORSDOF 8
