REMARK  Name = ZINC11858164
REMARK  9 active torsions:
REMARK  status: ('A' for Active; 'I' for Inactive)
REMARK    1  A    between atoms: C_1  and  C_2
REMARK    2  A    between atoms: C_5  and  O_28
REMARK    3  A    between atoms: C_7  and  N_8
REMARK    4  A    between atoms: N_8  and  S_9
REMARK    5  A    between atoms: S_9  and  C_12
REMARK    6  A    between atoms: C_13  and  C_27
REMARK    7  A    between atoms: C_15  and  N_19
REMARK    8  A    between atoms: C_17  and  C_18
REMARK    9  A    between atoms: O_28  and  C_29
REMARK                            x       y       z     vdW  Elec       q    Type
REMARK                         _______ _______ _______ _____ _____    ______ ____
ROOT
ATOM      1  C   UNL     1      -2.074  -0.090  -2.411  0.00  0.00    +0.114 A 
ATOM      2  C   UNL     1      -1.572   1.071  -2.969  0.00  0.00    -0.022 A 
ATOM      3  C   UNL     1      -1.516   1.210  -4.342  0.00  0.00    +0.030 A 
ATOM      4  C   UNL     1      -1.974   0.188  -5.162  0.00  0.00    +0.060 A 
ATOM      5  C   UNL     1      -2.483  -0.975  -4.598  0.00  0.00    +0.030 A 
ATOM      6  C   UNL     1      -2.532  -1.110  -3.224  0.00  0.00    -0.022 A 
ATOM      7  C   UNL     1      -3.084  -2.372  -2.611  0.00  0.00    +0.046 C 
ATOM      8  C   UNL     1      -1.080   2.183  -2.079  0.00  0.00    +0.046 C 
ENDROOT
BRANCH   4   9
ATOM      9  N   UNL     1      -1.924   0.328  -6.553  0.00  0.00    -0.144 N 
ATOM     10  C   UNL     1      -1.866  -0.672  -7.446  0.00  0.00    +0.240 C 
ATOM     11  O   UNL     1      -1.884  -1.829  -7.083  0.00  0.00    -0.274 OA
ATOM     12  C   UNL     1      -1.782  -0.326  -8.902  0.00  0.00    +0.122 C 
ATOM     13  C   UNL     1      -2.250   1.141  -9.093  0.00  0.00    +0.198 C 
ATOM     14  S   UNL     1      -1.918   1.774  -7.398  0.00  0.00    +0.052 S 
ATOM     15  O   UNL     1      -3.028   2.512  -6.905  0.00  0.00    -0.155 OA
ATOM     16  O   UNL     1      -0.592   2.275  -7.293  0.00  0.00    -0.155 OA
ENDBRANCH   4   9
BRANCH   1  17
ATOM     17  S   UNL     1      -2.139  -0.267  -0.659  0.00  0.00    +0.073 S 
ATOM     18  O   UNL     1      -3.421  -0.795  -0.351  0.00  0.00    -0.150 OA
ATOM     19  O   UNL     1      -1.667   0.956  -0.110  0.00  0.00    -0.150 OA
BRANCH  17  20
ATOM     20  N   UNL     1      -1.035  -1.429  -0.243  0.00  0.00    -0.216 N 
ATOM     21  H   UNL     1      -1.328  -2.237   0.206  0.00  0.00    +0.174 HD
BRANCH  20  28
ATOM     22  C   UNL     1       0.496  -3.708  -0.982  0.00  0.00    +0.046 C 
ATOM     23  C   UNL     1       1.104  -2.331  -0.904  0.00  0.00    -0.028 A 
ATOM     24  C   UNL     1       2.441  -2.149  -1.197  0.00  0.00    +0.009 A 
ATOM     25  C   UNL     1       3.001  -0.888  -1.127  0.00  0.00    +0.046 A 
ATOM     26  C   UNL     1       2.221   0.201  -0.762  0.00  0.00    +0.122 A 
ATOM     27  C   UNL     1       0.879   0.023  -0.468  0.00  0.00    +0.070 A 
ATOM     28  C   UNL     1       0.318  -1.245  -0.539  0.00  0.00    +0.054 A 
BRANCH  26  29
ATOM     29  O   UNL     1       2.774   1.440  -0.695  0.00  0.00    -0.495 OA
ATOM     30  C   UNL     1       4.163   1.550  -1.011  0.00  0.00    +0.277 C 
ENDBRANCH  26  29
ENDBRANCH  20  28
ENDBRANCH  17  20
ENDBRANCH   1  17
TORSDOF 5
