REMARK  Name = ZINC20758890
REMARK  9 active torsions:
REMARK  status: ('A' for Active; 'I' for Inactive)
REMARK    1  A    between atoms: C_1  and  C_2
REMARK    2  A    between atoms: C_2  and  C_3
REMARK    3  A    between atoms: C_2  and  C_4
REMARK    4  A    between atoms: C_2  and  N_5
REMARK    5  A    between atoms: N_5  and  S_6
REMARK    6  A    between atoms: S_6  and  C_9
REMARK    7  A    between atoms: C_22  and  C_25
REMARK    8  A    between atoms: C_28  and  S_31
REMARK    9  A    between atoms: S_31  and  C_32
REMARK                            x       y       z     vdW  Elec       q    Type
REMARK                         _______ _______ _______ _____ _____    ______ ____
ROOT
ATOM      1  C   UNL     1       1.616  -2.891   0.489  0.00  0.00    +0.106 A 
ATOM      2  C   UNL     1       0.761  -2.009  -0.146  0.00  0.00    +0.030 A 
ATOM      3  C   UNL     1       1.113  -0.683  -0.290  0.00  0.00    +0.025 A 
ATOM      4  C   UNL     1       2.330  -0.224   0.199  0.00  0.00    +0.031 A 
ATOM      5  C   UNL     1       3.197  -1.124   0.828  0.00  0.00    -0.018 A 
ATOM      6  C   UNL     1       2.832  -2.445   0.975  0.00  0.00    +0.034 A 
ATOM      7  C   UNL     1       4.500  -0.604   1.297  0.00  0.00    +0.049 C 
ATOM      8  C   UNL     1       5.237  -1.233   2.422  0.00  0.00    -0.023 C 
ATOM      9  C   UNL     1       5.924  -0.292   3.059  0.00  0.00    -0.030 C 
ATOM     10  C   UNL     1       5.666   1.071   2.413  0.00  0.00    +0.033 C 
ATOM     11  C   UNL     1       4.280   0.858   1.788  0.00  0.00    +0.029 C 
ATOM     12  C   UNL     1       3.953   1.659   0.541  0.00  0.00    +0.105 C 
ATOM     13  N   UNL     1       2.659   1.130   0.056  0.00  0.00    -0.336 N 
ATOM     14  H   UNL     1       1.936   1.803  -0.428  0.00  0.00    +0.147 HD
ENDROOT
BRANCH  12  15
ATOM     15  C   UNL     1       5.021   1.459  -0.502  0.00  0.00    -0.027 A 
ATOM     16  C   UNL     1       6.174   2.223  -0.465  0.00  0.00    +0.006 A 
ATOM     17  C   UNL     1       7.157   2.039  -1.416  0.00  0.00    +0.015 A 
ATOM     18  C   UNL     1       6.984   1.092  -2.418  0.00  0.00    +0.008 A 
ATOM     19  C   UNL     1       5.822   0.330  -2.456  0.00  0.00    +0.015 A 
ATOM     20  C   UNL     1       4.845   0.516  -1.498  0.00  0.00    +0.006 A 
BRANCH  18  21
ATOM     21  S   UNL     1       8.233   0.859  -3.639  0.00  0.00    -0.129 S 
ATOM     22  C   UNL     1       9.521   2.051  -3.182  0.00  0.00    +0.090 C 
ENDBRANCH  18  21
ENDBRANCH  12  15
BRANCH   1  23
ATOM     23  S   UNL     1       1.158  -4.582   0.679  0.00  0.00    +0.059 S 
ATOM     24  O   UNL     1       2.051  -5.140   1.633  0.00  0.00    -0.153 OA
ATOM     25  O   UNL     1      -0.252  -4.603   0.852  0.00  0.00    -0.153 OA
BRANCH  23  26
ATOM     26  N   UNL     1       1.469  -5.338  -0.761  0.00  0.00    -0.185 NA
ATOM     27  H   UNL     1       0.634  -5.566  -1.440  0.00  0.00    +0.149 HD
BRANCH  26  29
ATOM     28  C   UNL     1       3.604  -6.418  -0.254  0.00  0.00    +0.029 C 
ATOM     29  C   UNL     1       2.851  -5.500  -1.219  0.00  0.00    +0.032 C 
ATOM     30  C   UNL     1       2.855  -6.119  -2.619  0.00  0.00    +0.029 C 
ATOM     31  C   UNL     1       3.538  -4.134  -1.264  0.00  0.00    +0.029 C 
ENDBRANCH  26  29
ENDBRANCH  23  26
ENDBRANCH   1  23
TORSDOF 5
