REMARK  Name = ZINC20882962
REMARK  6 active torsions:
REMARK  status: ('A' for Active; 'I' for Inactive)
REMARK    1  A    between atoms: C_1  and  N_2
REMARK    2  A    between atoms: C_6  and  C_8
REMARK    3  A    between atoms: C_8  and  O_9
REMARK    4  A    between atoms: O_9  and  C_10
REMARK    5  A    between atoms: C_10  and  C_12
REMARK    6  A    between atoms: C_26  and  C_27
REMARK                            x       y       z     vdW  Elec       q    Type
REMARK                         _______ _______ _______ _____ _____    ______ ____
ROOT
ATOM      1  C   UNL     1       7.688  -1.885   0.599  0.00  0.00    +0.073 A 
ATOM      2  C   UNL     1       8.431  -0.652   0.334  0.00  0.00    +0.015 A 
ATOM      3  C   UNL     1       9.826  -0.609   0.409  0.00  0.00    +0.011 A 
ATOM      4  C   UNL     1      10.479   0.561   0.152  0.00  0.00    +0.001 A 
ATOM      5  C   UNL     1       9.773   1.714  -0.184  0.00  0.00    +0.002 A 
ATOM      6  C   UNL     1       8.414   1.706  -0.265  0.00  0.00    +0.028 A 
ATOM      7  C   UNL     1       7.706   0.518  -0.007  0.00  0.00    +0.072 A 
ATOM      8  N   UNL     1       6.376   0.479  -0.078  0.00  0.00    -0.247 NA
ATOM      9  C   UNL     1       5.681  -0.622   0.153  0.00  0.00    +0.072 A 
ATOM     10  C   UNL     1       6.303  -1.837   0.500  0.00  0.00    -0.007 A 
ATOM     11  C   UNL     1       5.514  -3.090   0.760  0.00  0.00    +0.038 C 
ATOM     12  C   UNL     1       4.073  -2.766   1.145  0.00  0.00    +0.009 C 
ATOM     13  C   UNL     1       3.448  -1.874   0.065  0.00  0.00    +0.038 C 
ATOM     14  C   UNL     1       4.207  -0.564   0.061  0.00  0.00    -0.018 C 
ATOM     15  C   UNL     1       3.560   0.617  -0.029  0.00  0.00    +0.052 C 
ENDROOT
BRANCH  15  16
ATOM     16  C   UNL     1       2.121   0.644  -0.292  0.00  0.00    +0.128 A 
ATOM     17  C   UNL     1       1.324   1.755  -0.285  0.00  0.00    +0.049 A 
ATOM     18  C   UNL     1       0.022   1.320  -0.587  0.00  0.00    +0.042 A 
ATOM     19  C   UNL     1       0.081  -0.017  -0.762  0.00  0.00    +0.195 A 
ATOM     20  O   UNL     1       1.348  -0.422  -0.583  0.00  0.00    -0.464 OA
ENDBRANCH  15  16
BRANCH   1  21
ATOM     21  C   UNL     1       8.386  -3.137   0.958  0.00  0.00    +0.341 C 
ATOM     22  O   UNL     1       8.736  -3.908   0.087  0.00  0.00    -0.245 OA
BRANCH  21  23
ATOM     23  O   UNL     1       8.634  -3.423   2.251  0.00  0.00    -0.452 OA
BRANCH  23  24
ATOM     24  C   UNL     1       9.323  -4.670   2.530  0.00  0.00    +0.328 C 
BRANCH  24  30
ATOM     25  C   UNL     1      11.104  -7.271   7.787  0.00  0.00    +0.129 C 
ATOM     26  N   UNL     1      10.921  -7.128   6.340  0.00  0.00    -0.302 N 
ATOM     27  C   UNL     1      10.300  -6.039   5.844  0.00  0.00    +0.306 C 
ATOM     28  O   UNL     1       9.892  -5.176   6.597  0.00  0.00    -0.252 OA
ATOM     29  N   UNL     1      10.132  -5.906   4.514  0.00  0.00    -0.237 N 
ATOM     30  C   UNL     1       9.511  -4.818   4.018  0.00  0.00    +0.258 C 
ATOM     31  O   UNL     1       9.104  -3.957   4.769  0.00  0.00    -0.272 OA
ATOM     32  H   UNL     1      11.290  -7.908   5.659  0.00  0.00    +0.150 HD
ATOM     33  H   UNL     1      10.502  -6.687   3.832  0.00  0.00    +0.159 HD
ENDBRANCH  24  30
ENDBRANCH  23  24
ENDBRANCH  21  23
ENDBRANCH   1  21
TORSDOF 5
