REMARK  Name = ZINC20673484
REMARK  4 active torsions:
REMARK  status: ('A' for Active; 'I' for Inactive)
REMARK    1  A    between atoms: C_1  and  C_2
REMARK    2  A    between atoms: C_2  and  C_3
REMARK    3  A    between atoms: C_2  and  C_4
REMARK    4  A    between atoms: C_4  and  N_5
REMARK                            x       y       z     vdW  Elec       q    Type
REMARK                         _______ _______ _______ _____ _____    ______ ____
ROOT
ATOM      1  N   UNL     1       1.346   1.674   2.558  0.00  0.00    -0.266 N 
ATOM      2  C   UNL     1       1.631   2.869   3.195  0.00  0.00    +0.046 A 
ATOM      3  C   UNL     1       0.778   3.727   3.893  0.00  0.00    +0.025 A 
ATOM      4  C   UNL     1       1.338   4.871   4.439  0.00  0.00    +0.017 A 
ATOM      5  C   UNL     1       2.681   5.163   4.305  0.00  0.00    +0.018 A 
ATOM      6  C   UNL     1       3.541   4.317   3.612  0.00  0.00    +0.027 A 
ATOM      7  C   UNL     1       2.990   3.177   3.067  0.00  0.00    +0.046 A 
ATOM      8  C   UNL     1       3.602   2.062   2.276  0.00  0.00    +0.283 C 
ATOM      9  C   UNL     1       2.442   1.126   1.996  0.00  0.00    +0.288 C 
ATOM     10  O   UNL     1       2.491   0.082   1.381  0.00  0.00    -0.268 OA
ATOM     11  N   UNL     1       4.152   2.559   1.017  0.00  0.00    -0.262 N 
ATOM     12  C   UNL     1       5.446   2.951   0.948  0.00  0.00    +0.251 C 
ATOM     13  O   UNL     1       5.910   3.413  -0.077  0.00  0.00    -0.270 OA
ATOM     14  C   UNL     1       6.276   2.799   2.161  0.00  0.00    +0.078 A 
ATOM     15  C   UNL     1       7.507   3.435   2.289  0.00  0.00    +0.017 A 
ATOM     16  C   UNL     1       8.244   3.262   3.443  0.00  0.00    +0.001 A 
ATOM     17  C   UNL     1       7.764   2.461   4.467  0.00  0.00    +0.004 A 
ATOM     18  C   UNL     1       6.543   1.825   4.349  0.00  0.00    +0.046 A 
ATOM     19  C   UNL     1       5.791   1.987   3.199  0.00  0.00    +0.136 A 
ATOM     20  O   UNL     1       4.589   1.379   3.045  0.00  0.00    -0.454 OA
ATOM     21 BR   UNL     1       3.366   6.746   5.081  0.00  0.00    -0.050 Br
ATOM     22  H   UNL     1       3.515   2.615   0.122  0.00  0.00    +0.154 HD
ENDROOT
BRANCH   1  23
ATOM     23  C   UNL     1       0.011   1.072   2.506  0.00  0.00    +0.117 C 
BRANCH  23  25
ATOM     24  C   UNL     1      -0.013   1.086   0.008  0.00  0.00    +0.009 C 
ATOM     25  C   UNL     1      -0.729   1.579   1.267  0.00  0.00    +0.001 C 
ATOM     26  C   UNL     1      -2.164   1.050   1.278  0.00  0.00    +0.009 C 
ENDBRANCH  23  25
ENDBRANCH   1  23
TORSDOF 2
