REMARK  Name = ZINC12375915
REMARK  7 active torsions:
REMARK  status: ('A' for Active; 'I' for Inactive)
REMARK    1  A    between atoms: C_4  and  C_7
REMARK    2  A    between atoms: N_9  and  C_10
REMARK    3  A    between atoms: C_10  and  C_11
REMARK    4  A    between atoms: C_11  and  O_13
REMARK    5  A    between atoms: O_13  and  C_14
REMARK    6  A    between atoms: C_14  and  C_15
REMARK    7  A    between atoms: C_22  and  N_65
REMARK                            x       y       z     vdW  Elec       q    Type
REMARK                         _______ _______ _______ _____ _____    ______ ____
ROOT
ATOM      1  C   UNL     1      -4.222  -5.940   0.011  0.00  0.00    +0.253 C 
ATOM      2  O   UNL     1      -3.196  -6.586  -0.003  0.00  0.00    -0.272 OA
ATOM      3  N   UNL     1      -5.415  -6.568   0.018  0.00  0.00    -0.302 N 
ATOM      4  C   UNL     1      -6.671  -5.803   0.041  0.00  0.00    +0.089 C 
ATOM      5  C   UNL     1      -7.571  -6.321  -1.092  0.00  0.00    -0.059 C 
ATOM      6  C   UNL     1      -6.441  -8.467  -1.114  0.00  0.00    -0.059 C 
ATOM      7  C   UNL     1      -5.494  -8.036   0.011  0.00  0.00    +0.089 C 
ATOM      8  N   UNL     1      -7.739  -7.782  -0.931  0.00  0.00    +0.385 N 
ATOM      9  H   UNL     1      -8.086  -7.975   0.016  0.00  0.00    -0.081 HD
ENDROOT
BRANCH   8  10
ATOM     10  C   UNL     1      -8.719  -8.288  -1.914  0.00  0.00    -0.065 C 
ATOM     11  C   UNL     1      -8.213  -8.068  -3.341  0.00  0.00    -0.009 C 
ATOM     12  C   UNL     1      -9.246  -8.602  -4.336  0.00  0.00    -0.012 C 
ATOM     13  C   UNL     1     -10.570  -7.860  -4.144  0.00  0.00    +0.007 C 
ATOM     14  C   UNL     1     -11.076  -8.080  -2.717  0.00  0.00    -0.012 C 
ATOM     15  C   UNL     1     -10.043  -7.546  -1.722  0.00  0.00    -0.009 C 
ATOM     16  C   UNL     1     -11.290  -9.575  -2.477  0.00  0.00    +0.007 C 
ATOM     17  C   UNL     1      -9.966 -10.318  -2.669  0.00  0.00    -0.012 C 
ATOM     18  C   UNL     1      -9.460 -10.098  -4.096  0.00  0.00    +0.007 C 
ATOM     19  C   UNL     1      -8.933  -9.784  -1.674  0.00  0.00    -0.009 C 
ENDBRANCH   8  10
BRANCH   1  20
ATOM     20  C   UNL     1      -4.164  -4.434   0.018  0.00  0.00    +0.327 C 
BRANCH  20  21
ATOM     21  O   UNL     1      -2.777  -4.003   0.007  0.00  0.00    -0.454 OA
BRANCH  21  22
ATOM     22  C   UNL     1      -2.550  -2.680   0.012  0.00  0.00    +0.325 C 
ATOM     23  O   UNL     1      -3.479  -1.908   0.025  0.00  0.00    -0.249 OA
BRANCH  22  24
ATOM     24  C   UNL     1      -1.136  -2.159   0.001  0.00  0.00    +0.225 C 
BRANCH  24  27
ATOM     25  C   UNL     1       0.002  -0.004   0.002  0.00  0.00    +0.245 C 
ATOM     26  O   UNL     1       1.063  -0.597  -0.011  0.00  0.00    -0.270 OA
ATOM     27  N   UNL     1      -1.156  -0.694   0.009  0.00  0.00    -0.301 N 
ATOM     28  H   UNL     1      -2.002  -0.220   0.020  0.00  0.00    +0.150 HD
BRANCH  25  32
ATOM     29  C   UNL     1      -0.056   4.243   0.026  0.00  0.00    +0.000 A 
ATOM     30  C   UNL     1       1.154   3.571   0.010  0.00  0.00    +0.001 A 
ATOM     31  C   UNL     1       1.179   2.192   0.003  0.00  0.00    +0.013 A 
ATOM     32  C   UNL     1      -0.018   1.474   0.010  0.00  0.00    +0.037 A 
ATOM     33  C   UNL     1      -1.234   2.159   0.020  0.00  0.00    +0.013 A 
ATOM     34  C   UNL     1      -1.246   3.538   0.033  0.00  0.00    +0.001 A 
ENDBRANCH  25  32
ENDBRANCH  24  27
ENDBRANCH  22  24
ENDBRANCH  21  22
ENDBRANCH  20  21
ENDBRANCH   1  20
TORSDOF 7
