REMARK  Name = ZINC05169784
REMARK  11 active torsions:
REMARK  status: ('A' for Active; 'I' for Inactive)
REMARK    1  A    between atoms: C_1  and  C_2
REMARK    2  A    between atoms: C_2  and  O_3
REMARK    3  A    between atoms: O_3  and  C_4
REMARK    4  A    between atoms: C_7  and  C_10
REMARK    5  A    between atoms: C_13  and  S_15
REMARK    6  A    between atoms: S_15  and  C_16
REMARK    7  A    between atoms: C_16  and  C_17
REMARK    8  A    between atoms: N_19  and  C_20
REMARK    9  A    between atoms: C_23  and  C_26
REMARK   10  A    between atoms: C_26  and  C_27
REMARK   11  A    between atoms: C_26  and  C_28
REMARK                            x       y       z     vdW  Elec       q    Type
REMARK                         _______ _______ _______ _____ _____    ______ ____
ROOT
ATOM      1  S   UNL     1       2.178  -9.281  -3.643  0.00  0.00    -0.056 S 
ENDROOT
BRANCH   1   5
ATOM      2  C   UNL     1       1.127  -6.014  -1.832  0.00  0.00    +0.249 A 
ATOM      3  N   UNL     1       0.670  -6.933  -1.016  0.00  0.00    -0.106 NA
ATOM      4  N   UNL     1       0.946  -8.098  -1.487  0.00  0.00    -0.101 NA
ATOM      5  C   UNL     1       1.590  -7.970  -2.623  0.00  0.00    +0.278 A 
ATOM      6  O   UNL     1       1.715  -6.651  -2.869  0.00  0.00    -0.411 OA
BRANCH   2  10
ATOM      7  C   UNL     1       0.806  -1.810  -1.318  0.00  0.00    +0.121 A 
ATOM      8  C   UNL     1       0.276  -2.667  -0.362  0.00  0.00    +0.046 A 
ATOM      9  C   UNL     1       0.378  -4.031  -0.525  0.00  0.00    +0.017 A 
ATOM     10  C   UNL     1       1.015  -4.552  -1.653  0.00  0.00    +0.039 A 
ATOM     11  C   UNL     1       1.547  -3.687  -2.612  0.00  0.00    +0.017 A 
ATOM     12  C   UNL     1       1.436  -2.324  -2.444  0.00  0.00    +0.046 A 
BRANCH   7  13
ATOM     13  O   UNL     1       0.704  -0.465  -1.153  0.00  0.00    -0.492 OA
BRANCH  13  15
ATOM     14  C   UNL     1       0.025   1.526   0.037  0.00  0.00    +0.048 C 
ATOM     15  C   UNL     1       0.044  -0.004   0.028  0.00  0.00    +0.225 C 
ENDBRANCH  13  15
ENDBRANCH   7  13
ENDBRANCH   2  10
ENDBRANCH   1   5
BRANCH   1  16
ATOM     16  C   UNL     1       1.683 -10.783  -2.755  0.00  0.00    +0.175 C 
BRANCH  16  17
ATOM     17  C   UNL     1       2.131 -11.995  -3.530  0.00  0.00    +0.228 C 
ATOM     18  O   UNL     1       2.725 -11.859  -4.578  0.00  0.00    -0.275 OA
ATOM     19  N   UNL     1       1.871 -13.231  -3.058  0.00  0.00    -0.285 N 
ATOM     20  H   UNL     1       1.455 -13.340  -2.188  0.00  0.00    +0.155 HD
BRANCH  19  21
ATOM     21  C   UNL     1       2.200 -14.355  -3.822  0.00  0.00    +0.033 A 
ATOM     22  C   UNL     1       1.384 -15.479  -3.795  0.00  0.00    +0.023 A 
ATOM     23  C   UNL     1       1.712 -16.587  -4.551  0.00  0.00    +0.006 A 
ATOM     24  C   UNL     1       2.851 -16.579  -5.334  0.00  0.00    -0.045 A 
ATOM     25  C   UNL     1       3.666 -15.463  -5.363  0.00  0.00    +0.006 A 
ATOM     26  C   UNL     1       3.340 -14.349  -4.614  0.00  0.00    +0.023 A 
BRANCH  24  27
ATOM     27  C   UNL     1       3.206 -17.791  -6.158  0.00  0.00    +0.013 C 
ATOM     28  C   UNL     1       3.253 -17.405  -7.638  0.00  0.00    +0.012 C 
ATOM     29  C   UNL     1       4.575 -18.319  -5.724  0.00  0.00    +0.012 C 
ENDBRANCH  24  27
ENDBRANCH  19  21
ENDBRANCH  16  17
ENDBRANCH   1  16
TORSDOF 8
