REMARK  Name = ZINC50032833
REMARK  6 active torsions:
REMARK  status: ('A' for Active; 'I' for Inactive)
REMARK    1  A    between atoms: C_1  and  C_2
REMARK    2  A    between atoms: C_8  and  N_10
REMARK    3  A    between atoms: N_10  and  C_11
REMARK    4  A    between atoms: N_10  and  C_12
REMARK    5  A    between atoms: C_14  and  C_20
REMARK    6  A    between atoms: C_15  and  N_19
REMARK                            x       y       z     vdW  Elec       q    Type
REMARK                         _______ _______ _______ _____ _____    ______ ____
ROOT
ATOM      1  C   UNL     1       0.658   0.995   3.012  0.00  0.00    +0.066 A 
ATOM      2  C   UNL     1       0.672   2.334   2.671  0.00  0.00    +0.041 A 
ATOM      3  C   UNL     1       1.311   3.258   3.504  0.00  0.00    +0.059 A 
ATOM      4  C   UNL     1       1.935   2.818   4.681  0.00  0.00    +0.040 A 
ATOM      5  C   UNL     1       1.913   1.470   5.011  0.00  0.00    +0.063 A 
ATOM      6  C   UNL     1       1.274   0.564   4.185  0.00  0.00    +0.146 A 
ATOM      7  F   UNL     1       1.252  -0.746   4.515  0.00  0.00    -0.203 F 
ENDROOT
BRANCH   3   8
ATOM      8  C   UNL     1       1.330   4.687   3.146  0.00  0.00    +0.243 C 
ATOM      9  O   UNL     1       1.978   5.472   3.813  0.00  0.00    -0.270 OA
ATOM     10  N   UNL     1       0.630   5.125   2.081  0.00  0.00    -0.325 N 
ATOM     11  H   UNL     1       0.114   4.499   1.550  0.00  0.00    +0.145 HD
ATOM     12  H   UNL     1       0.643   6.066   1.846  0.00  0.00    +0.145 HD
ENDBRANCH   3   8
BRANCH   4  13
ATOM     13  N   UNL     1       2.573   3.730   5.516  0.00  0.00    -0.357 N 
ATOM     14  H   UNL     1       2.517   4.680   5.329  0.00  0.00    +0.142 HD
ATOM     15  H   UNL     1       3.075   3.415   6.285  0.00  0.00    +0.142 HD
ENDBRANCH   4  13
BRANCH   1  16
ATOM     16  N   UNL     1       0.017   0.068   2.178  0.00  0.00    -0.327 N 
ATOM     17  C   UNL     1      -1.183  -0.630   2.645  0.00  0.00    +0.129 C 
BRANCH  16  24
ATOM     18  C   UNL     1      -0.253  -2.563   0.998  0.00  0.00    +0.009 C 
ATOM     19  C   UNL     1       0.963  -1.671   0.742  0.00  0.00    +0.006 C 
ATOM     20  C   UNL     1       2.041  -1.966   1.786  0.00  0.00    +0.005 C 
ATOM     21  C   UNL     1       3.257  -1.074   1.530  0.00  0.00    +0.000 C 
ATOM     22  C   UNL     1       2.842   0.396   1.627  0.00  0.00    +0.002 C 
ATOM     23  C   UNL     1       1.764   0.691   0.583  0.00  0.00    +0.023 C 
ATOM     24  C   UNL     1       0.547  -0.201   0.839  0.00  0.00    +0.076 C 
ENDBRANCH  16  24
ENDBRANCH   1  16
TORSDOF 4
