REMARK  Name = ZINC05095131
REMARK  8 active torsions:
REMARK  status: ('A' for Active; 'I' for Inactive)
REMARK    1  A    between atoms: C_1  and  C_2
REMARK    2  A    between atoms: C_2  and  C_3
REMARK    3  A    between atoms: C_3  and  C_4
REMARK    4  A    between atoms: C_11  and  N_25
REMARK    5  A    between atoms: C_12  and  C_23
REMARK    6  A    between atoms: C_13  and  C_15
REMARK    7  A    between atoms: C_18  and  C_21
REMARK    8  A    between atoms: C_21  and  C_22
REMARK                            x       y       z     vdW  Elec       q    Type
REMARK                         _______ _______ _______ _____ _____    ______ ____
ROOT
ATOM      1  C   UNL     1       0.739  -2.004  -1.265  0.00  0.00    +0.071 A 
ATOM      2  C   UNL     1       1.726  -2.809  -0.712  0.00  0.00    +0.049 A 
ATOM      3  C   UNL     1       1.378  -4.114  -0.927  0.00  0.00    +0.222 A 
ATOM      4  N   UNL     1       0.212  -4.119  -1.594  0.00  0.00    -0.246 N 
ATOM      5  H   UNL     1      -0.276  -4.905  -1.884  0.00  0.00    +0.192 HD
ATOM      6  N   UNL     1      -0.176  -2.784  -1.791  0.00  0.00    -0.176 NA
ATOM      7  O   UNL     1       2.138  -5.154  -0.503  0.00  0.00    -0.423 OA
ATOM      8  C   UNL     1       3.120  -4.889   0.383  0.00  0.00    +0.200 C 
ATOM      9  C   UNL     1       3.559  -3.643   0.670  0.00  0.00    +0.098 C 
ATOM     10  C   UNL     1       2.986  -2.412   0.012  0.00  0.00    +0.101 C 
ENDROOT
BRANCH  10  11
ATOM     11  C   UNL     1       3.981  -1.851  -0.970  0.00  0.00    -0.035 A 
ATOM     12  C   UNL     1       4.429  -2.629  -2.021  0.00  0.00    +0.005 A 
ATOM     13  C   UNL     1       5.343  -2.113  -2.922  0.00  0.00    +0.004 A 
ATOM     14  C   UNL     1       5.807  -0.820  -2.773  0.00  0.00    -0.048 A 
ATOM     15  C   UNL     1       5.358  -0.042  -1.722  0.00  0.00    +0.004 A 
ATOM     16  C   UNL     1       4.442  -0.555  -0.824  0.00  0.00    +0.005 A 
BRANCH  14  17
ATOM     17  C   UNL     1       6.803  -0.259  -3.755  0.00  0.00    +0.032 C 
ATOM     18  C   UNL     1       6.057   0.415  -4.908  0.00  0.00    +0.009 C 
ENDBRANCH  14  17
ENDBRANCH  10  11
BRANCH   8  19
ATOM     19  N   UNL     1       3.708  -5.946   1.031  0.00  0.00    -0.328 N 
ATOM     20  H   UNL     1       3.415  -6.852   0.847  0.00  0.00    +0.145 HD
ATOM     21  H   UNL     1       4.417  -5.788   1.674  0.00  0.00    +0.145 HD
ENDBRANCH   8  19
BRANCH   9  22
ATOM     22  C   UNL     1       4.606  -3.486   1.633  0.00  0.00    +0.101 C 
ATOM     23  N   UNL     1       5.437  -3.361   2.398  0.00  0.00    -0.191 NA
ENDBRANCH   9  22
BRANCH   1  24
ATOM     24  C   UNL     1       0.718  -0.497  -1.257  0.00  0.00    +0.057 C 
BRANCH  24  26
ATOM     25  C   UNL     1      -0.019   1.526   0.010  0.00  0.00    +0.004 C 
ATOM     26  C   UNL     1       0.002  -0.004   0.002  0.00  0.00    +0.003 C 
ENDBRANCH  24  26
ENDBRANCH   1  24
TORSDOF 6
