REMARK  Name = ZINC00691385
REMARK  2 active torsions:
REMARK  status: ('A' for Active; 'I' for Inactive)
REMARK    1  A    between atoms: C_3  and  N_9
REMARK    2  A    between atoms: C_16  and  C_18
REMARK                            x       y       z     vdW  Elec       q    Type
REMARK                         _______ _______ _______ _____ _____    ______ ____
ROOT
ATOM      1  N   UNL     1       2.395   1.763  -0.012  0.00  0.00    -0.268 N 
ATOM      2  C   UNL     1       3.548   2.452  -0.121  0.00  0.00    +0.308 C 
ATOM      3  O   UNL     1       3.533   3.668  -0.114  0.00  0.00    -0.252 OA
ATOM      4  N   UNL     1       4.718   1.793  -0.238  0.00  0.00    -0.269 N 
ATOM      5  C   UNL     1       4.787   0.334  -0.245  0.00  0.00    +0.121 C 
ATOM      6  C   UNL     1       5.972  -0.157  -1.132  0.00  0.00    +0.090 C 
ATOM      7  S   UNL     1       7.207   1.140  -0.670  0.00  0.00    -0.132 S 
ATOM      8  C   UNL     1       6.006   2.503  -0.360  0.00  0.00    +0.166 C 
ATOM      9  H   UNL     1       2.413   0.796   0.065  0.00  0.00    +0.156 HD
ENDROOT
BRANCH   8  10
ATOM     10  C   UNL     1       6.339   3.225   0.921  0.00  0.00    -0.013 A 
ATOM     11  C   UNL     1       5.893   2.726   2.130  0.00  0.00    +0.010 A 
ATOM     12  C   UNL     1       6.200   3.383   3.307  0.00  0.00    +0.050 A 
ATOM     13  C   UNL     1       6.948   4.551   3.276  0.00  0.00    +0.162 A 
ATOM     14  C   UNL     1       7.394   5.054   2.059  0.00  0.00    +0.162 A 
ATOM     15  C   UNL     1       7.085   4.387   0.883  0.00  0.00    +0.055 A 
ATOM     16  O   UNL     1       8.136   6.193   2.007  0.00  0.00    -0.485 OA
ATOM     17  C   UNL     1       8.110   7.032   3.167  0.00  0.00    +0.270 C 
ATOM     18  C   UNL     1       8.301   6.146   4.406  0.00  0.00    +0.270 C 
ATOM     19  O   UNL     1       7.234   5.191   4.442  0.00  0.00    -0.485 OA
ENDBRANCH   8  10
BRANCH   1  22
ATOM     20  C   UNL     1      -0.142   4.358  -0.609  0.00  0.00    +0.003 A 
ATOM     21  C   UNL     1       1.067   3.689  -0.612  0.00  0.00    +0.025 A 
ATOM     22  C   UNL     1       1.171   2.443  -0.010  0.00  0.00    +0.055 A 
ATOM     23  C   UNL     1       0.058   1.871   0.594  0.00  0.00    +0.080 A 
ATOM     24  C   UNL     1      -1.151   2.543   0.589  0.00  0.00    +0.061 A 
ATOM     25  C   UNL     1      -1.248   3.788  -0.007  0.00  0.00    +0.021 A 
ATOM     26 CL   UNL     1      -2.545   1.827   1.336  0.00  0.00    -0.082 Cl
ATOM     27 CL   UNL     1       0.183   0.312   1.348  0.00  0.00    -0.080 Cl
ENDBRANCH   1  22
TORSDOF 2
