REMARK  Name = ZINC59116960
REMARK  7 active torsions:
REMARK  status: ('A' for Active; 'I' for Inactive)
REMARK    1  A    between atoms: C_1  and  C_2
REMARK    2  A    between atoms: C_2  and  O_4
REMARK    3  A    between atoms: O_4  and  C_5
REMARK    4  A    between atoms: C_8  and  C_11
REMARK    5  A    between atoms: C_12  and  C_13
REMARK    6  A    between atoms: C_12  and  C_15
REMARK    7  A    between atoms: N_17  and  C_18
REMARK                            x       y       z     vdW  Elec       q    Type
REMARK                         _______ _______ _______ _____ _____    ______ ____
ROOT
ATOM      1  C   UNL     1      -0.462  -6.243  -0.095  0.00  0.00    +0.032 C 
ATOM      2  C   UNL     1      -1.550  -7.065  -0.293  0.00  0.00    +0.114 C 
ENDROOT
BRANCH   1   6
ATOM      3  C   UNL     1      -1.038  -2.206   1.040  0.00  0.00    +0.132 A 
ATOM      4  C   UNL     1      -1.739  -3.215   1.691  0.00  0.00    +0.047 A 
ATOM      5  C   UNL     1      -1.557  -4.525   1.328  0.00  0.00    +0.011 A 
ATOM      6  C   UNL     1      -0.662  -4.846   0.298  0.00  0.00    -0.023 A 
ATOM      7  C   UNL     1       0.042  -3.824  -0.356  0.00  0.00    +0.011 A 
ATOM      8  C   UNL     1      -0.153  -2.518   0.013  0.00  0.00    +0.047 A 
BRANCH   3   9
ATOM      9  O   UNL     1      -1.222  -0.912   1.403  0.00  0.00    -0.426 OA
BRANCH   9  11
ATOM     10  C   UNL     1      -0.734   0.963   2.935  0.00  0.00    +0.136 C 
ATOM     11  C   UNL     1      -0.653  -0.490   2.545  0.00  0.00    +0.309 C 
ATOM     12  O   UNL     1      -0.077  -1.277   3.259  0.00  0.00    -0.251 OA
ENDBRANCH   9  11
ENDBRANCH   3   9
ENDBRANCH   1   6
BRANCH   2  13
ATOM     13  C   UNL     1      -2.905  -6.495  -0.333  0.00  0.00    +0.259 C 
ATOM     14  O   UNL     1      -3.058  -5.288  -0.319  0.00  0.00    -0.269 OA
ATOM     15  N   UNL     1      -3.978  -7.309  -0.384  0.00  0.00    -0.281 N 
ATOM     16  H   UNL     1      -3.860  -8.270  -0.323  0.00  0.00    +0.155 HD
BRANCH  15  17
ATOM     17  C   UNL     1      -5.260  -6.769  -0.526  0.00  0.00    +0.034 A 
ATOM     18  C   UNL     1      -5.453  -5.625  -1.290  0.00  0.00    +0.025 A 
ATOM     19  C   UNL     1      -6.720  -5.094  -1.429  0.00  0.00    +0.022 A 
ATOM     20  C   UNL     1      -7.797  -5.699  -0.806  0.00  0.00    +0.041 A 
ATOM     21  C   UNL     1      -7.608  -6.839  -0.044  0.00  0.00    +0.022 A 
ATOM     22  C   UNL     1      -6.344  -7.378   0.093  0.00  0.00    +0.025 A 
ATOM     23 CL   UNL     1      -9.389  -5.028  -0.981  0.00  0.00    -0.084 Cl
ENDBRANCH  15  17
ENDBRANCH   2  13
BRANCH   2  24
ATOM     24  C   UNL     1      -1.361  -8.475  -0.460  0.00  0.00    +0.104 C 
ATOM     25  N   UNL     1      -1.211  -9.593  -0.593  0.00  0.00    -0.191 NA
ENDBRANCH   2  24
TORSDOF 6
