REMARK  Name = ZINC62022787
REMARK  4 active torsions:
REMARK  status: ('A' for Active; 'I' for Inactive)
REMARK    1  A    between atoms: C_1  and  C_2
REMARK    2  A    between atoms: C_2  and  C_4
REMARK    3  A    between atoms: C_2  and  N_10
REMARK    4  A    between atoms: C_11  and  C_13
REMARK                            x       y       z     vdW  Elec       q    Type
REMARK                         _______ _______ _______ _____ _____    ______ ____
ROOT
ATOM      1  C   UNL     1      -3.390  -0.884  -1.022  0.00  0.00    +0.092 C 
ATOM      2  C   UNL     1      -3.855  -1.150  -2.455  0.00  0.00    +0.016 C 
ATOM      3  C   UNL     1      -5.180  -1.915  -2.430  0.00  0.00    +0.020 C 
ATOM      4  C   UNL     1      -6.243  -1.065  -1.728  0.00  0.00    +0.106 C 
ATOM      5  N   UNL     1      -5.742  -0.683  -0.400  0.00  0.00    -0.313 N 
ATOM      6  C   UNL     1      -4.433  -0.022  -0.302  0.00  0.00    +0.119 C 
ATOM      7  C   UNL     1      -6.492  -0.942   0.743  0.00  0.00    +0.144 A 
ATOM      8  C   UNL     1      -7.816  -1.367   0.629  0.00  0.00    +0.049 A 
ATOM      9  C   UNL     1      -8.522  -1.611   1.794  0.00  0.00    +0.053 A 
ATOM     10  C   UNL     1      -7.865  -1.419   3.009  0.00  0.00    +0.176 A 
ATOM     11  N   UNL     1      -6.607  -1.014   3.021  0.00  0.00    -0.128 NA
ATOM     12  N   UNL     1      -5.950  -0.791   1.941  0.00  0.00    -0.132 NA
ATOM     13  N   UNL     1      -8.538  -1.653   4.215  0.00  0.00    -0.220 N 
ATOM     14  C   UNL     1      -8.022  -1.500   5.462  0.00  0.00    +0.116 A 
ATOM     15  C   UNL     1      -8.990  -1.827   6.348  0.00  0.00    +0.041 A 
ATOM     16  C   UNL     1     -10.132  -2.190   5.626  0.00  0.00    +0.135 A 
ATOM     17  N   UNL     1      -9.865  -2.081   4.350  0.00  0.00    -0.173 NA
ENDROOT
BRANCH   1  19
ATOM     18  N   UNL     1      -1.466   0.183   0.108  0.00  0.00    -0.308 N 
ATOM     19  C   UNL     1      -2.070  -0.159  -1.047  0.00  0.00    +0.218 C 
ATOM     20  O   UNL     1      -1.550   0.117  -2.108  0.00  0.00    -0.275 OA
ATOM     21  H   UNL     1      -1.881  -0.038   0.957  0.00  0.00    +0.149 HD
BRANCH  18  23
ATOM     22  C   UNL     1      -0.428   2.391  -0.062  0.00  0.00    +0.033 C 
ATOM     23  C   UNL     1      -0.182   0.887   0.084  0.00  0.00    +0.100 C 
BRANCH  23  24
ATOM     24  C   UNL     1       0.562   0.622   1.367  0.00  0.00    -0.027 A 
ATOM     25  C   UNL     1      -0.122   0.586   2.567  0.00  0.00    +0.005 A 
ATOM     26  C   UNL     1       0.560   0.343   3.745  0.00  0.00    +0.000 A 
ATOM     27  C   UNL     1       1.926   0.135   3.722  0.00  0.00    +0.000 A 
ATOM     28  C   UNL     1       2.610   0.170   2.521  0.00  0.00    +0.000 A 
ATOM     29  C   UNL     1       1.928   0.409   1.343  0.00  0.00    +0.005 A 
ENDBRANCH  23  24
ENDBRANCH  18  23
ENDBRANCH   1  19
TORSDOF 3
