REMARK  Name = ZINC56170521
REMARK  14 active torsions:
REMARK  status: ('A' for Active; 'I' for Inactive)
REMARK    1  A    between atoms: C_1  and  C_2
REMARK    2  A    between atoms: C_2  and  C_4
REMARK    3  A    between atoms: C_2  and  N_14
REMARK    4  A    between atoms: C_7  and  O_10
REMARK    5  A    between atoms: O_10  and  C_11
REMARK    6  A    between atoms: C_11  and  C_12
REMARK    7  A    between atoms: C_11  and  C_13
REMARK    8  A    between atoms: N_14  and  C_15
REMARK    9  A    between atoms: C_15  and  C_17
REMARK   10  A    between atoms: C_15  and  C_18
REMARK   11  A    between atoms: C_18  and  C_20
REMARK   12  A    between atoms: C_21  and  N_30
REMARK   13  A    between atoms: N_22  and  C_29
REMARK   14  A    between atoms: N_25  and  C_28
REMARK                            x       y       z     vdW  Elec       q    Type
REMARK                         _______ _______ _______ _____ _____    ______ ____
ROOT
ATOM      1  C   UNL     1      -2.377  -1.108  -2.459  0.00  0.00    -0.001 C 
ATOM      2  C   UNL     1      -2.043   0.335  -2.076  0.00  0.00    -0.006 C 
ENDROOT
BRANCH   1   3
ATOM      3  N   UNL     1      -2.061  -1.998  -1.334  0.00  0.00    +0.390 N 
ATOM      4  H   UNL     1      -2.375  -2.933  -1.546  0.00  0.00    -0.084 HD
ATOM      5  H   UNL     1      -2.526  -1.668  -0.502  0.00  0.00    -0.084 HD
BRANCH   3   7
ATOM      6  C   UNL     1      -0.292  -2.826   0.144  0.00  0.00    -0.009 C 
ATOM      7  C   UNL     1      -0.609  -2.009  -1.111  0.00  0.00    -0.043 C 
BRANCH   7   8
ATOM      8  C   UNL     1       0.078  -2.629  -2.300  0.00  0.00    -0.061 A 
ATOM      9  C   UNL     1      -0.480  -3.729  -2.923  0.00  0.00    +0.005 A 
ATOM     10  C   UNL     1       0.147  -4.300  -4.014  0.00  0.00    +0.046 A 
ATOM     11  C   UNL     1       1.339  -3.767  -4.484  0.00  0.00    +0.121 A 
ATOM     12  C   UNL     1       1.897  -2.662  -3.857  0.00  0.00    +0.046 A 
ATOM     13  C   UNL     1       1.262  -2.092  -2.770  0.00  0.00    +0.005 A 
BRANCH  11  14
ATOM     14  O   UNL     1       1.959  -4.326  -5.556  0.00  0.00    -0.489 OA
BRANCH  14  15
ATOM     15  C   UNL     1       1.398  -5.535  -6.072  0.00  0.00    +0.167 C 
ATOM     16  C   UNL     1       0.242  -5.199  -7.016  0.00  0.00    +0.051 C 
ATOM     17  C   UNL     1       2.472  -6.310  -6.837  0.00  0.00    +0.051 C 
ENDBRANCH  14  15
ENDBRANCH  11  14
ENDBRANCH   7   8
ENDBRANCH   3   7
ENDBRANCH   1   3
BRANCH   1  18
ATOM     18  C   UNL     1      -3.844  -1.215  -2.787  0.00  0.00    +0.158 C 
ATOM     19  O   UNL     1      -4.620  -1.651  -1.962  0.00  0.00    -0.294 OA
BRANCH  18  20
ATOM     20  C   UNL     1      -4.314  -0.807  -4.053  0.00  0.00    +0.118 A 
ATOM     21  C   UNL     1      -5.689  -0.797  -4.347  0.00  0.00    +0.116 A 
ATOM     22  N   UNL     1      -6.097  -0.394  -5.587  0.00  0.00    -0.284 N 
ATOM     23  C   UNL     1      -5.213  -0.011  -6.521  0.00  0.00    +0.333 A 
ATOM     24  O   UNL     1      -5.626   0.339  -7.609  0.00  0.00    -0.246 OA
ATOM     25  N   UNL     1      -3.889   0.000  -6.298  0.00  0.00    -0.263 N 
ATOM     26  C   UNL     1      -3.385  -0.374  -5.104  0.00  0.00    +0.269 A 
ATOM     27  O   UNL     1      -2.184  -0.358  -4.904  0.00  0.00    -0.267 OA
ATOM     28  C   UNL     1      -2.980   0.430  -7.364  0.00  0.00    +0.157 C 
ATOM     29  C   UNL     1      -7.527  -0.380  -5.903  0.00  0.00    +0.155 C 
BRANCH  21  30
ATOM     30  N   UNL     1      -6.599  -1.183  -3.412  0.00  0.00    -0.344 N 
ATOM     31  H   UNL     1      -6.380  -1.124  -2.469  0.00  0.00    +0.144 HD
ATOM     32  H   UNL     1      -7.466  -1.517  -3.688  0.00  0.00    +0.144 HD
ENDBRANCH  21  30
ENDBRANCH  18  20
ENDBRANCH   1  18
TORSDOF 8
