REMARK  Name = ZINC40214869
REMARK  3 active torsions:
REMARK  status: ('A' for Active; 'I' for Inactive)
REMARK    1  A    between atoms: C_4  and  N_16
REMARK    2  A    between atoms: C_6  and  N_7
REMARK    3  A    between atoms: C_8  and  C_10
REMARK                            x       y       z     vdW  Elec       q    Type
REMARK                         _______ _______ _______ _____ _____    ______ ____
ROOT
ATOM      1  C   UNL     1      -0.013   1.374   0.194  0.00  0.00    +0.025 A 
ATOM      2  C   UNL     1       1.174   2.082   0.191  0.00  0.00    +0.024 A 
ATOM      3  C   UNL     1       2.374   1.421   0.002  0.00  0.00    +0.071 A 
ATOM      4  C   UNL     1       2.391   0.049  -0.184  0.00  0.00    +0.146 A 
ATOM      5  C   UNL     1       1.208  -0.663  -0.181  0.00  0.00    +0.057 A 
ATOM      6  C   UNL     1       0.001  -0.002   0.007  0.00  0.00    +0.036 A 
ATOM      7 CL   UNL     1       3.864   2.313  -0.002  0.00  0.00    -0.081 Cl
ENDROOT
BRANCH   6   8
ATOM      8  N   UNL     1      -1.199  -0.721   0.010  0.00  0.00    -0.281 N 
ATOM      9  C   UNL     1      -2.325  -0.156  -0.469  0.00  0.00    +0.255 C 
ATOM     10  O   UNL     1      -2.279   0.943  -0.992  0.00  0.00    -0.269 OA
ATOM     11  H   UNL     1      -1.221  -1.627   0.357  0.00  0.00    +0.155 HD
BRANCH   9  12
ATOM     12  C   UNL     1      -3.603  -0.863  -0.361  0.00  0.00    +0.075 A 
ATOM     13  C   UNL     1      -4.861  -0.466  -0.789  0.00  0.00    +0.022 A 
ATOM     14  C   UNL     1      -5.882  -1.352  -0.546  0.00  0.00    +0.024 A 
ATOM     15  C   UNL     1      -5.603  -2.524   0.079  0.00  0.00    +0.056 A 
ATOM     16  S   UNL     1      -3.945  -2.462   0.348  0.00  0.00    -0.077 S 
ATOM     17 BR   UNL     1      -6.803  -3.912   0.536  0.00  0.00    -0.043 Br
ENDBRANCH   9  12
ENDBRANCH   6   8
BRANCH   4  18
ATOM     18  N   UNL     1       3.677  -0.654  -0.386  0.00  0.00    +0.058 N 
ATOM     19  O   UNL     1       3.692  -1.852  -0.548  0.00  0.00    -0.126 OA
ATOM     20  O   UNL     1       4.713  -0.031  -0.388  0.00  0.00    -0.126 OA
ENDBRANCH   4  18
TORSDOF 3
