REMARK  Name = ZINC67447081
REMARK  7 active torsions:
REMARK  status: ('A' for Active; 'I' for Inactive)
REMARK    1  A    between atoms: C_1  and  C_2
REMARK    2  A    between atoms: C_6  and  C_8
REMARK    3  A    between atoms: C_8  and  C_10
REMARK    4  A    between atoms: C_8  and  N_11
REMARK    5  A    between atoms: N_11  and  S_12
REMARK    6  A    between atoms: S_12  and  C_15
REMARK    7  A    between atoms: C_16  and  C_24
REMARK                            x       y       z     vdW  Elec       q    Type
REMARK                         _______ _______ _______ _____ _____    ______ ____
ROOT
ATOM      1  S   UNL     1      -6.150   1.433  -2.866  0.00  0.00    +0.066 S 
ATOM      2  O   UNL     1      -6.898   0.781  -1.848  0.00  0.00    -0.153 OA
ATOM      3  O   UNL     1      -6.662   2.539  -3.597  0.00  0.00    -0.153 OA
ENDROOT
BRANCH   1   4
ATOM      4  C   UNL     1      -5.729   0.198  -4.050  0.00  0.00    +0.157 A 
ATOM      5  C   UNL     1      -6.579  -0.506  -4.880  0.00  0.00    +0.100 A 
ATOM      6  C   UNL     1      -5.981  -1.477  -5.773  0.00  0.00    -0.025 A 
ATOM      7  C   UNL     1      -4.634  -1.569  -5.672  0.00  0.00    -0.021 A 
ATOM      8  S   UNL     1      -4.201  -0.387  -4.432  0.00  0.00    -0.074 S 
ATOM      9  C   UNL     1      -3.751  -2.483  -6.461  0.00  0.00    -0.039 C 
ATOM     10  N   UNL     1      -4.594  -3.523  -7.079  0.00  0.00    +0.382 N 
ATOM     11  C   UNL     1      -5.721  -2.893  -7.779  0.00  0.00    -0.077 C 
ATOM     12  C   UNL     1      -6.735  -2.349  -6.766  0.00  0.00    +0.018 C 
ATOM     13  H   UNL     1      -4.044  -4.053  -7.738  0.00  0.00    -0.085 HD
ATOM     14  H   UNL     1      -4.946  -4.139  -6.362  0.00  0.00    -0.085 HD
BRANCH   5  15
ATOM     15  C   UNL     1      -8.028  -0.280  -4.857  0.00  0.00    +0.389 C 
ATOM     16  O   UNL     1      -8.507   0.547  -4.092  0.00  0.00    -0.240 OA
ATOM     17  O   UNL     1      -8.759  -0.918  -5.603  0.00  0.00    -0.240 OA
ENDBRANCH   5  15
ENDBRANCH   1   4
BRANCH   1  18
ATOM     18  N   UNL     1      -4.739   1.941  -2.165  0.00  0.00    -0.179 NA
ATOM     19  H   UNL     1      -4.580   1.779  -1.222  0.00  0.00    +0.149 HD
BRANCH  18  20
ATOM     20  C   UNL     1      -3.730   2.634  -2.970  0.00  0.00    +0.140 C 
ATOM     21  C   UNL     1      -3.916   4.146  -2.829  0.00  0.00    +0.034 C 
BRANCH  20  27
ATOM     22  C   UNL     1      -0.013   1.086   0.008  0.00  0.00    +0.090 C 
ATOM     23  C   UNL     1      -0.742   1.585  -1.213  0.00  0.00    +0.148 A 
ATOM     24  N   UNL     1      -0.194   1.847  -2.370  0.00  0.00    -0.158 NA
ATOM     25  H   UNL     1      -1.140   2.552  -4.146  0.00  0.00    +0.190 HD
ATOM     26  N   UNL     1      -1.225   2.283  -3.218  0.00  0.00    -0.261 N 
ATOM     27  C   UNL     1      -2.354   2.251  -2.489  0.00  0.00    +0.144 A 
ATOM     28  N   UNL     1      -2.050   1.826  -1.289  0.00  0.00    -0.215 NA
ENDBRANCH  20  27
ENDBRANCH  18  20
ENDBRANCH   1  18
TORSDOF 5
