REMARK  Name = ZINC12662083
REMARK  11 active torsions:
REMARK  status: ('A' for Active; 'I' for Inactive)
REMARK    1  A    between atoms: C_1  and  O_2
REMARK    2  A    between atoms: O_2  and  C_3
REMARK    3  A    between atoms: C_6  and  C_9
REMARK    4  A    between atoms: C_9  and  C_10
REMARK    5  A    between atoms: C_10  and  N_11
REMARK    6  A    between atoms: C_12  and  C_14
REMARK    7  A    between atoms: N_20  and  C_21
REMARK    8  A    between atoms: C_26  and  O_34
REMARK    9  A    between atoms: C_27  and  O_32
REMARK   10  A    between atoms: O_32  and  C_33
REMARK   11  A    between atoms: O_34  and  C_35
REMARK                            x       y       z     vdW  Elec       q    Type
REMARK                         _______ _______ _______ _____ _____    ______ ____
ROOT
ATOM      1  C   UNL     1       1.838  -3.362  -2.298  0.00  0.00    +0.166 C 
ATOM      2  C   UNL     1       0.555  -2.938  -3.047  0.00  0.00    +0.041 C 
ATOM      3  C   UNL     1      -0.540  -3.263  -2.006  0.00  0.00    +0.098 C 
ATOM      4  C   UNL     1       0.181  -3.211  -0.677  0.00  0.00    +0.219 C 
ATOM      5  O   UNL     1      -0.361  -3.136   0.405  0.00  0.00    -0.275 OA
ATOM      6  N   UNL     1       1.510  -3.256  -0.871  0.00  0.00    -0.251 N 
ENDROOT
BRANCH   6   7
ATOM      7  C   UNL     1       2.504  -3.213   0.204  0.00  0.00    +0.302 C 
ATOM      8  C   UNL     1       2.374  -4.434   1.080  0.00  0.00    +0.029 A 
ATOM      9  C   UNL     1       2.493  -5.782   0.841  0.00  0.00    +0.013 A 
ATOM     10  C   UNL     1       2.313  -6.691   1.872  0.00  0.00    +0.050 A 
ATOM     11  C   UNL     1       2.013  -6.247   3.149  0.00  0.00    +0.162 A 
ATOM     12  C   UNL     1       1.889  -4.885   3.405  0.00  0.00    +0.176 A 
ATOM     13  C   UNL     1       2.071  -3.966   2.363  0.00  0.00    +0.112 A 
ATOM     14  C   UNL     1       2.009  -2.498   2.311  0.00  0.00    +0.345 C 
ATOM     15  O   UNL     1       1.766  -1.778   3.260  0.00  0.00    -0.245 OA
ATOM     16  O   UNL     1       2.260  -2.065   1.064  0.00  0.00    -0.435 OA
BRANCH  12  17
ATOM     17  O   UNL     1       1.595  -4.449   4.656  0.00  0.00    -0.491 OA
ATOM     18  C   UNL     1       0.211  -4.303   4.983  0.00  0.00    +0.277 C 
ENDBRANCH  12  17
BRANCH  11  19
ATOM     19  O   UNL     1       1.837  -7.145   4.155  0.00  0.00    -0.491 OA
ATOM     20  C   UNL     1       1.978  -8.528   3.823  0.00  0.00    +0.277 C 
ENDBRANCH  11  19
ENDBRANCH   6   7
BRANCH   1  22
ATOM     21  N   UNL     1       3.793  -2.725  -3.672  0.00  0.00    -0.313 N 
ATOM     22  C   UNL     1       2.975  -2.435  -2.641  0.00  0.00    +0.234 C 
ATOM     23  O   UNL     1       3.155  -1.427  -1.990  0.00  0.00    -0.274 OA
ATOM     24  H   UNL     1       3.650  -3.530  -4.194  0.00  0.00    +0.149 HD
BRANCH  21  25
ATOM     25  C   UNL     1       4.899  -1.824  -4.007  0.00  0.00    +0.109 C 
BRANCH  25  26
ATOM     26  C   UNL     1       5.666  -2.381  -5.207  0.00  0.00    +0.054 C 
BRANCH  26  30
ATOM     27  C   UNL     1       8.891   0.247  -6.182  0.00  0.00    +0.120 A 
ATOM     28  C   UNL     1       9.088  -0.789  -5.281  0.00  0.00    +0.046 A 
ATOM     29  C   UNL     1       8.043  -1.637  -4.967  0.00  0.00    +0.007 A 
ATOM     30  C   UNL     1       6.803  -1.454  -5.551  0.00  0.00    -0.046 A 
ATOM     31  C   UNL     1       6.607  -0.425  -6.454  0.00  0.00    +0.007 A 
ATOM     32  C   UNL     1       7.646   0.429  -6.766  0.00  0.00    +0.046 A 
BRANCH  27  34
ATOM     33  C   UNL     1       9.643   2.128  -7.428  0.00  0.00    +0.277 C 
ATOM     34  O   UNL     1       9.917   1.083  -6.493  0.00  0.00    -0.495 OA
ENDBRANCH  27  34
ENDBRANCH  26  30
ENDBRANCH  25  26
ENDBRANCH  21  25
ENDBRANCH   1  22
TORSDOF 8
