REMARK  Name = ZINC09389051
REMARK  4 active torsions:
REMARK  status: ('A' for Active; 'I' for Inactive)
REMARK    1  A    between atoms: C_1  and  C_2
REMARK    2  A    between atoms: C_2  and  C_25
REMARK    3  A    between atoms: N_5  and  C_9
REMARK    4  A    between atoms: C_9  and  C_10
REMARK                            x       y       z     vdW  Elec       q    Type
REMARK                         _______ _______ _______ _____ _____    ______ ____
ROOT
ATOM      1  C   UNL     1       1.167   7.936  -1.439  0.00  0.00    +0.047 C 
ATOM      2  C   UNL     1       1.165   7.405  -0.005  0.00  0.00    +0.135 C 
ATOM      3  C   UNL     1       2.333   7.973   0.776  0.00  0.00    +0.251 C 
ATOM      4  O   UNL     1       3.513   7.832   0.537  0.00  0.00    -0.272 OA
ATOM      5  N   UNL     1       1.787   8.670   1.792  0.00  0.00    -0.220 N 
ATOM      6  C   UNL     1       0.450   8.621   1.762  0.00  0.00    +0.310 C 
ATOM      7  O   UNL     1      -0.265   9.174   2.575  0.00  0.00    -0.252 OA
ATOM      8  N   UNL     1      -0.016   7.893   0.727  0.00  0.00    -0.281 N 
ATOM      9  H   UNL     1      -0.945   7.723   0.507  0.00  0.00    +0.152 HD
ENDROOT
BRANCH   2  10
ATOM     10  C   UNL     1       1.207   5.898   0.001  0.00  0.00    -0.015 A 
ATOM     11  C   UNL     1       2.439   5.246   0.032  0.00  0.00    +0.007 A 
ATOM     12  C   UNL     1       2.512   3.887   0.038  0.00  0.00    +0.009 A 
ATOM     13  C   UNL     1       1.330   3.127   0.012  0.00  0.00    -0.018 A 
ATOM     14  C   UNL     1       1.365   1.722   0.016  0.00  0.00    +0.008 A 
ATOM     15  C   UNL     1       0.201   1.019  -0.010  0.00  0.00    +0.001 A 
ATOM     16  C   UNL     1      -1.031   1.671  -0.047  0.00  0.00    +0.001 A 
ATOM     17  C   UNL     1      -1.104   3.030  -0.046  0.00  0.00    +0.008 A 
ATOM     18  C   UNL     1       0.078   3.790  -0.020  0.00  0.00    -0.018 A 
ATOM     19  C   UNL     1       0.043   5.195  -0.026  0.00  0.00    +0.014 A 
ENDBRANCH   2  10
BRANCH   5  20
ATOM     20  C   UNL     1       2.561   9.393   2.805  0.00  0.00    +0.154 C 
BRANCH  20  21
ATOM     21  C   UNL     1       2.909  10.765   2.286  0.00  0.00    -0.012 A 
ATOM     22  C   UNL     1       2.351  11.153   1.101  0.00  0.00    +0.098 A 
ATOM     23  C   UNL     1       2.702  12.389   0.529  0.00  0.00    +0.338 A 
ATOM     24  O   UNL     1       2.139  12.774  -0.479  0.00  0.00    -0.245 OA
ATOM     25  O   UNL     1       3.657  13.145   1.092  0.00  0.00    -0.422 OA
ATOM     26  C   UNL     1       4.218  12.796   2.269  0.00  0.00    +0.140 A 
ATOM     27  C   UNL     1       3.771  11.653   2.960  0.00  0.00    +0.030 A 
ATOM     28  C   UNL     1       4.213  11.493   4.343  0.00  0.00    -0.007 A 
ATOM     29  C   UNL     1       3.566  10.704   5.295  0.00  0.00    +0.009 A 
ATOM     30  C   UNL     1       4.153  10.463   6.506  0.00  0.00    +0.001 A 
ATOM     31  C   UNL     1       5.379  11.030   6.835  0.00  0.00    +0.001 A 
ATOM     32  C   UNL     1       5.974  11.913   5.986  0.00  0.00    +0.008 A 
ATOM     33  C   UNL     1       5.353  12.229   4.768  0.00  0.00    -0.017 A 
ATOM     34  C   UNL     1       5.818  13.303   3.985  0.00  0.00    +0.012 A 
ATOM     35  C   UNL     1       5.224  13.604   2.806  0.00  0.00    +0.047 A 
ENDBRANCH  20  21
ENDBRANCH   5  20
TORSDOF 3
