REMARK  Name = ZINC34897475
REMARK  8 active torsions:
REMARK  status: ('A' for Active; 'I' for Inactive)
REMARK    1  A    between atoms: C_1  and  C_2
REMARK    2  A    between atoms: C_2  and  C_3
REMARK    3  A    between atoms: C_3  and  C_4
REMARK    4  A    between atoms: C_9  and  C_24
REMARK    5  A    between atoms: C_14  and  C_22
REMARK    6  A    between atoms: C_15  and  N_21
REMARK    7  A    between atoms: C_16  and  C_17
REMARK    8  A    between atoms: C_16  and  C_19
REMARK                            x       y       z     vdW  Elec       q    Type
REMARK                         _______ _______ _______ _____ _____    ______ ____
ROOT
ATOM      1  C   UNL     1       0.849  -2.021  -1.204  0.00  0.00    +0.036 C 
ATOM      2  C   UNL     1       1.771  -2.495  -2.330  0.00  0.00    +0.026 C 
ATOM      3  C   UNL     1       3.076  -1.735  -2.347  0.00  0.00    +0.012 C 
ATOM      4  C   UNL     1       4.199  -2.517  -1.667  0.00  0.00    -0.010 C 
ATOM      5  C   UNL     1       4.370  -3.854  -2.400  0.00  0.00    +0.030 C 
ATOM      6  C   UNL     1       3.074  -4.614  -2.278  0.00  0.00    -0.022 C 
ATOM      7  C   UNL     1       1.937  -3.981  -2.209  0.00  0.00    -0.029 C 
ATOM      8  C   UNL     1       0.705  -4.777  -1.964  0.00  0.00    +0.074 C 
ATOM      9  C   UNL     1      -0.429  -4.144  -1.572  0.00  0.00    +0.054 C 
ATOM     10  C   UNL     1      -0.528  -2.660  -1.386  0.00  0.00    +0.184 C 
ATOM     11  C   UNL     1       5.501  -1.717  -1.740  0.00  0.00    +0.008 C 
ENDROOT
BRANCH   9  12
ATOM     12  N   UNL     1      -1.541  -4.901  -1.331  0.00  0.00    -0.358 N 
ATOM     13  H   UNL     1      -1.506  -5.864  -1.442  0.00  0.00    +0.142 HD
ATOM     14  H   UNL     1      -2.366  -4.475  -1.050  0.00  0.00    +0.142 HD
ENDBRANCH   9  12
BRANCH  10  15
ATOM     15  C   UNL     1      -1.350  -2.375  -0.199  0.00  0.00    +0.091 C 
ATOM     16  N   UNL     1      -1.984  -2.156   0.718  0.00  0.00    -0.195 NA
ENDBRANCH  10  15
BRANCH  10  17
ATOM     17  C   UNL     1      -1.178  -2.072  -2.570  0.00  0.00    +0.091 C 
ATOM     18  N   UNL     1      -1.679  -1.619  -3.483  0.00  0.00    -0.195 NA
ENDBRANCH  10  17
BRANCH   8  19
ATOM     19  C   UNL     1       0.716  -6.198  -2.140  0.00  0.00    +0.101 C 
ATOM     20  N   UNL     1       0.725  -7.326  -2.280  0.00  0.00    -0.191 NA
ENDBRANCH   8  19
BRANCH   1  21
ATOM     21  C   UNL     1       0.718  -0.497  -1.257  0.00  0.00    +0.007 C 
BRANCH  21  23
ATOM     22  C   UNL     1      -0.083   1.518  -0.016  0.00  0.00    +0.004 C 
ATOM     23  C   UNL     1      -0.079  -0.012  -0.044  0.00  0.00    -0.003 C 
ENDBRANCH  21  23
ENDBRANCH   1  21
TORSDOF 6
