REMARK  Name = ZINC61630733
REMARK  3 active torsions:
REMARK  status: ('A' for Active; 'I' for Inactive)
REMARK    1  A    between atoms: C_3  and  N_16
REMARK    2  A    between atoms: C_5  and  C_8
REMARK    3  A    between atoms: C_8  and  N_9
REMARK                            x       y       z     vdW  Elec       q    Type
REMARK                         _______ _______ _______ _____ _____    ______ ____
ROOT
ATOM      1  C   UNL     1      -0.017   1.385   0.010  0.00  0.00    +0.025 A 
ATOM      2  C   UNL     1       1.190   2.062   0.002  0.00  0.00    +0.045 A 
ATOM      3  C   UNL     1       2.374   1.333  -0.013  0.00  0.00    +0.117 A 
ATOM      4  N   UNL     1       2.351   0.009  -0.020  0.00  0.00    -0.235 NA
ATOM      5  C   UNL     1       1.216  -0.664  -0.013  0.00  0.00    +0.076 A 
ATOM      6  C   UNL     1       0.002  -0.004   0.002  0.00  0.00    +0.064 A 
ATOM      7 CL   UNL     1      -1.484  -0.901   0.012  0.00  0.00    -0.082 Cl
ENDROOT
BRANCH   3   8
ATOM      8  N   UNL     1       3.594   2.000  -0.022  0.00  0.00    -0.343 N 
ATOM      9  H   UNL     1       3.616   2.970  -0.017  0.00  0.00    +0.144 HD
ATOM     10  H   UNL     1       4.423   1.496  -0.033  0.00  0.00    +0.144 HD
ENDBRANCH   3   8
BRANCH   5  11
ATOM     11  C   UNL     1       1.244  -2.171  -0.021  0.00  0.00    +0.142 C 
BRANCH  11  12
ATOM     12  N   UNL     1       1.266  -2.667   1.361  0.00  0.00    -0.287 NA
ATOM     13  C   UNL     1       1.507  -4.119   1.395  0.00  0.00    +0.104 C 
ATOM     14  C   UNL     1       1.827  -4.530   2.834  0.00  0.00    +0.119 C 
ATOM     15  N   UNL     1       0.816  -3.997   3.743  0.00  0.00    -0.313 N 
ATOM     16  C   UNL     1      -0.004  -2.994   3.411  0.00  0.00    +0.227 C 
ATOM     17  O   UNL     1      -0.794  -2.592   4.239  0.00  0.00    -0.274 OA
ATOM     18  C   UNL     1       0.013  -2.345   2.056  0.00  0.00    +0.180 C 
ATOM     19  H   UNL     1       0.736  -4.388   4.627  0.00  0.00    +0.149 HD
ENDBRANCH  11  12
ENDBRANCH   5  11
TORSDOF 3
