REMARK  Name = ZINC08833004
REMARK  12 active torsions:
REMARK  status: ('A' for Active; 'I' for Inactive)
REMARK    1  A    between atoms: C_1  and  C_2
REMARK    2  A    between atoms: C_2  and  O_3
REMARK    3  A    between atoms: O_3  and  C_4
REMARK    4  A    between atoms: C_4  and  C_6
REMARK    5  A    between atoms: C_7  and  C_34
REMARK    6  A    between atoms: C_8  and  C_32
REMARK    7  A    between atoms: C_9  and  N_11
REMARK    8  A    between atoms: N_11  and  C_12
REMARK    9  A    between atoms: C_12  and  N_14
REMARK   10  A    between atoms: C_15  and  C_17
REMARK   11  A    between atoms: C_20  and  N_26
REMARK   12  A    between atoms: C_21  and  N_23
REMARK                            x       y       z     vdW  Elec       q    Type
REMARK                         _______ _______ _______ _____ _____    ______ ____
ROOT
ATOM      1  N   UNL     1       5.971   0.369  -0.054  0.00  0.00    -0.264 N 
ATOM      2  C   UNL     1       6.941   1.305  -0.058  0.00  0.00    +0.250 C 
ATOM      3  O   UNL     1       6.648   2.485  -0.048  0.00  0.00    -0.270 OA
ATOM      4  H   UNL     1       6.205  -0.572  -0.061  0.00  0.00    +0.157 HD
ENDROOT
BRANCH   2   5
ATOM      5  C   UNL     1       8.358   0.897  -0.074  0.00  0.00    +0.039 A 
ATOM      6  C   UNL     1       8.697  -0.459  -0.079  0.00  0.00    +0.015 A 
ATOM      7  C   UNL     1      10.009  -0.836  -0.101  0.00  0.00    +0.026 A 
ATOM      8  C   UNL     1      11.015   0.127  -0.104  0.00  0.00    +0.060 A 
ATOM      9  C   UNL     1      10.687   1.480  -0.093  0.00  0.00    +0.148 A 
ATOM     10  C   UNL     1       9.366   1.867  -0.078  0.00  0.00    +0.047 A 
BRANCH   8  11
ATOM     11  N   UNL     1      12.349  -0.263  -0.120  0.00  0.00    -0.328 N 
ATOM     12  C   UNL     1      12.675  -0.976  -1.361  0.00  0.00    +0.105 C 
ATOM     13  C   UNL     1      14.178  -1.261  -1.408  0.00  0.00    +0.019 C 
ATOM     14  C   UNL     1      14.570  -2.107  -0.194  0.00  0.00    +0.003 C 
ATOM     15  C   UNL     1      14.176  -1.363   1.085  0.00  0.00    +0.019 C 
ATOM     16  C   UNL     1      12.674  -1.075   1.060  0.00  0.00    +0.105 C 
ENDBRANCH   8  11
BRANCH   9  17
ATOM     17  N   UNL     1      11.758   2.502  -0.098  0.00  0.00    +0.058 N 
ATOM     18  O   UNL     1      11.470   3.686  -0.088  0.00  0.00    -0.126 OA
ATOM     19  O   UNL     1      12.926   2.159  -0.111  0.00  0.00    -0.126 OA
ENDBRANCH   9  17
ENDBRANCH   2   5
BRANCH   1  20
ATOM     20  C   UNL     1       4.676   0.742  -0.039  0.00  0.00    +0.141 C 
ATOM     21  S   UNL     1       4.263   2.403  -0.025  0.00  0.00    -0.018 S 
BRANCH  20  22
ATOM     22  N   UNL     1       3.705  -0.194  -0.035  0.00  0.00    -0.290 N 
ATOM     23  H   UNL     1       3.939  -1.135  -0.042  0.00  0.00    +0.154 HD
BRANCH  22  27
ATOM     24  C   UNL     1      -0.017   1.376   0.010  0.00  0.00    +0.102 A 
ATOM     25  C   UNL     1       0.002  -0.004   0.002  0.00  0.00    -0.010 A 
ATOM     26  C   UNL     1       1.240  -0.624  -0.013  0.00  0.00    +0.084 A 
ATOM     27  C   UNL     1       2.378   0.188  -0.020  0.00  0.00    +0.090 A 
ATOM     28  S   UNL     1       1.718   1.790  -0.005  0.00  0.00    -0.065 S 
ATOM     29  C   UNL     1      -1.275  -0.805   0.010  0.00  0.00    +0.046 C 
BRANCH  24  30
ATOM     30  C   UNL     1      -1.170   2.274   0.020  0.00  0.00    +0.346 C 
ATOM     31  O   UNL     1      -2.297   1.817   0.023  0.00  0.00    -0.244 OA
BRANCH  30  32
ATOM     32  O   UNL     1      -0.984   3.611   0.027  0.00  0.00    -0.461 OA
BRANCH  32  34
ATOM     33  C   UNL     1      -1.749   5.903   0.043  0.00  0.00    +0.048 C 
ATOM     34  C   UNL     1      -2.156   4.428   0.037  0.00  0.00    +0.229 C 
ENDBRANCH  32  34
ENDBRANCH  30  32
ENDBRANCH  24  30
BRANCH  26  35
ATOM     35  C   UNL     1       1.351  -2.052  -0.021  0.00  0.00    +0.102 C 
ATOM     36  N   UNL     1       1.439  -3.184  -0.028  0.00  0.00    -0.191 NA
ENDBRANCH  26  35
ENDBRANCH  22  27
ENDBRANCH  20  22
ENDBRANCH   1  20
TORSDOF 10
