REMARK  Name = ZINC62876322
REMARK  4 active torsions:
REMARK  status: ('A' for Active; 'I' for Inactive)
REMARK    1  A    between atoms: C_1  and  C_2
REMARK    2  A    between atoms: C_2  and  C_3
REMARK    3  A    between atoms: C_3  and  C_18
REMARK    4  A    between atoms: C_14  and  N_17
REMARK                            x       y       z     vdW  Elec       q    Type
REMARK                         _______ _______ _______ _____ _____    ______ ____
ROOT
ATOM      1  C   UNL     1       0.625  -0.543  -1.101  0.00  0.00    +0.087 C 
ATOM      2  C   UNL     1       0.706  -2.070  -1.162  0.00  0.00    +0.021 C 
ATOM      3  C   UNL     1       1.514  -2.588   0.030  0.00  0.00    +0.020 C 
ATOM      4  C   UNL     1       2.937  -2.025  -0.040  0.00  0.00    +0.109 C 
ATOM      5  N   UNL     1       2.863  -0.560  -0.128  0.00  0.00    -0.284 N 
ATOM      6  C   UNL     1       2.038   0.043  -1.183  0.00  0.00    +0.127 C 
ATOM      7  C   UNL     1       3.538   0.215   0.744  0.00  0.00    +0.305 C 
ATOM      8  O   UNL     1       3.621   1.413   0.554  0.00  0.00    -0.252 OA
ATOM      9  N   UNL     1       4.121  -0.338   1.826  0.00  0.00    -0.287 N 
ATOM     10  C   UNL     1       4.220  -1.778   2.104  0.00  0.00    +0.107 C 
ATOM     11  C   UNL     1       4.988  -1.936   3.433  0.00  0.00    +0.004 C 
ATOM     12  C   UNL     1       5.772  -0.601   3.543  0.00  0.00    -0.056 C 
ATOM     13  C   UNL     1       4.770   0.402   2.924  0.00  0.00    +0.093 C 
ENDROOT
BRANCH  12  14
ATOM     14  N   UNL     1       6.055  -0.270   4.946  0.00  0.00    +0.381 N 
ATOM     15  H   UNL     1       6.629  -0.993   5.353  0.00  0.00    -0.090 HD
ATOM     16  H   UNL     1       6.543   0.612   4.991  0.00  0.00    -0.090 HD
ATOM     17  H   UNL     1       5.188  -0.201   5.457  0.00  0.00    -0.090 HD
ENDBRANCH  12  14
BRANCH   1  18
ATOM     18  C   UNL     1      -0.198  -0.035  -2.256  0.00  0.00    +0.364 C 
ATOM     19  O   UNL     1      -0.385   1.162  -2.393  0.00  0.00    -0.246 OA
ATOM     20  O   UNL     1      -0.678  -0.822  -3.055  0.00  0.00    -0.246 OA
ENDBRANCH   1  18
BRANCH   1  22
ATOM     21  C   UNL     1      -0.104   1.408   0.279  0.00  0.00    +0.005 C 
ATOM     22  C   UNL     1      -0.027  -0.118   0.216  0.00  0.00    +0.016 C 
ENDBRANCH   1  22
TORSDOF 3
