REMARK  Name = ZINC13003440
REMARK  5 active torsions:
REMARK  status: ('A' for Active; 'I' for Inactive)
REMARK    1  A    between atoms: C_1  and  C_2
REMARK    2  A    between atoms: C_3  and  S_12
REMARK    3  A    between atoms: S_12  and  C_13
REMARK    4  A    between atoms: C_13  and  C_14
REMARK    5  A    between atoms: C_27  and  C_29
REMARK                            x       y       z     vdW  Elec       q    Type
REMARK                         _______ _______ _______ _____ _____    ______ ____
ROOT
ATOM      1  C   UNL     1      -0.420   5.961   1.044  0.00  0.00    +0.231 C 
ATOM      2  O   UNL     1      -0.425   7.173   0.996  0.00  0.00    -0.274 OA
ATOM      3  N   UNL     1      -0.072   5.245  -0.043  0.00  0.00    -0.257 N 
ATOM      4  C   UNL     1      -0.062   3.845  -0.002  0.00  0.00    +0.058 A 
ATOM      5  C   UNL     1      -1.249   3.131   0.020  0.00  0.00    +0.025 A 
ATOM      6  C   UNL     1      -1.221   1.748   0.017  0.00  0.00    +0.002 A 
ATOM      7  C   UNL     1      -0.013   1.076   0.008  0.00  0.00    +0.002 A 
ATOM      8  C   UNL     1       1.177   1.781   0.000  0.00  0.00    +0.025 A 
ATOM      9  C   UNL     1       1.157   3.166  -0.000  0.00  0.00    +0.055 A 
ATOM     10  N   UNL     1       2.347   3.902   0.025  0.00  0.00    -0.284 N 
ATOM     11  C   UNL     1       2.540   4.924  -0.837  0.00  0.00    +0.219 C 
ATOM     12  O   UNL     1       3.540   5.605  -0.750  0.00  0.00    -0.275 OA
ATOM     13  C   UNL     1       1.521   5.225  -1.904  0.00  0.00    +0.128 C 
ATOM     14  C   UNL     1       0.303   5.916  -1.289  0.00  0.00    +0.194 C 
ATOM     15  H   UNL     1       3.039   3.676   0.667  0.00  0.00    +0.155 HD
ENDROOT
BRANCH  14  16
ATOM     16  C   UNL     1      -0.868   5.852  -2.272  0.00  0.00    +0.409 C 
ATOM     17  F   UNL     1      -1.176   4.515  -2.545  0.00  0.00    -0.169 F 
ATOM     18  F   UNL     1      -1.983   6.483  -1.711  0.00  0.00    -0.169 F 
ATOM     19  F   UNL     1      -0.514   6.500  -3.461  0.00  0.00    -0.169 F 
ENDBRANCH  14  16
BRANCH   1  20
ATOM     20  C   UNL     1      -0.803   5.256   2.320  0.00  0.00    +0.172 C 
BRANCH  20  21
ATOM     21  S   UNL     1      -1.216   6.482   3.586  0.00  0.00    -0.095 S 
BRANCH  21  24
ATOM     22  C   UNL     1      -2.080   7.456   6.329  0.00  0.00    +0.068 C 
ATOM     23  C   UNL     1      -2.005   5.960   6.165  0.00  0.00    +0.071 A 
ATOM     24  C   UNL     1      -1.614   5.413   4.929  0.00  0.00    +0.119 A 
ATOM     25  N   UNL     1      -1.548   4.104   4.767  0.00  0.00    -0.237 NA
ATOM     26  C   UNL     1      -1.845   3.294   5.790  0.00  0.00    +0.090 A 
ATOM     27  C   UNL     1      -1.780   1.897   5.650  0.00  0.00    +0.030 A 
ATOM     28  C   UNL     1      -2.094   1.098   6.706  0.00  0.00    +0.002 A 
ATOM     29  C   UNL     1      -2.482   1.644   7.928  0.00  0.00    +0.002 A 
ATOM     30  C   UNL     1      -2.557   2.992   8.099  0.00  0.00    +0.030 A 
ATOM     31  C   UNL     1      -2.239   3.849   7.032  0.00  0.00    +0.090 A 
ATOM     32  N   UNL     1      -2.305   5.180   7.175  0.00  0.00    -0.248 NA
ENDBRANCH  21  24
ENDBRANCH  20  21
ENDBRANCH   1  20
TORSDOF 4
