REMARK  Name = ZINC43674539
REMARK  11 active torsions:
REMARK  status: ('A' for Active; 'I' for Inactive)
REMARK    1  A    between atoms: C_1  and  C_2
REMARK    2  A    between atoms: N_5  and  C_11
REMARK    3  A    between atoms: C_7  and  C_10
REMARK    4  A    between atoms: C_11  and  C_12
REMARK    5  A    between atoms: C_12  and  C_13
REMARK    6  A    between atoms: C_13  and  N_14
REMARK    7  A    between atoms: N_17  and  C_18
REMARK    8  A    between atoms: C_21  and  N_24
REMARK    9  A    between atoms: C_25  and  C_27
REMARK   10  A    between atoms: C_27  and  C_28
REMARK   11  A    between atoms: C_27  and  C_29
REMARK                            x       y       z     vdW  Elec       q    Type
REMARK                         _______ _______ _______ _____ _____    ______ ____
ROOT
ATOM      1  N   UNL     1      -4.016  -6.134  -0.369  0.00  0.00    -0.299 N 
ATOM      2  C   UNL     1      -5.153  -6.854  -0.423  0.00  0.00    +0.304 C 
ATOM      3  O   UNL     1      -6.230  -6.298  -0.327  0.00  0.00    -0.253 OA
ATOM      4  N   UNL     1      -5.097  -8.191  -0.585  0.00  0.00    -0.269 N 
ATOM      5  H   UNL     1      -3.156  -6.577  -0.445  0.00  0.00    +0.150 HD
ATOM      6  H   UNL     1      -4.242  -8.627  -0.728  0.00  0.00    +0.156 HD
ENDROOT
BRANCH   4   7
ATOM      7  C   UNL     1      -6.273  -8.952  -0.544  0.00  0.00    +0.035 A 
ATOM      8  C   UNL     1      -6.258 -10.224   0.011  0.00  0.00    +0.025 A 
ATOM      9  C   UNL     1      -7.417 -10.974   0.050  0.00  0.00    +0.025 A 
ATOM     10  C   UNL     1      -8.597 -10.455  -0.466  0.00  0.00    +0.034 A 
ATOM     11  C   UNL     1      -8.612  -9.182  -1.021  0.00  0.00    +0.025 A 
ATOM     12  C   UNL     1      -7.455  -8.431  -1.055  0.00  0.00    +0.025 A 
BRANCH  10  13
ATOM     13  N   UNL     1      -9.773 -11.216  -0.426  0.00  0.00    -0.285 N 
ATOM     14  C   UNL     1     -10.012 -12.033   0.618  0.00  0.00    +0.220 C 
ATOM     15  O   UNL     1      -9.173 -12.174   1.483  0.00  0.00    -0.275 OA
ATOM     16  H   UNL     1     -10.415 -11.154  -1.151  0.00  0.00    +0.155 HD
BRANCH  14  17
ATOM     17  C   UNL     1     -11.322 -12.772   0.712  0.00  0.00    +0.069 C 
ATOM     18  C   UNL     1     -11.337 -13.624   1.983  0.00  0.00    +0.017 C 
ATOM     19  C   UNL     1     -12.473 -11.765   0.760  0.00  0.00    +0.017 C 
ENDBRANCH  14  17
ENDBRANCH  10  13
ENDBRANCH   4   7
BRANCH   1  20
ATOM     20  C   UNL     1      -4.077  -4.680  -0.194  0.00  0.00    +0.107 C 
BRANCH  20  21
ATOM     21  C   UNL     1      -2.657  -4.110  -0.165  0.00  0.00    +0.034 C 
BRANCH  21  22
ATOM     22  C   UNL     1      -2.721  -2.592   0.018  0.00  0.00    +0.086 C 
BRANCH  22  26
ATOM     23  C   UNL     1       0.045   1.478  -0.033  0.00  0.00    +0.039 C 
ATOM     24  C   UNL     1       0.059  -0.051  -0.047  0.00  0.00    +0.130 C 
ATOM     25  C   UNL     1      -1.379  -0.576  -0.018  0.00  0.00    +0.115 C 
ATOM     26  N   UNL     1      -1.358  -2.045   0.046  0.00  0.00    -0.297 NA
ATOM     27  C   UNL     1      -0.630  -2.504   1.238  0.00  0.00    +0.115 C 
ATOM     28  C   UNL     1       0.800  -1.960   1.196  0.00  0.00    +0.130 C 
ATOM     29  O   UNL     1       0.761  -0.533   1.102  0.00  0.00    -0.371 OA
ATOM     30  C   UNL     1       1.539  -2.368   2.472  0.00  0.00    +0.039 C 
ENDBRANCH  22  26
ENDBRANCH  21  22
ENDBRANCH  20  21
ENDBRANCH   1  20
TORSDOF 7
