REMARK  Name = ZINC01026741
REMARK  9 active torsions:
REMARK  status: ('A' for Active; 'I' for Inactive)
REMARK    1  A    between atoms: C_1  and  C_2
REMARK    2  A    between atoms: C_2  and  C_3
REMARK    3  A    between atoms: C_3  and  C_5
REMARK    4  A    between atoms: C_3  and  O_6
REMARK    5  A    between atoms: O_6  and  C_7
REMARK    6  A    between atoms: C_7  and  C_9
REMARK    7  A    between atoms: C_10  and  C_28
REMARK    8  A    between atoms: C_14  and  C_18
REMARK    9  A    between atoms: C_15  and  N_17
REMARK                            x       y       z     vdW  Elec       q    Type
REMARK                         _______ _______ _______ _____ _____    ______ ____
ROOT
ATOM      1  C   UNL     1      -1.940   5.302  -1.435  0.00  0.00    +0.100 C 
ATOM      2  C   UNL     1      -1.712   6.478  -2.050  0.00  0.00    +0.111 C 
ATOM      3  O   UNL     1      -2.606   6.752  -3.020  0.00  0.00    -0.450 OA
ATOM      4  C   UNL     1      -3.345   5.556  -3.348  0.00  0.00    +0.304 C 
ATOM      5  C   UNL     1      -3.114   4.655  -2.095  0.00  0.00    +0.188 C 
ATOM      6  C   UNL     1      -2.851   3.312  -2.700  0.00  0.00    +0.112 C 
ATOM      7  C   UNL     1      -2.684   3.498  -4.040  0.00  0.00    +0.197 C 
ATOM      8  O   UNL     1      -2.773   4.795  -4.402  0.00  0.00    -0.432 OA
ATOM      9  C   UNL     1      -4.398   4.758  -1.335  0.00  0.00    +0.188 C 
ATOM     10  O   UNL     1      -4.562   4.497  -0.162  0.00  0.00    -0.290 OA
ATOM     11  C   UNL     1      -5.429   5.236  -2.280  0.00  0.00    +0.030 A 
ATOM     12  C   UNL     1      -4.825   5.742  -3.438  0.00  0.00    +0.048 A 
ATOM     13  C   UNL     1      -5.617   6.284  -4.434  0.00  0.00    +0.012 A 
ATOM     14  C   UNL     1      -6.994   6.302  -4.305  0.00  0.00    +0.001 A 
ATOM     15  C   UNL     1      -7.597   5.779  -3.175  0.00  0.00    +0.001 A 
ATOM     16  C   UNL     1      -6.825   5.247  -2.166  0.00  0.00    +0.012 A 
ATOM     17  C   UNL     1      -0.571   7.394  -1.692  0.00  0.00    +0.086 C 
ENDROOT
BRANCH   7  18
ATOM     18  N   UNL     1      -2.449   2.477  -4.926  0.00  0.00    -0.329 N 
ATOM     19  H   UNL     1      -2.337   2.670  -5.870  0.00  0.00    +0.145 HD
ATOM     20  H   UNL     1      -2.394   1.562  -4.608  0.00  0.00    +0.145 HD
ENDBRANCH   7  18
BRANCH   1  21
ATOM     21  C   UNL     1      -1.200   4.774  -0.349  0.00  0.00    +0.340 C 
ATOM     22  O   UNL     1      -0.259   5.397   0.106  0.00  0.00    -0.245 OA
BRANCH  21  23
ATOM     23  O   UNL     1      -1.539   3.581   0.182  0.00  0.00    -0.458 OA
BRANCH  23  24
ATOM     24  C   UNL     1      -0.750   3.109   1.275  0.00  0.00    +0.173 C 
ATOM     25  C   UNL     1      -1.354   3.604   2.591  0.00  0.00    +0.052 C 
BRANCH  24  27
ATOM     26  C   UNL     1      -0.013   1.086   0.008  0.00  0.00    +0.007 C 
ATOM     27  C   UNL     1      -0.729   1.579   1.267  0.00  0.00    +0.041 C 
ENDBRANCH  24  27
ENDBRANCH  23  24
ENDBRANCH  21  23
ENDBRANCH   1  21
BRANCH   6  28
ATOM     28  C   UNL     1      -2.787   2.063  -2.001  0.00  0.00    +0.101 C 
ATOM     29  N   UNL     1      -2.736   1.073  -1.447  0.00  0.00    -0.191 NA
ENDBRANCH   6  28
TORSDOF 6
