REMARK  Name = ZINC55220698
REMARK  3 active torsions:
REMARK  status: ('A' for Active; 'I' for Inactive)
REMARK    1  A    between atoms: C_3  and  C_8
REMARK    2  A    between atoms: C_10  and  C_22
REMARK    3  A    between atoms: C_11  and  C_20
REMARK                            x       y       z     vdW  Elec       q    Type
REMARK                         _______ _______ _______ _____ _____    ______ ____
ROOT
ATOM      1  C   UNL     1       3.672   2.184  -0.021  0.00  0.00    +0.077 C 
ATOM      2  C   UNL     1       4.955   1.412   0.290  0.00  0.00    +0.146 C 
ATOM      3  C   UNL     1       4.665   1.885  -1.147  0.00  0.00    +0.167 C 
ATOM      4  C   UNL     1       5.794   2.890  -1.414  0.00  0.00    +0.295 C 
ATOM      5  N   UNL     1       6.608   2.953  -0.207  0.00  0.00    -0.211 NA
ATOM      6  C   UNL     1       6.184   2.174   0.720  0.00  0.00    +0.116 C 
ATOM      7  N   UNL     1       6.774   2.051   1.950  0.00  0.00    -0.345 N 
ATOM      8  O   UNL     1       6.579   2.464  -2.541  0.00  0.00    -0.327 OA
ATOM      9  C   UNL     1       7.213   3.690  -2.985  0.00  0.00    +0.193 C 
ATOM     10  C   UNL     1       6.123   4.755  -2.732  0.00  0.00    +0.193 C 
ATOM     11  O   UNL     1       5.253   4.174  -1.743  0.00  0.00    -0.327 OA
ATOM     12  H   UNL     1       6.402   1.443   2.608  0.00  0.00    +0.143 HD
ATOM     13  H   UNL     1       7.564   2.572   2.163  0.00  0.00    +0.143 HD
ENDROOT
BRANCH   1  16
ATOM     14  C   UNL     1       0.969  -0.264   0.958  0.00  0.00    +0.002 A 
ATOM     15  C   UNL     1       2.156   0.445   0.950  0.00  0.00    +0.004 A 
ATOM     16  C   UNL     1       2.378   1.412  -0.013  0.00  0.00    -0.039 A 
ATOM     17  C   UNL     1       1.413   1.670  -0.968  0.00  0.00    +0.024 A 
ATOM     18  C   UNL     1       0.225   0.961  -0.961  0.00  0.00    +0.041 A 
ATOM     19  C   UNL     1       0.003  -0.006   0.003  0.00  0.00    +0.020 A 
ATOM     20 CL   UNL     1      -0.988   1.286  -2.160  0.00  0.00    -0.084 Cl
ENDBRANCH   1  16
BRANCH   3  21
ATOM     21  C   UNL     1       4.290   0.955  -2.225  0.00  0.00    +0.080 C 
ATOM     22  N   UNL     1       4.002   0.238  -3.058  0.00  0.00    -0.196 NA
ENDBRANCH   3  21
BRANCH   2  23
ATOM     23  C   UNL     1       4.866  -0.004   0.681  0.00  0.00    +0.079 C 
ATOM     24  N   UNL     1       4.797  -1.097   0.983  0.00  0.00    -0.195 NA
ENDBRANCH   2  23
TORSDOF 3
