REMARK  Name = ZINC29698510
REMARK  8 active torsions:
REMARK  status: ('A' for Active; 'I' for Inactive)
REMARK    1  A    between atoms: C_1  and  C_2
REMARK    2  A    between atoms: C_7  and  C_9
REMARK    3  A    between atoms: C_7  and  C_10
REMARK    4  A    between atoms: N_13  and  C_17
REMARK    5  A    between atoms: C_17  and  C_18
REMARK    6  A    between atoms: N_20  and  N_21
REMARK    7  A    between atoms: C_22  and  C_23
REMARK    8  A    between atoms: C_22  and  C_29
REMARK                            x       y       z     vdW  Elec       q    Type
REMARK                         _______ _______ _______ _____ _____    ______ ____
ROOT
ATOM      1  C   UNL     1      -5.550  -2.956  -1.654  0.00  0.00    +0.250 C 
ATOM      2  O   UNL     1      -5.518  -1.748  -1.757  0.00  0.00    -0.272 OA
ATOM      3  N   UNL     1      -6.479  -3.665  -2.325  0.00  0.00    -0.205 N 
ATOM      4  H   UNL     1      -6.504  -4.632  -2.243  0.00  0.00    +0.177 HD
ENDROOT
BRANCH   3   5
ATOM      5  N   UNL     1      -7.409  -3.007  -3.140  0.00  0.00    -0.179 NA
ATOM      6  C   UNL     1      -8.373  -3.682  -3.707  0.00  0.00    +0.096 C 
BRANCH   6   7
ATOM      7  C   UNL     1      -8.573  -5.110  -3.373  0.00  0.00    +0.002 A 
ATOM      8  C   UNL     1      -8.514  -5.534  -2.045  0.00  0.00    +0.010 A 
ATOM      9  C   UNL     1      -8.701  -6.867  -1.741  0.00  0.00    +0.001 A 
ATOM     10  C   UNL     1      -8.947  -7.782  -2.749  0.00  0.00    +0.000 A 
ATOM     11  C   UNL     1      -9.006  -7.368  -4.067  0.00  0.00    +0.001 A 
ATOM     12  C   UNL     1      -8.827  -6.037  -4.384  0.00  0.00    +0.010 A 
ENDBRANCH   6   7
BRANCH   6  13
ATOM     13  C   UNL     1      -9.267  -3.018  -4.683  0.00  0.00    +0.002 A 
ATOM     14  C   UNL     1     -10.409  -3.672  -5.145  0.00  0.00    +0.010 A 
ATOM     15  C   UNL     1     -11.238  -3.048  -6.055  0.00  0.00    +0.001 A 
ATOM     16  C   UNL     1     -10.938  -1.775  -6.508  0.00  0.00    +0.000 A 
ATOM     17  C   UNL     1      -9.807  -1.121  -6.053  0.00  0.00    +0.001 A 
ATOM     18  C   UNL     1      -8.974  -1.732  -5.139  0.00  0.00    +0.010 A 
ENDBRANCH   6  13
ENDBRANCH   3   5
BRANCH   1  19
ATOM     19  C   UNL     1      -4.550  -3.664  -0.777  0.00  0.00    +0.215 C 
BRANCH  19  31
ATOM     20  C   UNL     1      -2.438   2.662   1.625  0.00  0.00    +0.007 C 
ATOM     21  C   UNL     1      -1.967   1.210   1.519  0.00  0.00    -0.011 C 
ATOM     22  C   UNL     1      -3.178   0.293   1.329  0.00  0.00    +0.038 C 
ATOM     23  C   UNL     1      -2.711  -1.156   1.244  0.00  0.00    +0.113 C 
ATOM     24  C   UNL     1      -1.954  -1.554   2.507  0.00  0.00    +0.041 C 
ATOM     25  C   UNL     1      -0.748  -0.630   2.693  0.00  0.00    -0.032 C 
ATOM     26  C   UNL     1      -1.228   0.818   2.801  0.00  0.00    +0.009 C 
ATOM     27  C   UNL     1       0.190  -0.768   1.493  0.00  0.00    +0.011 C 
ATOM     28  C   UNL     1      -0.002  -1.017   3.971  0.00  0.00    +0.011 C 
ATOM     29  C   UNL     1      -3.888  -2.078   1.021  0.00  0.00    +0.247 C 
ATOM     30  O   UNL     1      -4.840  -2.242   1.753  0.00  0.00    -0.273 OA
ATOM     31  N   UNL     1      -3.655  -2.680  -0.164  0.00  0.00    -0.215 N 
ATOM     32  C   UNL     1      -2.505  -2.266  -0.709  0.00  0.00    +0.310 C 
ATOM     33  O   UNL     1      -2.080  -2.664  -1.776  0.00  0.00    -0.252 OA
ATOM     34  N   UNL     1      -1.871  -1.357   0.057  0.00  0.00    -0.285 N 
ATOM     35  H   UNL     1      -1.026  -0.922  -0.138  0.00  0.00    +0.151 HD
ENDBRANCH  19  31
ENDBRANCH   1  19
TORSDOF 5
