REMARK  Name = ZINC15957824
REMARK  3 active torsions:
REMARK  status: ('A' for Active; 'I' for Inactive)
REMARK    1  A    between atoms: C_12  and  C_15
REMARK    2  A    between atoms: C_15  and  C_16
REMARK    3  A    between atoms: N_21  and  C_24
REMARK                            x       y       z     vdW  Elec       q    Type
REMARK                         _______ _______ _______ _____ _____    ______ ____
ROOT
ATOM      1  C   UNL     1      -0.094   1.382   0.103  0.00  0.00    +0.000 A 
ATOM      2  C   UNL     1       1.083   2.107   0.125  0.00  0.00    +0.002 A 
ATOM      3  C   UNL     1       2.300   1.459   0.112  0.00  0.00    +0.023 A 
ATOM      4  C   UNL     1       2.354   0.068   0.076  0.00  0.00    +0.039 A 
ATOM      5  C   UNL     1       1.163  -0.652   0.053  0.00  0.00    +0.003 A 
ATOM      6  C   UNL     1      -0.051  -0.001   0.067  0.00  0.00    +0.008 A 
ATOM      7  C   UNL     1       1.559  -2.100   0.010  0.00  0.00    +0.136 C 
ATOM      8  C   UNL     1       0.994  -2.877   1.204  0.00  0.00    +0.122 C 
ATOM      9  C   UNL     1       0.655  -4.283   0.633  0.00  0.00    +0.107 C 
ATOM     10  C   UNL     1       1.055  -4.211  -0.857  0.00  0.00    +0.076 C 
ATOM     11  N   UNL     1       1.032  -2.769  -1.194  0.00  0.00    -0.295 NA
ATOM     12  C   UNL     1       1.606  -5.197   1.372  0.00  0.00    +0.227 C 
ATOM     13  O   UNL     1       1.678  -6.398   1.227  0.00  0.00    -0.275 OA
ATOM     14  N   UNL     1       2.357  -4.474   2.211  0.00  0.00    -0.238 N 
ATOM     15  C   UNL     1       2.093  -3.147   2.206  0.00  0.00    +0.228 C 
ATOM     16  O   UNL     1       2.644  -2.307   2.885  0.00  0.00    -0.275 OA
ATOM     17  C   UNL     1       3.063  -2.095   0.019  0.00  0.00    +0.243 C 
ATOM     18  O   UNL     1       3.791  -3.064  -0.004  0.00  0.00    -0.273 OA
ATOM     19  N   UNL     1       3.445  -0.803   0.058  0.00  0.00    -0.283 N 
ATOM     20  H   UNL     1       0.089  -2.469  -1.392  0.00  0.00    +0.124 HD
ATOM     21  H   UNL     1       4.370  -0.513   0.072  0.00  0.00    +0.155 HD
ENDROOT
BRANCH  14  22
ATOM     22  C   UNL     1       3.379  -5.070   3.074  0.00  0.00    +0.084 C 
ATOM     23  C   UNL     1       2.721  -6.028   4.089  0.00  0.00    +0.023 C 
ATOM     24  C   UNL     1       2.848  -7.424   3.431  0.00  0.00    +0.002 C 
ATOM     25  C   UNL     1       4.246  -7.363   2.766  0.00  0.00    +0.002 C 
ATOM     26  C   UNL     1       4.349  -5.919   2.233  0.00  0.00    +0.023 C 
ENDBRANCH  14  22
BRANCH  10  27
ATOM     27  C   UNL     1       0.059  -4.993  -1.714  0.00  0.00    +0.115 C 
BRANCH  27  28
ATOM     28  C   UNL     1       0.533  -5.013  -3.144  0.00  0.00    +0.212 C 
ATOM     29  O   UNL     1       1.567  -4.456  -3.448  0.00  0.00    -0.276 OA
ATOM     30  N   UNL     1      -0.191  -5.650  -4.086  0.00  0.00    -0.329 N 
ATOM     31  H   UNL     1      -1.018  -6.095  -3.843  0.00  0.00    +0.145 HD
ATOM     32  H   UNL     1       0.115  -5.662  -5.006  0.00  0.00    +0.145 HD
ENDBRANCH  27  28
ENDBRANCH  10  27
TORSDOF 3
