REMARK  Name = ZINC39683908
REMARK  7 active torsions:
REMARK  status: ('A' for Active; 'I' for Inactive)
REMARK    1  A    between atoms: C_1  and  C_2
REMARK    2  A    between atoms: C_6  and  C_9
REMARK    3  A    between atoms: C_13  and  C_22
REMARK    4  A    between atoms: N_24  and  C_25
REMARK    5  A    between atoms: C_25  and  C_27
REMARK    6  A    between atoms: C_25  and  C_28
REMARK    7  A    between atoms: N_30  and  C_31
REMARK                            x       y       z     vdW  Elec       q    Type
REMARK                         _______ _______ _______ _____ _____    ______ ____
ROOT
ATOM      1  C   UNL     1       0.004  -2.761   2.390  0.00  0.00    +0.251 C 
ATOM      2  O   UNL     1       1.081  -3.029   2.886  0.00  0.00    -0.270 OA
ATOM      3  N   UNL     1      -1.134  -3.151   2.998  0.00  0.00    -0.296 N 
ATOM      4  C   UNL     1      -2.528  -2.926   2.548  0.00  0.00    +0.121 C 
ATOM      5  C   UNL     1      -3.264  -4.243   2.884  0.00  0.00    +0.100 C 
ATOM      6  C   UNL     1      -2.437  -4.877   4.015  0.00  0.00    -0.004 C 
ATOM      7  C   UNL     1      -1.274  -3.907   4.266  0.00  0.00    +0.115 C 
ATOM      8  C   UNL     1      -1.898  -6.236   3.578  0.00  0.00    -0.010 C 
ATOM      9  C   UNL     1      -1.127  -6.871   4.739  0.00  0.00    -0.082 C 
ATOM     10  N   UNL     1      -2.019  -7.025   5.894  0.00  0.00    +0.379 N 
ATOM     11  C   UNL     1      -2.460  -5.707   6.366  0.00  0.00    -0.082 C 
ATOM     12  C   UNL     1      -3.287  -5.022   5.274  0.00  0.00    -0.010 C 
ATOM     13  H   UNL     1      -2.824  -7.571   5.626  0.00  0.00    -0.086 HD
ATOM     14  H   UNL     1      -1.527  -7.499   6.636  0.00  0.00    -0.086 HD
ENDROOT
BRANCH   1  20
ATOM     15  C   UNL     1      -0.234   1.589  -0.050  0.00  0.00    +0.047 C 
ATOM     16  C   UNL     1      -0.173   0.084  -0.060  0.00  0.00    -0.014 A 
ATOM     17  C   UNL     1      -0.175  -0.599  -1.263  0.00  0.00    +0.007 A 
ATOM     18  C   UNL     1      -0.120  -1.981  -1.283  0.00  0.00    +0.021 A 
ATOM     19  C   UNL     1      -0.062  -2.691  -0.100  0.00  0.00    +0.056 A 
ATOM     20  C   UNL     1      -0.058  -2.010   1.121  0.00  0.00    +0.091 A 
ATOM     21  C   UNL     1      -0.109  -0.612   1.133  0.00  0.00    +0.140 A 
ATOM     22  F   UNL     1      -0.101   0.056   2.307  0.00  0.00    -0.204 F 
ATOM     23 CL   UNL     1       0.007  -4.425  -0.128  0.00  0.00    -0.083 Cl
ENDBRANCH   1  20
BRANCH   5  24
ATOM     24  C   UNL     1      -3.292  -5.150   1.680  0.00  0.00    +0.219 C 
ATOM     25  O   UNL     1      -2.423  -5.067   0.838  0.00  0.00    -0.275 OA
ATOM     26  N   UNL     1      -4.284  -6.051   1.539  0.00  0.00    -0.304 N 
ATOM     27  H   UNL     1      -4.979  -6.117   2.213  0.00  0.00    +0.149 HD
BRANCH  26  28
ATOM     28  C   UNL     1      -4.312  -6.933   0.369  0.00  0.00    +0.156 C 
ATOM     29  C   UNL     1      -3.434  -8.158   0.632  0.00  0.00    +0.038 C 
BRANCH  28  30
ATOM     30  C   UNL     1      -5.728  -7.377   0.109  0.00  0.00    +0.233 C 
ATOM     31  O   UNL     1      -6.626  -6.995   0.829  0.00  0.00    -0.274 OA
ATOM     32  N   UNL     1      -5.998  -8.198  -0.925  0.00  0.00    -0.317 N 
ATOM     33  C   UNL     1      -7.374  -8.630  -1.179  0.00  0.00    +0.128 C 
ATOM     34  H   UNL     1      -5.280  -8.504  -1.501  0.00  0.00    +0.148 HD
ENDBRANCH  28  30
ENDBRANCH  26  28
ENDBRANCH   5  24
TORSDOF 4
