REMARK  Name = ZINC33558278
REMARK  12 active torsions:
REMARK  status: ('A' for Active; 'I' for Inactive)
REMARK    1  A    between atoms: C_1  and  C_2
REMARK    2  A    between atoms: C_2  and  C_4
REMARK    3  A    between atoms: C_2  and  N_16
REMARK    4  A    between atoms: N_16  and  C_17
REMARK    5  A    between atoms: C_17  and  C_18
REMARK    6  A    between atoms: C_18  and  C_19
REMARK    7  A    between atoms: C_19  and  C_20
REMARK    8  A    between atoms: C_20  and  C_21
REMARK    9  A    between atoms: C_21  and  C_22
REMARK   10  A    between atoms: C_22  and  N_23
REMARK   11  A    between atoms: C_24  and  C_26
REMARK   12  A    between atoms: C_27  and  C_28
REMARK                            x       y       z     vdW  Elec       q    Type
REMARK                         _______ _______ _______ _____ _____    ______ ____
ROOT
ATOM      1  N   UNL     1       2.423   1.166  -0.016  0.00  0.00    -0.288 N 
ATOM      2  C   UNL     1       1.246   1.824  -0.002  0.00  0.00    +0.240 C 
ATOM      3  O   UNL     1       1.230   3.041   0.005  0.00  0.00    -0.271 OA
ENDROOT
BRANCH   1   5
ATOM      4  C   UNL     1       4.477   1.565  -1.282  0.00  0.00    +0.036 C 
ATOM      5  C   UNL     1       3.681   1.916  -0.024  0.00  0.00    +0.139 C 
BRANCH   5   6
ATOM      6  C   UNL     1       4.488   1.557   1.198  0.00  0.00    +0.131 A 
ATOM      7  N   UNL     1       5.384   2.449   1.655  0.00  0.00    -0.232 NA
ATOM      8  H   UNL     1       3.526  -0.287   1.339  0.00  0.00    +0.170 HD
ATOM      9  C   UNL     1       6.147   2.166   2.770  0.00  0.00    +0.078 A 
ATOM     10  C   UNL     1       7.085   3.062   3.265  0.00  0.00    +0.028 A 
ATOM     11  C   UNL     1       7.827   2.728   4.378  0.00  0.00    +0.002 A 
ATOM     12  C   UNL     1       7.649   1.504   5.008  0.00  0.00    +0.001 A 
ATOM     13  C   UNL     1       6.726   0.600   4.529  0.00  0.00    +0.015 A 
ATOM     14  C   UNL     1       5.970   0.923   3.404  0.00  0.00    +0.065 A 
ATOM     15  C   UNL     1       4.968   0.000   2.843  0.00  0.00    +0.259 A 
ATOM     16  O   UNL     1       4.765  -1.089   3.351  0.00  0.00    -0.267 OA
ATOM     17  N   UNL     1       4.280   0.397   1.756  0.00  0.00    -0.309 N 
ENDBRANCH   5   6
ENDBRANCH   1   5
BRANCH   2  18
ATOM     18  C   UNL     1      -0.011   1.075   0.006  0.00  0.00    +0.068 C 
ATOM     19  C   UNL     1      -1.188   1.732   0.015  0.00  0.00    +0.013 C 
BRANCH  19  20
ATOM     20  C   UNL     1      -2.453   0.979   0.016  0.00  0.00    -0.025 A 
ATOM     21  C   UNL     1      -2.438  -0.419   0.003  0.00  0.00    +0.008 A 
ATOM     22  C   UNL     1      -3.626  -1.118   0.009  0.00  0.00    +0.001 A 
ATOM     23  C   UNL     1      -4.832  -0.439   0.018  0.00  0.00    +0.000 A 
ATOM     24  C   UNL     1      -4.855   0.945   0.026  0.00  0.00    +0.001 A 
ATOM     25  C   UNL     1      -3.675   1.658   0.025  0.00  0.00    +0.008 A 
ENDBRANCH  19  20
ENDBRANCH   2  18
BRANCH   1  26
ATOM     26  C   UNL     1       2.443  -0.298  -0.024  0.00  0.00    +0.109 C 
BRANCH  26  27
ATOM     27  C   UNL     1       2.437  -0.801  -1.469  0.00  0.00    +0.019 C 
BRANCH  27  28
ATOM     28  C   UNL     1       2.458  -2.331  -1.478  0.00  0.00    +0.001 C 
BRANCH  28  29
ATOM     29  C   UNL     1       2.451  -2.833  -2.923  0.00  0.00    -0.002 C 
BRANCH  29  30
ATOM     30  C   UNL     1       2.473  -4.363  -2.931  0.00  0.00    -0.020 C 
BRANCH  30  31
ATOM     31  C   UNL     1       2.466  -4.865  -4.376  0.00  0.00    -0.086 C 
BRANCH  31  32
ATOM     32  N   UNL     1       2.486  -6.334  -4.384  0.00  0.00    +0.378 N 
ATOM     33  H   UNL     1       2.482  -6.695  -5.423  0.00  0.00    -0.090 HD
ATOM     34  H   UNL     1       1.598  -6.715  -3.860  0.00  0.00    -0.090 HD
ATOM     35  H   UNL     1       3.394  -6.691  -3.876  0.00  0.00    -0.090 HD
ENDBRANCH  31  32
ENDBRANCH  30  31
ENDBRANCH  29  30
ENDBRANCH  28  29
ENDBRANCH  27  28
ENDBRANCH  26  27
ENDBRANCH   1  26
TORSDOF 11
