REMARK  Name = ZINC63384222
REMARK  6 active torsions:
REMARK  status: ('A' for Active; 'I' for Inactive)
REMARK    1  A    between atoms: C_1  and  C_2
REMARK    2  A    between atoms: C_2  and  N_3
REMARK    3  A    between atoms: C_16  and  C_18
REMARK    4  A    between atoms: N_24  and  C_27
REMARK    5  A    between atoms: C_30  and  C_34
REMARK    6  A    between atoms: C_32  and  C_33
REMARK                            x       y       z     vdW  Elec       q    Type
REMARK                         _______ _______ _______ _____ _____    ______ ____
ROOT
ATOM      1  C   UNL     1      -0.770  -2.587   1.135  0.00  0.00    +0.071 A 
ATOM      2  H   UNL     1      -1.255  -2.807   4.330  0.00  0.00    +0.173 HD
ATOM      3  C   UNL     1      -1.372  -2.384   2.342  0.00  0.00    +0.259 A 
ATOM      4  N   UNL     1      -0.830  -2.948   3.470  0.00  0.00    -0.274 N 
ATOM      5  C   UNL     1       0.285  -3.696   3.389  0.00  0.00    +0.337 A 
ATOM      6  O   UNL     1       0.751  -4.188   4.399  0.00  0.00    -0.246 OA
ATOM      7  N   UNL     1       0.893  -3.908   2.207  0.00  0.00    -0.229 N 
ATOM      8  C   UNL     1       0.391  -3.377   1.075  0.00  0.00    +0.266 A 
ATOM      9  O   UNL     1       0.943  -3.576   0.007  0.00  0.00    -0.267 OA
ATOM     10  O   UNL     1      -2.491  -1.633   2.427  0.00  0.00    -0.267 OA
ENDROOT
BRANCH   1  23
ATOM     11  N   UNL     1      -1.299  -0.510  -0.022  0.00  0.00    +0.386 N 
ATOM     12  C   UNL     1      -1.902  -0.021   1.220  0.00  0.00    -0.073 C 
ATOM     13  C   UNL     1      -3.413  -0.318   1.235  0.00  0.00    +0.015 C 
ATOM     14  C   UNL     1      -3.555  -1.783   0.905  0.00  0.00    -0.041 C 
ATOM     15  C   UNL     1      -4.234  -2.768   1.473  0.00  0.00    -0.001 A 
ATOM     16  C   UNL     1      -5.225  -2.777   2.562  0.00  0.00    +0.010 A 
ATOM     17  C   UNL     1      -5.712  -3.995   2.919  0.00  0.00    +0.001 A 
ATOM     18  C   UNL     1      -5.319  -5.190   2.309  0.00  0.00    +0.002 A 
ATOM     19  C   UNL     1      -4.423  -5.274   1.293  0.00  0.00    +0.026 A 
ATOM     20  C   UNL     1      -3.848  -4.058   0.823  0.00  0.00    +0.043 A 
ATOM     21  N   UNL     1      -3.001  -3.845  -0.142  0.00  0.00    -0.379 N 
ATOM     22  C   UNL     1      -2.807  -2.403  -0.272  0.00  0.00    +0.097 C 
ATOM     23  C   UNL     1      -1.346  -1.978  -0.117  0.00  0.00    -0.000 C 
ATOM     24  H   UNL     1      -2.572  -4.527  -0.682  0.00  0.00    +0.160 HD
ATOM     25  H   UNL     1      -1.798  -0.115  -0.805  0.00  0.00    -0.081 HD
BRANCH  11  27
ATOM     26  C   UNL     1       0.158   1.456  -0.105  0.00  0.00    -0.017 C 
ATOM     27  C   UNL     1       0.102  -0.073  -0.077  0.00  0.00    -0.081 C 
ENDBRANCH  11  27
ENDBRANCH   1  23
BRANCH   7  28
ATOM     28  C   UNL     1       2.054  -4.691   2.153  0.00  0.00    +0.057 A 
ATOM     29  C   UNL     1       1.960  -6.061   1.951  0.00  0.00    +0.027 A 
ATOM     30  C   UNL     1       3.105  -6.831   1.898  0.00  0.00    +0.005 A 
ATOM     31  C   UNL     1       4.346  -6.237   2.046  0.00  0.00    -0.050 A 
ATOM     32  C   UNL     1       4.443  -4.873   2.247  0.00  0.00    +0.008 A 
ATOM     33  C   UNL     1       3.301  -4.097   2.295  0.00  0.00    -0.026 A 
ATOM     34  C   UNL     1       3.408  -2.609   2.508  0.00  0.00    +0.046 C 
ATOM     35  C   UNL     1       5.594  -7.080   1.989  0.00  0.00    +0.044 C 
ENDBRANCH   7  28
TORSDOF 3
