REMARK  Name = ZINC49278240
REMARK  4 active torsions:
REMARK  status: ('A' for Active; 'I' for Inactive)
REMARK    1  A    between atoms: C_1  and  N_2
REMARK    2  A    between atoms: C_5  and  C_10
REMARK    3  A    between atoms: N_12  and  C_13
REMARK    4  A    between atoms: C_13  and  C_14
REMARK                            x       y       z     vdW  Elec       q    Type
REMARK                         _______ _______ _______ _____ _____    ______ ____
ROOT
ATOM      1  C   UNL     1       0.121  -4.260  -0.049  0.00  0.00    +0.217 C 
ATOM      2  O   UNL     1      -0.648  -4.758   0.745  0.00  0.00    -0.276 OA
ATOM      3  N   UNL     1       1.050  -5.023  -0.657  0.00  0.00    -0.315 N 
ATOM      4  H   UNL     1       1.666  -4.624  -1.292  0.00  0.00    +0.149 HD
ENDROOT
BRANCH   1   9
ATOM      5  C   UNL     1      -0.018   1.461   0.010  0.00  0.00    +0.132 C 
ATOM      6  N   UNL     1       0.002  -0.004   0.002  0.00  0.00    -0.304 N 
ATOM      7  C   UNL     1      -1.276  -0.705   0.004  0.00  0.00    +0.108 C 
ATOM      8  C   UNL     1      -1.093  -2.152   0.463  0.00  0.00    +0.032 C 
ATOM      9  C   UNL     1       0.039  -2.786  -0.354  0.00  0.00    +0.085 C 
ATOM     10  C   UNL     1       1.355  -2.105   0.032  0.00  0.00    +0.108 C 
ATOM     11  C   UNL     1       1.188  -0.613  -0.013  0.00  0.00    +0.216 C 
ATOM     12  O   UNL     1       2.186   0.075  -0.059  0.00  0.00    -0.276 OA
ENDBRANCH   1   9
BRANCH   3  13
ATOM     13  C   UNL     1       1.130  -6.455  -0.360  0.00  0.00    +0.108 C 
BRANCH  13  14
ATOM     14  C   UNL     1       2.261  -7.084  -1.178  0.00  0.00    +0.010 C 
ATOM     15  C   UNL     1       2.423  -8.558  -0.786  0.00  0.00    +0.009 C 
ATOM     16  C   UNL     1       3.668  -9.110  -1.484  0.00  0.00    +0.027 C 
ATOM     17  C   UNL     1       3.637  -8.767  -2.945  0.00  0.00    -0.031 C 
ATOM     18  C   UNL     1       2.879  -7.852  -3.459  0.00  0.00    -0.031 C 
ATOM     19  C   UNL     1       1.921  -7.009  -2.668  0.00  0.00    +0.032 C 
ENDBRANCH  13  14
ENDBRANCH   3  13
TORSDOF 3
