REMARK  Name = ZINC43418743
REMARK  10 active torsions:
REMARK  status: ('A' for Active; 'I' for Inactive)
REMARK    1  A    between atoms: C_1  and  C_2
REMARK    2  A    between atoms: C_2  and  C_3
REMARK    3  A    between atoms: C_2  and  C_4
REMARK    4  A    between atoms: C_4  and  N_5
REMARK    5  A    between atoms: N_5  and  C_6
REMARK    6  A    between atoms: N_5  and  C_12
REMARK    7  A    between atoms: C_6  and  C_7
REMARK    8  A    between atoms: C_7  and  C_8
REMARK    9  A    between atoms: N_9  and  O_10
REMARK   10  A    between atoms: C_12  and  C_13
REMARK                            x       y       z     vdW  Elec       q    Type
REMARK                         _______ _______ _______ _____ _____    ______ ____
ROOT
ATOM      1  N   UNL     1       2.151  -0.140  -1.074  0.00  0.00    +0.383 N 
ATOM      2  H   UNL     1       2.328   0.804  -0.763  0.00  0.00    -0.081 HD
ENDROOT
BRANCH   1   3
ATOM      3  C   UNL     1       0.702  -0.373  -1.131  0.00  0.00    -0.075 C 
BRANCH   3   5
ATOM      4  C   UNL     1       0.215   1.474   0.479  0.00  0.00    +0.005 C 
ATOM      5  C   UNL     1       0.076  -0.027   0.222  0.00  0.00    -0.034 C 
ATOM      6  C   UNL     1      -1.406  -0.407   0.210  0.00  0.00    +0.005 C 
ENDBRANCH   3   5
ENDBRANCH   1   3
BRANCH   1   7
ATOM      7  C   UNL     1       2.731  -0.333  -2.409  0.00  0.00    -0.071 C 
BRANCH   7   8
ATOM      8  C   UNL     1       2.187   0.734  -3.361  0.00  0.00    +0.056 C 
BRANCH   8   9
ATOM      9  C   UNL     1       2.782   0.536  -4.731  0.00  0.00    +0.130 C 
ATOM     10  N   UNL     1       3.615  -0.429  -4.940  0.00  0.00    -0.077 NA
ATOM     11  N   UNL     1       2.437   1.383  -5.761  0.00  0.00    -0.344 N 
ATOM     12  H   UNL     1       1.811   2.107  -5.604  0.00  0.00    +0.143 HD
ATOM     13  H   UNL     1       2.820   1.255  -6.643  0.00  0.00    +0.143 HD
BRANCH  10  14
ATOM     14  O   UNL     1       4.174  -0.615  -6.228  0.00  0.00    -0.408 OA
ATOM     15  H   UNL     1       4.787  -1.361  -6.287  0.00  0.00    +0.328 HD
ENDBRANCH  10  14
ENDBRANCH   8   9
ENDBRANCH   7   8
ENDBRANCH   1   7
BRANCH   1  16
ATOM     16  C   UNL     1       2.763  -1.087  -0.133  0.00  0.00    -0.042 C 
BRANCH  16  17
ATOM     17  C   UNL     1       4.234  -0.787  -0.003  0.00  0.00    -0.050 A 
ATOM     18  C   UNL     1       5.158  -1.542  -0.701  0.00  0.00    +0.003 A 
ATOM     19  C   UNL     1       6.507  -1.267  -0.582  0.00  0.00    +0.000 A 
ATOM     20  C   UNL     1       6.933  -0.236   0.235  0.00  0.00    +0.001 A 
ATOM     21  C   UNL     1       6.010   0.519   0.933  0.00  0.00    +0.015 A 
ATOM     22  C   UNL     1       4.659   0.247   0.811  0.00  0.00    +0.019 A 
ATOM     23 BR   UNL     1       3.396   1.285   1.760  0.00  0.00    -0.050 Br
ENDBRANCH  16  17
ENDBRANCH   1  16
TORSDOF 8
