REMARK  Name = ZINC07984325
REMARK  10 active torsions:
REMARK  status: ('A' for Active; 'I' for Inactive)
REMARK    1  A    between atoms: C_1  and  C_2
REMARK    2  A    between atoms: C_7  and  N_8
REMARK    3  A    between atoms: C_9  and  C_11
REMARK    4  A    between atoms: C_11  and  N_12
REMARK    5  A    between atoms: C_13  and  C_15
REMARK    6  A    between atoms: C_15  and  N_42
REMARK    7  A    between atoms: C_16  and  C_17
REMARK    8  A    between atoms: C_16  and  C_18
REMARK    9  A    between atoms: C_16  and  C_19
REMARK   10  A    between atoms: C_16  and  N_42
REMARK                            x       y       z     vdW  Elec       q    Type
REMARK                         _______ _______ _______ _____ _____    ______ ____
ROOT
ATOM      1  C   UNL     1       1.280   1.980  -0.015  0.00  0.00    +0.200 C 
ENDROOT
BRANCH   1   3
ATOM      2  N   UNL     1      -1.191   1.867   0.018  0.00  0.00    -0.284 N 
ATOM      3  C   UNL     1      -0.014   1.209   0.005  0.00  0.00    +0.234 C 
ATOM      4  O   UNL     1       0.003  -0.004   0.005  0.00  0.00    -0.274 OA
ATOM      5  H   UNL     1      -1.205   2.833   0.099  0.00  0.00    +0.155 HD
BRANCH   2  12
ATOM      6  C   UNL     1      -3.546   3.040   1.100  0.00  0.00    +0.046 C 
ATOM      7  C   UNL     1      -3.564   1.691   0.428  0.00  0.00    -0.028 A 
ATOM      8  C   UNL     1      -4.749   0.989   0.320  0.00  0.00    +0.020 A 
ATOM      9  C   UNL     1      -4.765  -0.252  -0.291  0.00  0.00    +0.018 A 
ATOM     10  C   UNL     1      -3.597  -0.791  -0.800  0.00  0.00    +0.017 A 
ATOM     11  C   UNL     1      -2.411  -0.091  -0.699  0.00  0.00    +0.024 A 
ATOM     12  C   UNL     1      -2.391   1.155  -0.086  0.00  0.00    +0.036 A 
ATOM     13 BR   UNL     1      -6.387  -1.214  -0.431  0.00  0.00    -0.050 Br
ENDBRANCH   2  12
ENDBRANCH   1   3
BRANCH   1  14
ATOM     14  N   UNL     1       2.407   1.044  -0.032  0.00  0.00    -0.308 N 
ATOM     15  C   UNL     1       3.671   1.511  -0.051  0.00  0.00    +0.196 C 
ATOM     16  O   UNL     1       3.876   2.706  -0.055  0.00  0.00    -0.278 OA
ATOM     17  H   UNL     1       2.243   0.088  -0.029  0.00  0.00    +0.149 HD
BRANCH  15  18
ATOM     18  C   UNL     1       4.830   0.547  -0.069  0.00  0.00    +0.016 C 
BRANCH  18  19
ATOM     19  N   UNL     1       6.092   1.310  -0.088  0.00  0.00    +0.388 N 
ATOM     20  H   UNL     1       6.143   1.902   0.749  0.00  0.00    -0.084 HD
ATOM     21  H   UNL     1       6.117   1.901  -0.927  0.00  0.00    -0.084 HD
BRANCH  19  22
ATOM     22  C   UNL     1       7.245   0.391  -0.106  0.00  0.00    -0.076 C 
ATOM     23  C   UNL     1       7.181  -0.492  -1.354  0.00  0.00    -0.011 C 
ATOM     24  C   UNL     1       8.538   1.209  -0.126  0.00  0.00    -0.011 C 
ATOM     25  C   UNL     1       7.219  -0.491   1.144  0.00  0.00    -0.011 C 
ENDBRANCH  19  22
ENDBRANCH  18  19
ENDBRANCH  15  18
ENDBRANCH   1  14
TORSDOF 6
