REMARK  Name = ZINC16286480
REMARK  8 active torsions:
REMARK  status: ('A' for Active; 'I' for Inactive)
REMARK    1  A    between atoms: C_1  and  C_2
REMARK    2  A    between atoms: C_2  and  O_3
REMARK    3  A    between atoms: O_3  and  C_4
REMARK    4  A    between atoms: C_7  and  C_10
REMARK    5  A    between atoms: C_17  and  N_31
REMARK    6  A    between atoms: C_18  and  C_29
REMARK    7  A    between atoms: C_19  and  C_21
REMARK    8  A    between atoms: C_26  and  O_27
REMARK                            x       y       z     vdW  Elec       q    Type
REMARK                         _______ _______ _______ _____ _____    ______ ____
ROOT
ATOM      1  C   UNL     1       1.326  -6.501  -1.927  0.00  0.00    +0.100 A 
ATOM      2  C   UNL     1       1.034  -6.969  -3.212  0.00  0.00    +0.054 A 
ATOM      3  C   UNL     1       1.125  -8.331  -3.196  0.00  0.00    +0.223 A 
ATOM      4  N   UNL     1       1.464  -8.705  -1.945  0.00  0.00    -0.246 N 
ATOM      5  H   UNL     1       1.600  -9.615  -1.639  0.00  0.00    +0.192 HD
ATOM      6  N   UNL     1       1.590  -7.545  -1.165  0.00  0.00    -0.171 NA
ATOM      7  O   UNL     1       0.894  -9.093  -4.294  0.00  0.00    -0.423 OA
ATOM      8  C   UNL     1       0.302  -8.502  -5.352  0.00  0.00    +0.200 C 
ATOM      9  C   UNL     1       0.166  -7.164  -5.486  0.00  0.00    +0.098 C 
ATOM     10  C   UNL     1       0.674  -6.191  -4.451  0.00  0.00    +0.105 C 
ENDROOT
BRANCH  10  11
ATOM     11  C   UNL     1       1.894  -5.480  -4.978  0.00  0.00    +0.008 A 
ATOM     12  C   UNL     1       3.051  -6.190  -5.233  0.00  0.00    +0.023 A 
ATOM     13  C   UNL     1       4.172  -5.538  -5.716  0.00  0.00    +0.018 A 
ATOM     14  C   UNL     1       4.136  -4.174  -5.945  0.00  0.00    +0.019 A 
ATOM     15  C   UNL     1       2.981  -3.461  -5.691  0.00  0.00    +0.047 A 
ATOM     16  C   UNL     1       1.854  -4.114  -5.211  0.00  0.00    +0.121 A 
ATOM     17 BR   UNL     1       5.754  -6.513  -6.065  0.00  0.00    -0.050 Br
BRANCH  16  18
ATOM     18  O   UNL     1       0.715  -3.414  -4.965  0.00  0.00    -0.506 OA
ATOM     19  H   UNL     1       0.693  -2.991  -4.096  0.00  0.00    +0.292 HD
ENDBRANCH  16  18
ENDBRANCH  10  11
BRANCH   1  23
ATOM     20  C   UNL     1       1.375  -2.428  -0.700  0.00  0.00    +0.121 A 
ATOM     21  C   UNL     1       2.381  -3.289  -0.283  0.00  0.00    +0.046 A 
ATOM     22  C   UNL     1       2.368  -4.610  -0.680  0.00  0.00    +0.013 A 
ATOM     23  C   UNL     1       1.343  -5.080  -1.499  0.00  0.00    +0.003 A 
ATOM     24  C   UNL     1       0.334  -4.213  -1.915  0.00  0.00    +0.013 A 
ATOM     25  C   UNL     1       0.350  -2.894  -1.511  0.00  0.00    +0.046 A 
BRANCH  20  26
ATOM     26  O   UNL     1       1.391  -1.127  -0.307  0.00  0.00    -0.492 OA
BRANCH  26  28
ATOM     27  C   UNL     1       2.323   0.771   0.863  0.00  0.00    +0.048 C 
ATOM     28  C   UNL     1       2.475  -0.714   0.527  0.00  0.00    +0.225 C 
ENDBRANCH  26  28
ENDBRANCH  20  26
ENDBRANCH   1  23
BRANCH   8  29
ATOM     29  N   UNL     1      -0.190  -9.305  -6.350  0.00  0.00    -0.328 N 
ATOM     30  H   UNL     1      -0.107 -10.269  -6.282  0.00  0.00    +0.145 HD
ATOM     31  H   UNL     1      -0.621  -8.909  -7.123  0.00  0.00    +0.145 HD
ENDBRANCH   8  29
BRANCH   9  32
ATOM     32  C   UNL     1      -0.485  -6.651  -6.654  0.00  0.00    +0.101 C 
ATOM     33  N   UNL     1      -1.002  -6.244  -7.580  0.00  0.00    -0.191 NA
ENDBRANCH   9  32
TORSDOF 7
