REMARK  Name = ZINC39336623
REMARK  4 active torsions:
REMARK  status: ('A' for Active; 'I' for Inactive)
REMARK    1  A    between atoms: C_4  and  N_7
REMARK    2  A    between atoms: C_8  and  N_28
REMARK    3  A    between atoms: C_10  and  C_13
REMARK    4  A    between atoms: N_19  and  C_20
REMARK                            x       y       z     vdW  Elec       q    Type
REMARK                         _______ _______ _______ _____ _____    ______ ____
ROOT
ATOM      1  N   UNL     1       3.596  -0.661   0.009  0.00  0.00    -0.264 N 
ATOM      2  C   UNL     1       3.811  -2.118   0.020  0.00  0.00    +0.066 C 
ATOM      3  C   UNL     1       5.312  -2.281  -0.064  0.00  0.00    -0.007 C 
ATOM      4  C   UNL     1       5.839  -1.077  -0.114  0.00  0.00    +0.090 C 
ATOM      5  N   UNL     1       4.873  -0.089  -0.079  0.00  0.00    -0.272 N 
ATOM      6  H   UNL     1       5.053   0.863  -0.110  0.00  0.00    +0.169 HD
ENDROOT
BRANCH   3   7
ATOM      7  C   UNL     1       6.066  -3.586  -0.086  0.00  0.00    +0.244 C 
ATOM      8  N   UNL     1       5.541  -4.468  -1.140  0.00  0.00    -0.191 NA
ATOM      9  N   UNL     1       5.107  -5.490  -0.603  0.00  0.00    -0.220 N 
ATOM     10  C   UNL     1       5.243  -5.489   0.751  0.00  0.00    +0.159 C 
ATOM     11  S   UNL     1       4.744  -6.756   1.788  0.00  0.00    -0.017 S 
ATOM     12  N   UNL     1       5.833  -4.340   1.159  0.00  0.00    -0.252 N 
ATOM     13  H   UNL     1       4.709  -6.224  -1.097  0.00  0.00    +0.176 HD
BRANCH  12  14
ATOM     14  C   UNL     1       6.149  -3.954   2.466  0.00  0.00    +0.056 A 
ATOM     15  C   UNL     1       5.192  -3.337   3.260  0.00  0.00    +0.026 A 
ATOM     16  C   UNL     1       5.506  -2.957   4.550  0.00  0.00    +0.022 A 
ATOM     17  C   UNL     1       6.775  -3.190   5.052  0.00  0.00    +0.042 A 
ATOM     18  C   UNL     1       7.732  -3.804   4.263  0.00  0.00    +0.041 A 
ATOM     19  C   UNL     1       7.421  -4.192   2.974  0.00  0.00    +0.064 A 
ATOM     20 CL   UNL     1       8.620  -4.968   1.987  0.00  0.00    -0.082 Cl
ATOM     21 CL   UNL     1       7.167  -2.710   6.674  0.00  0.00    -0.083 Cl
ENDBRANCH  12  14
ENDBRANCH   3   7
BRANCH   1  25
ATOM     22  C   UNL     1      -0.048   1.345   0.183  0.00  0.00    +0.000 A 
ATOM     23  C   UNL     1       1.131   2.063   0.099  0.00  0.00    +0.002 A 
ATOM     24  C   UNL     1       2.341   1.401   0.041  0.00  0.00    +0.024 A 
ATOM     25  C   UNL     1       2.374   0.012   0.068  0.00  0.00    +0.046 A 
ATOM     26  C   UNL     1       1.188  -0.706   0.153  0.00  0.00    +0.024 A 
ATOM     27  C   UNL     1      -0.020  -0.037   0.210  0.00  0.00    +0.002 A 
ENDBRANCH   1  25
BRANCH   2  28
ATOM     28  N   UNL     1       3.159  -2.741  -1.140  0.00  0.00    +0.394 N 
ATOM     29  H   UNL     1       3.530  -2.341  -1.989  0.00  0.00    -0.087 HD
ATOM     30  H   UNL     1       3.335  -3.734  -1.131  0.00  0.00    -0.087 HD
ATOM     31  H   UNL     1       2.165  -2.575  -1.096  0.00  0.00    -0.087 HD
ENDBRANCH   2  28
TORSDOF 4
