REMARK  Name = ZINC03308546
REMARK  12 active torsions:
REMARK  status: ('A' for Active; 'I' for Inactive)
REMARK    1  A    between atoms: C_1  and  C_2
REMARK    2  A    between atoms: C_3  and  N_15
REMARK    3  A    between atoms: N_6  and  C_9
REMARK    4  A    between atoms: N_7  and  C_8
REMARK    5  A    between atoms: N_15  and  C_16
REMARK    6  A    between atoms: C_16  and  N_18
REMARK    7  A    between atoms: N_18  and  N_19
REMARK    8  A    between atoms: N_19  and  C_20
REMARK    9  A    between atoms: C_20  and  N_22
REMARK   10  A    between atoms: N_22  and  C_23
REMARK   11  A    between atoms: C_26  and  O_29
REMARK   12  A    between atoms: O_29  and  C_30
REMARK                            x       y       z     vdW  Elec       q    Type
REMARK                         _______ _______ _______ _____ _____    ______ ____
ROOT
ATOM      1  C   UNL     1       1.253  -6.096  -0.578  0.00  0.00    +0.151 C 
ATOM      2  S   UNL     1      -0.223  -6.952  -0.432  0.00  0.00    -0.017 S 
ENDROOT
BRANCH   1   3
ATOM      3  N   UNL     1       2.416  -6.770  -0.679  0.00  0.00    -0.290 N 
ATOM      4  H   UNL     1       3.257  -6.287  -0.685  0.00  0.00    +0.154 HD
BRANCH   3   7
ATOM      5  C   UNL     1       3.715  -8.655   1.355  0.00  0.00    +0.067 C 
ATOM      6  C   UNL     1       2.972  -9.035   0.101  0.00  0.00    +0.059 A 
ATOM      7  C   UNL     1       2.409  -8.176  -0.776  0.00  0.00    +0.121 A 
ATOM      8  C   UNL     1       1.816  -8.937  -1.817  0.00  0.00    +0.293 A 
ATOM      9  O   UNL     1       1.223  -8.493  -2.783  0.00  0.00    -0.264 OA
ATOM     10  N   UNL     1       2.029 -10.240  -1.543  0.00  0.00    -0.216 N 
ATOM     11  N   UNL     1       2.748 -10.314  -0.343  0.00  0.00    -0.282 N 
ATOM     12  C   UNL     1       3.191 -11.544   0.319  0.00  0.00    +0.171 C 
BRANCH  10  13
ATOM     13  C   UNL     1       1.606 -11.325  -2.319  0.00  0.00    +0.067 A 
ATOM     14  C   UNL     1       2.386 -12.472  -2.394  0.00  0.00    +0.028 A 
ATOM     15  C   UNL     1       1.963 -13.543  -3.158  0.00  0.00    +0.002 A 
ATOM     16  C   UNL     1       0.771 -13.470  -3.854  0.00  0.00    +0.000 A 
ATOM     17  C   UNL     1      -0.005 -12.327  -3.785  0.00  0.00    +0.002 A 
ATOM     18  C   UNL     1       0.409 -11.255  -3.020  0.00  0.00    +0.028 A 
ENDBRANCH  10  13
ENDBRANCH   3   7
ENDBRANCH   1   3
BRANCH   1  19
ATOM     19  N   UNL     1       1.251  -4.748  -0.591  0.00  0.00    -0.246 N 
ATOM     20  H   UNL     1       0.414  -4.263  -0.518  0.00  0.00    +0.172 HD
BRANCH  19  21
ATOM     21  N   UNL     1       2.459  -4.048  -0.710  0.00  0.00    -0.246 N 
ATOM     22  H   UNL     1       3.296  -4.533  -0.782  0.00  0.00    +0.172 HD
BRANCH  21  23
ATOM     23  C   UNL     1       2.457  -2.700  -0.723  0.00  0.00    +0.151 C 
ATOM     24  S   UNL     1       3.933  -1.844  -0.868  0.00  0.00    -0.017 S 
BRANCH  23  25
ATOM     25  N   UNL     1       1.295  -2.026  -0.622  0.00  0.00    -0.296 N 
ATOM     26  H   UNL     1       0.466  -2.508  -0.473  0.00  0.00    +0.154 HD
BRANCH  25  27
ATOM     27  C   UNL     1       1.282  -0.630  -0.731  0.00  0.00    +0.033 A 
ATOM     28  C   UNL     1       2.050  -0.002  -1.703  0.00  0.00    +0.027 A 
ATOM     29  C   UNL     1       2.037   1.374  -1.811  0.00  0.00    +0.047 A 
ATOM     30  C   UNL     1       1.258   2.131  -0.947  0.00  0.00    +0.127 A 
ATOM     31  C   UNL     1       0.491   1.504   0.025  0.00  0.00    +0.047 A 
ATOM     32  C   UNL     1       0.503   0.128   0.133  0.00  0.00    +0.027 A 
BRANCH  30  33
ATOM     33  O   UNL     1       1.246   3.486  -1.053  0.00  0.00    -0.434 OA
BRANCH  33  34
ATOM     34  C   UNL     1       0.421   4.202  -0.132  0.00  0.00    +0.541 C 
ATOM     35  F   UNL     1      -0.910   3.801  -0.289  0.00  0.00    -0.166 F 
ATOM     36  F   UNL     1       0.838   3.931   1.176  0.00  0.00    -0.166 F 
ENDBRANCH  33  34
ENDBRANCH  30  33
ENDBRANCH  25  27
ENDBRANCH  23  25
ENDBRANCH  21  23
ENDBRANCH  19  21
ENDBRANCH   1  19
TORSDOF 10
