REMARK  Name = ZINC59501848
REMARK  5 active torsions:
REMARK  status: ('A' for Active; 'I' for Inactive)
REMARK    1  A    between atoms: C_1  and  C_2
REMARK    2  A    between atoms: C_7  and  O_8
REMARK    3  A    between atoms: N_13  and  O_14
REMARK    4  A    between atoms: O_14  and  C_15
REMARK    5  A    between atoms: C_15  and  C_17
REMARK                            x       y       z     vdW  Elec       q    Type
REMARK                         _______ _______ _______ _____ _____    ______ ____
ROOT
ATOM      1  C   UNL     1      -0.018   1.503   0.010  0.00  0.00    +0.047 C 
ATOM      2  C   UNL     1       0.002  -0.004   0.002  0.00  0.00    -0.008 A 
ATOM      3  C   UNL     1       0.006  -0.688  -1.194  0.00  0.00    +0.017 A 
ATOM      4  C   UNL     1       0.026  -2.084  -1.198  0.00  0.00    +0.003 A 
ATOM      5  C   UNL     1       0.046  -2.790   0.005  0.00  0.00    -0.035 A 
ATOM      6  C   UNL     1       0.038  -2.094   1.199  0.00  0.00    +0.050 A 
ATOM      7  C   UNL     1       0.023  -0.706   1.200  0.00  0.00    +0.120 A 
ATOM      8  C   UNL     1       0.081  -4.294   0.036  0.00  0.00    +0.036 C 
ATOM      9  C   UNL     1      -0.460  -4.888  -1.261  0.00  0.00    +0.011 C 
ATOM     10  C   UNL     1       0.311  -4.300  -2.451  0.00  0.00    +0.060 C 
ATOM     11  C   UNL     1       0.024  -2.813  -2.485  0.00  0.00    +0.088 C 
ATOM     12  N   UNL     1      -0.215  -2.202  -3.601  0.00  0.00    -0.078 NA
ENDROOT
BRANCH   7  13
ATOM     13  O   UNL     1       0.023  -0.032   2.379  0.00  0.00    -0.506 OA
ATOM     14  H   UNL     1      -0.861   0.150   2.728  0.00  0.00    +0.292 HD
ENDBRANCH   7  13
BRANCH  12  15
ATOM     15  O   UNL     1      -0.210  -2.925  -4.819  0.00  0.00    -0.312 OA
BRANCH  15  16
ATOM     16  C   UNL     1      -0.473  -2.171  -5.904  0.00  0.00    +0.368 C 
ATOM     17  O   UNL     1      -0.687  -0.982  -5.780  0.00  0.00    -0.243 OA
BRANCH  16  18
ATOM     18  C   UNL     1      -0.502  -2.791  -7.243  0.00  0.00    +0.080 A 
ATOM     19  C   UNL     1      -0.263  -4.159  -7.389  0.00  0.00    +0.016 A 
ATOM     20  C   UNL     1      -0.291  -4.732  -8.643  0.00  0.00    +0.001 A 
ATOM     21  C   UNL     1      -0.555  -3.954  -9.757  0.00  0.00    +0.001 A 
ATOM     22  C   UNL     1      -0.793  -2.598  -9.622  0.00  0.00    +0.021 A 
ATOM     23  C   UNL     1      -0.774  -2.012  -8.371  0.00  0.00    +0.055 A 
ATOM     24 CL   UNL     1      -1.081  -0.312  -8.202  0.00  0.00    -0.083 Cl
ENDBRANCH  16  18
ENDBRANCH  15  16
ENDBRANCH  12  15
TORSDOF 4
