REMARK  Name = ZINC67558070
REMARK  10 active torsions:
REMARK  status: ('A' for Active; 'I' for Inactive)
REMARK    1  A    between atoms: C_1  and  C_2
REMARK    2  A    between atoms: C_5  and  O_8
REMARK    3  A    between atoms: O_8  and  C_9
REMARK    4  A    between atoms: C_9  and  C_10
REMARK    5  A    between atoms: C_10  and  C_12
REMARK    6  A    between atoms: C_10  and  N_13
REMARK    7  A    between atoms: N_16  and  C_17
REMARK    8  A    between atoms: C_17  and  C_18
REMARK    9  A    between atoms: C_21  and  S_23
REMARK   10  A    between atoms: S_23  and  N_26
REMARK                            x       y       z     vdW  Elec       q    Type
REMARK                         _______ _______ _______ _____ _____    ______ ____
ROOT
ATOM      1  N   UNL     1      -1.160  -6.721   0.402  0.00  0.00    -0.294 N 
ATOM      2  C   UNL     1      -1.607  -7.982   0.562  0.00  0.00    +0.300 C 
ATOM      3  O   UNL     1      -0.974  -8.771   1.236  0.00  0.00    -0.253 OA
ATOM      4  N   UNL     1      -2.757  -8.368  -0.026  0.00  0.00    -0.295 N 
ATOM      5  H   UNL     1      -1.665  -6.091  -0.136  0.00  0.00    +0.151 HD
ATOM      6  H   UNL     1      -3.262  -7.739  -0.564  0.00  0.00    +0.151 HD
ENDROOT
BRANCH   1   7
ATOM      7  C   UNL     1       0.090  -6.300   1.040  0.00  0.00    +0.109 C 
ATOM      8  C   UNL     1       1.272  -6.677   0.145  0.00  0.00    +0.031 C 
BRANCH   7   9
ATOM      9  C   UNL     1       0.072  -4.785   1.249  0.00  0.00    +0.251 C 
BRANCH   9  10
ATOM     10  O   UNL     1       0.057  -4.129  -0.021  0.00  0.00    -0.490 OA
BRANCH  10  15
ATOM     11  C   UNL     1      -0.018   1.503   0.010  0.00  0.00    +0.044 C 
ATOM     12  C   UNL     1       0.002  -0.004   0.002  0.00  0.00    -0.050 A 
ATOM     13  C   UNL     1       0.006  -0.688  -1.200  0.00  0.00    +0.007 A 
ATOM     14  C   UNL     1       0.024  -2.069  -1.210  0.00  0.00    +0.046 A 
ATOM     15  C   UNL     1       0.039  -2.770  -0.013  0.00  0.00    +0.121 A 
ATOM     16  C   UNL     1       0.036  -2.082   1.191  0.00  0.00    +0.046 A 
ATOM     17  C   UNL     1       0.023  -0.701   1.196  0.00  0.00    +0.007 A 
ENDBRANCH  10  15
ENDBRANCH   9  10
ENDBRANCH   7   9
ENDBRANCH   1   7
BRANCH   4  18
ATOM     18  C   UNL     1      -3.244  -9.739   0.148  0.00  0.00    +0.148 C 
BRANCH  18  19
ATOM     19  C   UNL     1      -4.537  -9.912  -0.605  0.00  0.00    +0.009 A 
ATOM     20  C   UNL     1      -4.733 -10.315  -1.884  0.00  0.00    +0.015 A 
ATOM     21  C   UNL     1      -6.025 -10.402  -2.369  0.00  0.00    +0.036 A 
ATOM     22  C   UNL     1      -7.057 -10.083  -1.550  0.00  0.00    +0.142 A 
ATOM     23  S   UNL     1      -6.210  -9.648  -0.040  0.00  0.00    -0.072 S 
BRANCH  22  24
ATOM     24  S   UNL     1      -8.787 -10.100  -1.888  0.00  0.00    +0.062 S 
ATOM     25  O   UNL     1      -9.387  -9.193  -0.974  0.00  0.00    -0.153 OA
ATOM     26  O   UNL     1      -8.927  -9.967  -3.296  0.00  0.00    -0.153 OA
BRANCH  24  27
ATOM     27  N   UNL     1      -9.348 -11.608  -1.496  0.00  0.00    -0.203 NA
ATOM     28  H   UNL     1      -8.737 -12.278  -1.152  0.00  0.00    +0.144 HD
ATOM     29  H   UNL     1     -10.287 -11.821  -1.611  0.00  0.00    +0.144 HD
ENDBRANCH  24  27
ENDBRANCH  22  24
ENDBRANCH  18  19
ENDBRANCH   4  18
TORSDOF 8
