REMARK  Name = ZINC26334479
REMARK  10 active torsions:
REMARK  status: ('A' for Active; 'I' for Inactive)
REMARK    1  A    between atoms: C_1  and  C_2
REMARK    2  A    between atoms: C_2  and  C_4
REMARK    3  A    between atoms: C_2  and  N_12
REMARK    4  A    between atoms: C_9  and  O_10
REMARK    5  A    between atoms: O_10  and  C_11
REMARK    6  A    between atoms: N_12  and  C_13
REMARK    7  A    between atoms: N_12  and  C_14
REMARK    8  A    between atoms: C_14  and  C_15
REMARK    9  A    between atoms: C_18  and  C_24
REMARK   10  A    between atoms: C_20  and  N_21
REMARK                            x       y       z     vdW  Elec       q    Type
REMARK                         _______ _______ _______ _____ _____    ______ ____
ROOT
ATOM      1  C   UNL     1      -2.375   0.560  -0.206  0.00  0.00    -0.040 C 
ENDROOT
BRANCH   1   2
ATOM      2  C   UNL     1      -0.930   0.976  -0.304  0.00  0.00    -0.034 A 
ATOM      3  C   UNL     1       0.060   0.012  -0.380  0.00  0.00    +0.005 A 
ATOM      4  C   UNL     1       1.385   0.386  -0.477  0.00  0.00    +0.013 A 
ATOM      5  C   UNL     1       1.725   1.739  -0.492  0.00  0.00    +0.039 A 
ATOM      6  C   UNL     1       0.722   2.706  -0.410  0.00  0.00    +0.046 A 
ATOM      7  C   UNL     1      -0.599   2.319  -0.314  0.00  0.00    +0.128 A 
BRANCH   5   8
ATOM      8  C   UNL     1       3.142   2.147  -0.596  0.00  0.00    +0.242 C 
ATOM      9  O   UNL     1       3.436   3.327  -0.609  0.00  0.00    -0.270 OA
ATOM     10  N   UNL     1       4.109   1.211  -0.674  0.00  0.00    -0.325 N 
ATOM     11  H   UNL     1       5.163   1.515  -0.751  0.00  0.00    +0.145 HD
ATOM     12  H   UNL     1       3.843   0.144  -0.662  0.00  0.00    +0.145 HD
ENDBRANCH   5   8
BRANCH   7  13
ATOM     13  N   UNL     1      -1.664   3.342  -0.227  0.00  0.00    +0.057 N 
ATOM     14  O   UNL     1      -1.375   4.525  -0.240  0.00  0.00    -0.126 OA
ATOM     15  O   UNL     1      -2.831   3.002  -0.142  0.00  0.00    -0.126 OA
ENDBRANCH   7  13
ENDBRANCH   1   2
BRANCH   1  16
ATOM     16  N   UNL     1      -3.006   0.664  -1.528  0.00  0.00    +0.385 N 
ATOM     17  C   UNL     1      -2.427  -0.306  -2.466  0.00  0.00    -0.095 C 
ATOM     18  H   UNL     1      -2.807   1.673  -1.919  0.00  0.00    -0.081 HD
BRANCH  16  20
ATOM     19  C   UNL     1      -4.805  -0.993  -1.415  0.00  0.00    -0.008 C 
ATOM     20  C   UNL     1      -4.463   0.498  -1.431  0.00  0.00    -0.037 C 
BRANCH  20  21
ATOM     21  C   UNL     1      -5.123   1.153  -2.617  0.00  0.00    -0.019 A 
ATOM     22  C   UNL     1      -4.375   1.483  -3.730  0.00  0.00    +0.005 A 
ATOM     23  C   UNL     1      -4.980   2.084  -4.818  0.00  0.00    +0.000 A 
ATOM     24  C   UNL     1      -6.336   2.355  -4.796  0.00  0.00    +0.004 A 
ATOM     25  C   UNL     1      -7.088   2.027  -3.685  0.00  0.00    +0.046 A 
ATOM     26  C   UNL     1      -6.484   1.419  -2.594  0.00  0.00    +0.122 A 
BRANCH  26  27
ATOM     27  O   UNL     1      -7.224   1.090  -1.502  0.00  0.00    -0.495 OA
ATOM     28  C   UNL     1      -8.619   1.394  -1.548  0.00  0.00    +0.277 C 
ENDBRANCH  26  27
ENDBRANCH  20  21
ENDBRANCH  16  20
ENDBRANCH   1  16
TORSDOF 7
