REMARK  Name = ZINC40802452
REMARK  4 active torsions:
REMARK  status: ('A' for Active; 'I' for Inactive)
REMARK    1  A    between atoms: C_1  and  C_2
REMARK    2  A    between atoms: C_5  and  O_19
REMARK    3  A    between atoms: C_6  and  N_8
REMARK    4  A    between atoms: O_19  and  C_20
REMARK                            x       y       z     vdW  Elec       q    Type
REMARK                         _______ _______ _______ _____ _____    ______ ____
ROOT
ATOM      1  N   UNL     1       0.051  -2.786   2.358  0.00  0.00    -0.224 NA
ATOM      2  C   UNL     1       0.859  -2.418   3.328  0.00  0.00    +0.163 C 
ATOM      3  C   UNL     1       1.063  -3.133   4.608  0.00  0.00    +0.030 A 
ATOM      4  C   UNL     1       0.548  -4.288   5.171  0.00  0.00    +0.012 A 
ATOM      5  C   UNL     1       0.969  -4.684   6.430  0.00  0.00    +0.001 A 
ATOM      6  C   UNL     1       1.899  -3.934   7.127  0.00  0.00    +0.001 A 
ATOM      7  C   UNL     1       2.423  -2.777   6.578  0.00  0.00    +0.012 A 
ATOM      8  C   UNL     1       2.012  -2.367   5.317  0.00  0.00    +0.025 A 
ATOM      9  C   UNL     1       2.343  -1.226   4.444  0.00  0.00    +0.126 C 
ATOM     10  N   UNL     1       1.655  -1.320   3.328  0.00  0.00    -0.212 NA
ATOM     11  N   UNL     1       3.232  -0.224   4.748  0.00  0.00    -0.343 N 
ATOM     12  H   UNL     1       3.702  -0.233   5.597  0.00  0.00    +0.144 HD
ATOM     13  H   UNL     1       3.392   0.492   4.113  0.00  0.00    +0.144 HD
ENDROOT
BRANCH   1  19
ATOM     14  C   UNL     1      -0.893   1.651   0.534  0.00  0.00    +0.044 C 
ATOM     15  C   UNL     1      -0.586   0.188   0.347  0.00  0.00    -0.048 A 
ATOM     16  C   UNL     1      -0.482  -0.337  -0.930  0.00  0.00    +0.007 A 
ATOM     17  C   UNL     1      -0.200  -1.678  -1.116  0.00  0.00    +0.048 A 
ATOM     18  C   UNL     1      -0.020  -2.508  -0.022  0.00  0.00    +0.145 A 
ATOM     19  C   UNL     1      -0.124  -1.981   1.276  0.00  0.00    +0.108 A 
ATOM     20  C   UNL     1      -0.404  -0.620   1.448  0.00  0.00    +0.035 A 
BRANCH  18  21
ATOM     21  O   UNL     1       0.256  -3.825  -0.203  0.00  0.00    -0.493 OA
ATOM     22  C   UNL     1       0.346  -4.289  -1.552  0.00  0.00    +0.277 C 
ENDBRANCH  18  21
ENDBRANCH   1  19
TORSDOF 2
