REMARK  Name = ZINC09665138
REMARK  7 active torsions:
REMARK  status: ('A' for Active; 'I' for Inactive)
REMARK    1  A    between atoms: C_1  and  N_2
REMARK    2  A    between atoms: N_2  and  C_3
REMARK    3  A    between atoms: N_2  and  S_9
REMARK    4  A    between atoms: S_9  and  C_12
REMARK    5  A    between atoms: C_15  and  C_18
REMARK    6  A    between atoms: N_20  and  C_21
REMARK    7  A    between atoms: C_21  and  C_22
REMARK                            x       y       z     vdW  Elec       q    Type
REMARK                         _______ _______ _______ _____ _____    ______ ____
ROOT
ATOM      1  C   UNL     1      -3.302   2.395   1.478  0.00  0.00    +0.109 A 
ATOM      2  C   UNL     1      -4.194   1.445   1.013  0.00  0.00    +0.029 A 
ATOM      3  C   UNL     1      -5.387   1.232   1.674  0.00  0.00    +0.015 A 
ATOM      4  C   UNL     1      -5.697   1.985   2.808  0.00  0.00    +0.037 A 
ATOM      5  C   UNL     1      -4.795   2.946   3.268  0.00  0.00    +0.015 A 
ATOM      6  C   UNL     1      -3.604   3.145   2.601  0.00  0.00    +0.029 A 
ENDROOT
BRANCH   4   7
ATOM      7  C   UNL     1      -6.975   1.766   3.518  0.00  0.00    +0.244 C 
ATOM      8  O   UNL     1      -7.242   2.423   4.505  0.00  0.00    -0.270 OA
ATOM      9  N   UNL     1      -7.843   0.837   3.071  0.00  0.00    -0.308 N 
ATOM     10  H   UNL     1      -7.630   0.313   2.283  0.00  0.00    +0.149 HD
BRANCH   9  11
ATOM     11  C   UNL     1      -9.110   0.620   3.775  0.00  0.00    +0.152 C 
BRANCH  11  12
ATOM     12  C   UNL     1      -9.904  -0.479   3.068  0.00  0.00    +0.228 C 
ATOM     13  C   UNL     1     -11.284  -0.625   3.724  0.00  0.00    +0.275 C 
ATOM     14  O   UNL     1     -11.994  -1.669   3.048  0.00  0.00    -0.485 OA
ATOM     15  C   UNL     1     -11.309  -2.820   2.809  0.00  0.00    +0.162 A 
ATOM     16  C   UNL     1     -12.008  -3.975   2.493  0.00  0.00    +0.049 A 
ATOM     17  C   UNL     1     -11.326  -5.151   2.245  0.00  0.00    +0.004 A 
ATOM     18  C   UNL     1      -9.946  -5.180   2.311  0.00  0.00    +0.004 A 
ATOM     19  C   UNL     1      -9.243  -4.033   2.626  0.00  0.00    +0.049 A 
ATOM     20  C   UNL     1      -9.921  -2.849   2.878  0.00  0.00    +0.163 A 
ATOM     21  O   UNL     1      -9.215  -1.728   3.191  0.00  0.00    -0.480 OA
ENDBRANCH  11  12
ENDBRANCH   9  11
ENDBRANCH   4   7
BRANCH   1  22
ATOM     22  S   UNL     1      -1.779   2.655   0.632  0.00  0.00    +0.074 S 
ATOM     23  O   UNL     1      -1.286   3.917   1.062  0.00  0.00    -0.150 OA
ATOM     24  O   UNL     1      -2.018   2.358  -0.737  0.00  0.00    -0.150 OA
BRANCH  22  26
ATOM     25  C   UNL     1      -0.704   0.173   0.598  0.00  0.00    +0.157 C 
ATOM     26  N   UNL     1      -0.711   1.516   1.184  0.00  0.00    -0.206 N 
BRANCH  26  27
ATOM     27  C   UNL     1       0.183   1.836   2.209  0.00  0.00    +0.051 A 
ATOM     28  C   UNL     1      -0.289   2.087   3.491  0.00  0.00    +0.025 A 
ATOM     29  C   UNL     1       0.598   2.398   4.503  0.00  0.00    +0.002 A 
ATOM     30  C   UNL     1       1.954   2.469   4.239  0.00  0.00    +0.000 A 
ATOM     31  C   UNL     1       2.426   2.225   2.962  0.00  0.00    +0.002 A 
ATOM     32  C   UNL     1       1.545   1.908   1.947  0.00  0.00    +0.025 A 
ENDBRANCH  26  27
ENDBRANCH  22  26
ENDBRANCH   1  22
TORSDOF 6
