REMARK  Name = ZINC21633118
REMARK  5 active torsions:
REMARK  status: ('A' for Active; 'I' for Inactive)
REMARK    1  A    between atoms: C_1  and  N_2
REMARK    2  A    between atoms: C_3  and  C_5
REMARK    3  A    between atoms: C_10  and  N_11
REMARK    4  A    between atoms: N_11  and  S_12
REMARK    5  A    between atoms: S_12  and  C_15
REMARK                            x       y       z     vdW  Elec       q    Type
REMARK                         _______ _______ _______ _____ _____    ______ ____
ROOT
ATOM      1  C   UNL     1      -0.195   1.472   0.279  0.00  0.00    +0.061 A 
ATOM      2  C   UNL     1       0.946   2.262   0.441  0.00  0.00    +0.015 A 
ATOM      3  C   UNL     1       2.189   1.672   0.493  0.00  0.00    +0.001 A 
ATOM      4  C   UNL     1       2.316   0.296   0.386  0.00  0.00    +0.002 A 
ATOM      5  C   UNL     1       1.200  -0.498   0.226  0.00  0.00    +0.027 A 
ATOM      6  C   UNL     1      -0.063   0.079   0.171  0.00  0.00    +0.086 A 
ENDROOT
BRANCH   1   9
ATOM      7  C   UNL     1      -2.975   4.058   0.259  0.00  0.00    +0.128 C 
ATOM      8  N   UNL     1      -1.650   3.436   0.321  0.00  0.00    -0.314 N 
ATOM      9  C   UNL     1      -1.528   2.098   0.217  0.00  0.00    +0.246 C 
ATOM     10  O   UNL     1      -2.518   1.407   0.070  0.00  0.00    -0.270 OA
ATOM     11  H   UNL     1      -0.755   4.061   0.453  0.00  0.00    +0.149 HD
ENDBRANCH   1   9
BRANCH   6  12
ATOM     12  N   UNL     1      -1.189  -0.718   0.009  0.00  0.00    -0.097 NA
BRANCH  12  13
ATOM     13  S   UNL     1      -1.253  -2.213   0.718  0.00  0.00    +0.092 S 
ATOM     14  O   UNL     1      -2.561  -2.718   0.484  0.00  0.00    -0.148 OA
ATOM     15  O   UNL     1      -0.084  -2.909   0.307  0.00  0.00    -0.148 OA
BRANCH  13  16
ATOM     16  C   UNL     1      -1.111  -1.972   2.458  0.00  0.00    +0.110 A 
ATOM     17  C   UNL     1       0.136  -1.974   3.056  0.00  0.00    +0.030 A 
ATOM     18  C   UNL     1       0.249  -1.779   4.419  0.00  0.00    +0.022 A 
ATOM     19  C   UNL     1      -0.886  -1.592   5.188  0.00  0.00    +0.041 A 
ATOM     20  C   UNL     1      -2.134  -1.595   4.589  0.00  0.00    +0.022 A 
ATOM     21  C   UNL     1      -2.245  -1.785   3.225  0.00  0.00    +0.030 A 
ATOM     22 CL   UNL     1      -0.746  -1.353   6.901  0.00  0.00    -0.084 Cl
ENDBRANCH  13  16
ENDBRANCH  12  13
ENDBRANCH   6  12
TORSDOF 4
