REMARK  Name = ZINC32675431
REMARK  6 active torsions:
REMARK  status: ('A' for Active; 'I' for Inactive)
REMARK    1  A    between atoms: C_1  and  C_2
REMARK    2  A    between atoms: C_2  and  C_13
REMARK    3  A    between atoms: N_15  and  C_16
REMARK    4  A    between atoms: C_16  and  C_17
REMARK    5  A    between atoms: C_17  and  C_19
REMARK    6  A    between atoms: C_17  and  C_25
REMARK                            x       y       z     vdW  Elec       q    Type
REMARK                         _______ _______ _______ _____ _____    ______ ____
ROOT
ATOM      1  C   UNL     1       4.958   1.726  -4.038  0.00  0.00    +0.117 C 
ENDROOT
BRANCH   1   4
ATOM      2  C   UNL     1       4.632   0.389  -2.027  0.00  0.00    +0.257 C 
ATOM      3  O   UNL     1       4.012  -0.411  -2.695  0.00  0.00    -0.271 OA
ATOM      4  N   UNL     1       5.147   1.493  -2.604  0.00  0.00    -0.311 N 
ATOM      5  H   UNL     1       5.709   2.219  -1.998  0.00  0.00    +0.149 HD
BRANCH   2   7
ATOM      6  C   UNL     1       6.175  -0.536  -0.320  0.00  0.00    +0.066 C 
ATOM      7  C   UNL     1       4.826   0.148  -0.552  0.00  0.00    +0.190 C 
ATOM      8  C   UNL     1       3.703  -0.746  -0.028  0.00  0.00    +0.093 C 
ATOM      9  C   UNL     1       2.397   0.005  -0.019  0.00  0.00    -0.029 A 
ATOM     10  C   UNL     1       1.204  -0.689  -0.011  0.00  0.00    +0.004 A 
ATOM     11  C   UNL     1       0.002  -0.004   0.002  0.00  0.00    +0.000 A 
ATOM     12  C   UNL     1      -0.017   1.380   0.010  0.00  0.00    +0.001 A 
ATOM     13  C   UNL     1       1.169   2.087   0.002  0.00  0.00    +0.015 A 
ATOM     14  C   UNL     1       2.381   1.400  -0.014  0.00  0.00    +0.062 A 
ATOM     15  C   UNL     1       3.663   2.143  -0.028  0.00  0.00    +0.340 C 
ATOM     16  O   UNL     1       3.697   3.345  -0.199  0.00  0.00    -0.245 OA
ATOM     17  O   UNL     1       4.798   1.421   0.157  0.00  0.00    -0.445 OA
ENDBRANCH   2   7
ENDBRANCH   1   4
BRANCH   1  18
ATOM     18  C   UNL     1       5.636   3.039  -4.434  0.00  0.00    +0.068 C 
BRANCH  18  19
ATOM     19  C   UNL     1       5.338   3.342  -5.880  0.00  0.00    -0.013 A 
ATOM     20  C   UNL     1       5.659   2.579  -6.938  0.00  0.00    +0.088 A 
ATOM     21  N   UNL     1       5.223   3.174  -8.091  0.00  0.00    -0.360 N 
ATOM     22  H   UNL     1       5.394   2.684  -9.061  0.00  0.00    +0.165 HD
ATOM     23  C   UNL     1       4.605   4.369  -7.796  0.00  0.00    +0.047 A 
ATOM     24  C   UNL     1       4.650   4.526  -6.399  0.00  0.00    +0.003 A 
ATOM     25  C   UNL     1       4.091   5.660  -5.808  0.00  0.00    +0.010 A 
ATOM     26  C   UNL     1       3.503   6.614  -6.590  0.00  0.00    +0.001 A 
ATOM     27  C   UNL     1       3.457   6.463  -7.969  0.00  0.00    +0.002 A 
ATOM     28  C   UNL     1       4.001   5.351  -8.574  0.00  0.00    +0.026 A 
ENDBRANCH  18  19
BRANCH  18  29
ATOM     29  C   UNL     1       7.125   2.913  -4.244  0.00  0.00    -0.038 A 
ATOM     30  C   UNL     1       7.831   1.945  -4.935  0.00  0.00    +0.004 A 
ATOM     31  C   UNL     1       9.198   1.832  -4.764  0.00  0.00    +0.000 A 
ATOM     32  C   UNL     1       9.858   2.680  -3.894  0.00  0.00    +0.000 A 
ATOM     33  C   UNL     1       9.152   3.644  -3.199  0.00  0.00    +0.000 A 
ATOM     34  C   UNL     1       7.786   3.761  -3.374  0.00  0.00    +0.004 A 
ENDBRANCH  18  29
ENDBRANCH   1  18
TORSDOF 5
