REMARK  Name = ZINC49271280
REMARK  12 active torsions:
REMARK  status: ('A' for Active; 'I' for Inactive)
REMARK    1  A    between atoms: C_1  and  C_2
REMARK    2  A    between atoms: C_2  and  C_3
REMARK    3  A    between atoms: N_5  and  C_6
REMARK    4  A    between atoms: C_9  and  C_26
REMARK    5  A    between atoms: C_10  and  N_12
REMARK    6  A    between atoms: C_13  and  C_15
REMARK    7  A    between atoms: N_17  and  C_18
REMARK    8  A    between atoms: C_18  and  C_19
REMARK    9  A    between atoms: N_21  and  C_22
REMARK   10  A    between atoms: C_22  and  C_23
REMARK   11  A    between atoms: C_22  and  C_24
REMARK   12  A    between atoms: C_22  and  C_25
REMARK                            x       y       z     vdW  Elec       q    Type
REMARK                         _______ _______ _______ _____ _____    ______ ____
ROOT
ATOM      1  N   UNL     1       2.576  -5.622   3.715  0.00  0.00    -0.277 N 
ATOM      2  C   UNL     1       2.118  -6.424   2.734  0.00  0.00    +0.303 C 
ATOM      3  O   UNL     1       1.492  -5.953   1.806  0.00  0.00    -0.265 OA
ATOM      4  H   UNL     1       3.018  -6.005   4.489  0.00  0.00    +0.155 HD
ENDROOT
BRANCH   1   9
ATOM      5  C   UNL     1       1.121  -2.337   2.921  0.00  0.00    +0.035 A 
ATOM      6  C   UNL     1       2.099  -1.490   3.429  0.00  0.00    +0.024 A 
ATOM      7  C   UNL     1       3.227  -2.016   4.027  0.00  0.00    +0.007 A 
ATOM      8  C   UNL     1       3.387  -3.385   4.124  0.00  0.00    -0.029 A 
ATOM      9  C   UNL     1       2.413  -4.237   3.618  0.00  0.00    +0.038 A 
ATOM     10  C   UNL     1       1.275  -3.711   3.021  0.00  0.00    +0.047 A 
ATOM     11  C   UNL     1       4.620  -3.955   4.777  0.00  0.00    +0.045 C 
BRANCH   5  14
ATOM     12  C   UNL     1       0.068  -0.671   1.587  0.00  0.00    +0.217 C 
ATOM     13  O   UNL     1       1.120  -0.070   1.528  0.00  0.00    -0.275 OA
ATOM     14  N   UNL     1      -0.021  -1.803   2.314  0.00  0.00    -0.285 N 
ATOM     15  H   UNL     1      -0.878  -2.247   2.417  0.00  0.00    +0.155 HD
BRANCH  12  17
ATOM     16  C   UNL     1      -0.770   1.135   0.109  0.00  0.00    +0.013 C 
ATOM     17  C   UNL     1      -1.139  -0.152   0.849  0.00  0.00    +0.093 C 
ENDBRANCH  12  17
ENDBRANCH   5  14
ENDBRANCH   1   9
BRANCH   2  18
ATOM     18  C   UNL     1       2.382  -7.894   2.787  0.00  0.00    +0.300 C 
ATOM     19  O   UNL     1       3.008  -8.365   3.714  0.00  0.00    -0.265 OA
ATOM     20  N   UNL     1       1.924  -8.696   1.806  0.00  0.00    -0.299 N 
ATOM     21  H   UNL     1       1.424  -8.320   1.065  0.00  0.00    +0.150 HD
BRANCH  20  22
ATOM     22  C   UNL     1       2.183 -10.137   1.858  0.00  0.00    +0.200 C 
BRANCH  22  23
ATOM     23  C   UNL     1       1.570 -10.802   0.652  0.00  0.00    +0.231 C 
ATOM     24  O   UNL     1       0.976 -10.137  -0.170  0.00  0.00    -0.274 OA
ATOM     25  N   UNL     1       1.682 -12.134   0.487  0.00  0.00    -0.309 N 
ATOM     26  H   UNL     1       2.157 -12.666   1.145  0.00  0.00    +0.149 HD
BRANCH  25  27
ATOM     27  C   UNL     1       1.086 -12.780  -0.685  0.00  0.00    +0.026 C 
ATOM     28  C   UNL     1       1.704 -12.197  -1.958  0.00  0.00    +0.031 C 
ATOM     29  C   UNL     1       1.356 -14.285  -0.631  0.00  0.00    +0.031 C 
ATOM     30  C   UNL     1      -0.424 -12.533  -0.692  0.00  0.00    +0.031 C 
ENDBRANCH  25  27
ENDBRANCH  22  23
ENDBRANCH  20  22
ENDBRANCH   2  18
TORSDOF 7
