REMARK  Name = ZINC04132348
REMARK  4 active torsions:
REMARK  status: ('A' for Active; 'I' for Inactive)
REMARK    1  A    between atoms: C_1  and  O_2
REMARK    2  A    between atoms: O_2  and  C_3
REMARK    3  A    between atoms: C_5  and  N_26
REMARK    4  A    between atoms: C_10  and  C_19
REMARK                            x       y       z     vdW  Elec       q    Type
REMARK                         _______ _______ _______ _____ _____    ______ ____
ROOT
ATOM      1  C   UNL     1      -2.128   5.440   1.484  0.00  0.00    +0.143 A 
ATOM      2  C   UNL     1      -2.993   6.499   1.291  0.00  0.00    +0.080 A 
ATOM      3  C   UNL     1      -3.905   6.470   0.251  0.00  0.00    +0.130 A 
ATOM      4  C   UNL     1      -3.952   5.373  -0.588  0.00  0.00    +0.039 A 
ATOM      5  C   UNL     1      -3.096   4.308  -0.399  0.00  0.00    -0.014 A 
ATOM      6  C   UNL     1      -2.160   4.326   0.637  0.00  0.00    +0.074 A 
ATOM      7  N   UNL     1      -1.232   3.310   0.871  0.00  0.00    -0.334 N 
ATOM      8  C   UNL     1      -1.332   2.113   0.020  0.00  0.00    +0.105 C 
ATOM      9  C   UNL     1      -1.669   2.589  -1.378  0.00  0.00    +0.029 C 
ATOM     10  C   UNL     1      -3.134   3.115  -1.273  0.00  0.00    +0.049 C 
ATOM     11  C   UNL     1      -3.572   3.175  -2.689  0.00  0.00    -0.023 C 
ATOM     12  C   UNL     1      -2.902   2.258  -3.378  0.00  0.00    -0.030 C 
ATOM     13  C   UNL     1      -1.920   1.529  -2.457  0.00  0.00    +0.033 C 
ATOM     14  H   UNL     1      -1.210   3.058   1.848  0.00  0.00    +0.147 HD
ENDROOT
BRANCH   8  15
ATOM     15  C   UNL     1      -0.017   1.378   0.010  0.00  0.00    -0.027 A 
ATOM     16  C   UNL     1       1.170   2.087   0.002  0.00  0.00    +0.008 A 
ATOM     17  C   UNL     1       2.377   1.414  -0.013  0.00  0.00    +0.038 A 
ATOM     18  C   UNL     1       2.397   0.029  -0.021  0.00  0.00    +0.123 A 
ATOM     19  C   UNL     1       1.208  -0.679  -0.014  0.00  0.00    +0.038 A 
ATOM     20  C   UNL     1       0.002  -0.004   0.002  0.00  0.00    +0.008 A 
ATOM     21  F   UNL     1       3.577  -0.630  -0.037  0.00  0.00    -0.205 F 
ENDBRANCH   8  15
BRANCH   3  22
ATOM     22  N   UNL     1      -4.827   7.609   0.039  0.00  0.00    +0.057 N 
ATOM     23  O   UNL     1      -5.628   7.581  -0.878  0.00  0.00    -0.126 OA
ATOM     24  O   UNL     1      -4.783   8.574   0.780  0.00  0.00    -0.126 OA
ENDBRANCH   3  22
BRANCH   1  26
ATOM     25  C   UNL     1      -1.253   6.642   3.340  0.00  0.00    +0.277 C 
ATOM     26  O   UNL     1      -1.236   5.479   2.510  0.00  0.00    -0.493 OA
ENDBRANCH   1  26
TORSDOF 3
