REMARK  Name = ZINC63686262
REMARK  9 active torsions:
REMARK  status: ('A' for Active; 'I' for Inactive)
REMARK    1  A    between atoms: C_1  and  C_2
REMARK    2  A    between atoms: C_8  and  C_11
REMARK    3  A    between atoms: C_11  and  C_12
REMARK    4  A    between atoms: C_12  and  N_13
REMARK    5  A    between atoms: C_14  and  C_16
REMARK    6  A    between atoms: C_16  and  C_17
REMARK    7  A    between atoms: C_17  and  C_18
REMARK    8  A    between atoms: C_22  and  C_25
REMARK    9  A    between atoms: N_27  and  C_28
REMARK                            x       y       z     vdW  Elec       q    Type
REMARK                         _______ _______ _______ _____ _____    ______ ____
ROOT
ATOM      1  C   UNL     1      -2.504  -2.307   7.779  0.00  0.00    +0.098 C 
ENDROOT
BRANCH   1   3
ATOM      2  N   UNL     1      -1.339  -2.553   5.612  0.00  0.00    -0.315 N 
ATOM      3  C   UNL     1      -2.501  -2.562   6.294  0.00  0.00    +0.213 C 
ATOM      4  O   UNL     1      -3.544  -2.774   5.713  0.00  0.00    -0.276 OA
ATOM      5  H   UNL     1      -0.504  -2.384   6.077  0.00  0.00    +0.149 HD
BRANCH   2   6
ATOM      6  C   UNL     1      -1.335  -2.801   4.168  0.00  0.00    +0.108 C 
BRANCH   6   7
ATOM      7  C   UNL     1       0.101  -2.736   3.643  0.00  0.00    +0.052 C 
BRANCH   7  15
ATOM      8  C   UNL     1       0.014   1.580   0.030  0.00  0.00    +0.044 C 
ATOM      9  C   UNL     1       0.043   0.074   0.015  0.00  0.00    -0.050 A 
ATOM     10  C   UNL     1       0.054  -0.597  -1.215  0.00  0.00    +0.005 A 
ATOM     11  C   UNL     1       0.080  -1.943  -1.312  0.00  0.00    +0.026 A 
ATOM     12  C   UNL     1       0.097  -2.748  -0.139  0.00  0.00    +0.043 A 
ATOM     13  N   UNL     1       0.121  -4.048   0.027  0.00  0.00    -0.380 N 
ATOM     14  C   UNL     1       0.129  -4.336   1.466  0.00  0.00    +0.144 C 
ATOM     15  C   UNL     1       0.104  -2.991   2.158  0.00  0.00    -0.040 C 
ATOM     16  C   UNL     1       0.086  -2.063   1.173  0.00  0.00    -0.001 A 
ATOM     17  C   UNL     1       0.064  -0.596   1.190  0.00  0.00    +0.013 A 
ATOM     18  H   UNL     1       0.133  -4.709  -0.683  0.00  0.00    +0.160 HD
ENDBRANCH   7  15
ENDBRANCH   6   7
ENDBRANCH   2   6
ENDBRANCH   1   3
BRANCH   1  19
ATOM     19  C   UNL     1      -3.940  -2.371   8.304  0.00  0.00    +0.040 C 
BRANCH  19  20
ATOM     20  C   UNL     1      -3.944  -2.113   9.812  0.00  0.00    +0.129 C 
ATOM     21  N   UNL     1      -5.327  -2.173  10.377  0.00  0.00    -0.242 NA
ATOM     22  N   UNL     1      -5.447  -1.433  11.616  0.00  0.00    -0.234 NA
ATOM     23  C   UNL     1      -4.589  -0.229  11.728  0.00  0.00    +0.214 C 
ATOM     24  S   UNL     1      -3.562  -0.345  10.200  0.00  0.00    -0.112 S 
ATOM     25  H   UNL     1      -6.008  -1.860   9.701  0.00  0.00    +0.142 HD
ATOM     26  H   UNL     1      -6.411  -1.210  11.812  0.00  0.00    +0.142 HD
BRANCH  23  27
ATOM     27  C   UNL     1      -5.422   1.027  11.725  0.00  0.00    +0.246 C 
ATOM     28  O   UNL     1      -5.527   1.687  12.737  0.00  0.00    -0.273 OA
ATOM     29  N   UNL     1      -6.050   1.416  10.598  0.00  0.00    -0.283 N 
ATOM     30  H   UNL     1      -5.912   0.926   9.772  0.00  0.00    +0.155 HD
BRANCH  29  31
ATOM     31  C   UNL     1      -6.900   2.528  10.618  0.00  0.00    +0.033 A 
ATOM     32  C   UNL     1      -8.043   2.545   9.830  0.00  0.00    +0.023 A 
ATOM     33  C   UNL     1      -8.880   3.643   9.853  0.00  0.00    +0.002 A 
ATOM     34  C   UNL     1      -8.580   4.725  10.660  0.00  0.00    +0.000 A 
ATOM     35  C   UNL     1      -7.443   4.712  11.446  0.00  0.00    +0.002 A 
ATOM     36  C   UNL     1      -6.605   3.614  11.432  0.00  0.00    +0.023 A 
ENDBRANCH  29  31
ENDBRANCH  23  27
ENDBRANCH  19  20
ENDBRANCH   1  19
TORSDOF 8
