REMARK  Name = ZINC64152495
REMARK  8 active torsions:
REMARK  status: ('A' for Active; 'I' for Inactive)
REMARK    1  A    between atoms: C_1  and  C_2
REMARK    2  A    between atoms: N_11  and  C_12
REMARK    3  A    between atoms: C_12  and  C_13
REMARK    4  A    between atoms: C_13  and  C_14
REMARK    5  A    between atoms: C_23  and  C_25
REMARK    6  A    between atoms: N_27  and  C_28
REMARK    7  A    between atoms: C_28  and  C_29
REMARK    8  A    between atoms: C_29  and  C_30
REMARK                            x       y       z     vdW  Elec       q    Type
REMARK                         _______ _______ _______ _____ _____    ______ ____
ROOT
ATOM      1  C   UNL     1       4.012   1.453   1.967  0.00  0.00    +0.217 C 
ATOM      2  O   UNL     1       4.965   0.790   1.614  0.00  0.00    -0.276 OA
ATOM      3  N   UNL     1       4.168   2.414   2.899  0.00  0.00    -0.301 N 
ATOM      4  C   UNL     1       3.019   3.217   3.336  0.00  0.00    +0.108 C 
ATOM      5  C   UNL     1       3.335   4.700   3.105  0.00  0.00    +0.026 C 
ATOM      6  C   UNL     1       4.693   5.019   3.739  0.00  0.00    -0.015 C 
ATOM      7  C   UNL     1       5.854   4.142   3.261  0.00  0.00    +0.026 C 
ATOM      8  C   UNL     1       5.487   2.666   3.493  0.00  0.00    +0.108 C 
ATOM      9  C   UNL     1       4.705   5.480   5.196  0.00  0.00    +0.021 C 
ATOM     10  C   UNL     1       4.995   6.479   4.074  0.00  0.00    +0.082 C 
ENDROOT
BRANCH  10  11
ATOM     11  C   UNL     1       3.933   7.500   3.759  0.00  0.00    +0.217 C 
ATOM     12  O   UNL     1       3.160   7.857   4.622  0.00  0.00    -0.275 OA
ATOM     13  N   UNL     1       3.841   8.015   2.517  0.00  0.00    -0.315 N 
ATOM     14  H   UNL     1       4.459   7.729   1.826  0.00  0.00    +0.149 HD
BRANCH  13  15
ATOM     15  C   UNL     1       2.808   9.008   2.210  0.00  0.00    +0.108 C 
BRANCH  15  16
ATOM     16  C   UNL     1       2.922   9.426   0.743  0.00  0.00    +0.052 C 
BRANCH  16  17
ATOM     17  C   UNL     1       1.860  10.447   0.427  0.00  0.00    -0.040 C 
ATOM     18  C   UNL     1       1.996  11.793   0.441  0.00  0.00    -0.001 A 
ATOM     19  C   UNL     1       3.129  12.675   0.743  0.00  0.00    +0.010 A 
ATOM     20  C   UNL     1       2.956  14.014   0.671  0.00  0.00    +0.001 A 
ATOM     21  C   UNL     1       1.723  14.579   0.316  0.00  0.00    +0.002 A 
ATOM     22  C   UNL     1       0.636  13.835   0.025  0.00  0.00    +0.026 A 
ATOM     23  C   UNL     1       0.705  12.415   0.069  0.00  0.00    +0.043 A 
ATOM     24  N   UNL     1      -0.194  11.490  -0.166  0.00  0.00    -0.380 N 
ATOM     25  C   UNL     1       0.427  10.174   0.025  0.00  0.00    +0.144 C 
ATOM     26  H   UNL     1      -1.115  11.648  -0.427  0.00  0.00    +0.160 HD
ENDBRANCH  16  17
ENDBRANCH  15  16
ENDBRANCH  13  15
ENDBRANCH  10  11
BRANCH   1  27
ATOM     27  C   UNL     1       2.655   1.202   1.363  0.00  0.00    +0.115 C 
BRANCH  27  28
ATOM     28  C   UNL     1       2.754   0.068   0.340  0.00  0.00    +0.116 C 
BRANCH  28  38
ATOM     29  C   UNL     1       0.787   1.978  -1.239  0.00  0.00    +0.049 C 
ATOM     30  C   UNL     1       0.884   0.466  -1.447  0.00  0.00    +0.155 C 
ATOM     31  N   UNL     1      -0.455  -0.107  -1.629  0.00  0.00    -0.325 N 
ATOM     32  C   UNL     1      -0.661  -1.026  -0.591  0.00  0.00    +0.050 A 
ATOM     33  C   UNL     1      -1.756  -1.833  -0.304  0.00  0.00    +0.025 A 
ATOM     34  C   UNL     1      -1.729  -2.674   0.792  0.00  0.00    +0.002 A 
ATOM     35  C   UNL     1      -0.614  -2.715   1.609  0.00  0.00    +0.002 A 
ATOM     36  C   UNL     1       0.478  -1.917   1.331  0.00  0.00    +0.025 A 
ATOM     37  C   UNL     1       0.461  -1.067   0.231  0.00  0.00    +0.052 A 
ATOM     38  N   UNL     1       1.434  -0.176  -0.247  0.00  0.00    -0.310 N 
ATOM     39  H   UNL     1      -1.082   0.111  -2.337  0.00  0.00    +0.148 HD
ENDBRANCH  28  38
ENDBRANCH  27  28
ENDBRANCH   1  27
TORSDOF 7
