REMARK  Name = ZINC44785840
REMARK  4 active torsions:
REMARK  status: ('A' for Active; 'I' for Inactive)
REMARK    1  A    between atoms: C_4  and  C_7
REMARK    2  A    between atoms: C_4  and  C_11
REMARK    3  A    between atoms: N_8  and  O_9
REMARK    4  A    between atoms: C_17  and  O_20
REMARK                            x       y       z     vdW  Elec       q    Type
REMARK                         _______ _______ _______ _____ _____    ______ ____
ROOT
ATOM      1  C   UNL     1       0.226   1.871   0.003  0.00  0.00    +0.000 C 
ATOM      2  C   UNL     1       1.711   2.230   0.093  0.00  0.00    +0.001 C 
ATOM      3  C   UNL     1       2.321   1.573   1.332  0.00  0.00    +0.024 C 
ATOM      4  C   UNL     1       2.168   0.054   1.231  0.00  0.00    +0.105 C 
ATOM      5  C   UNL     1       0.684  -0.305   1.141  0.00  0.00    +0.024 C 
ATOM      6  C   UNL     1       0.074   0.352  -0.099  0.00  0.00    +0.001 C 
ENDROOT
BRANCH   4   7
ATOM      7  C   UNL     1       2.880  -0.441  -0.002  0.00  0.00    +0.229 C 
ATOM      8  O   UNL     1       3.387   0.350  -0.768  0.00  0.00    -0.275 OA
ATOM      9  N   UNL     1       2.953  -1.763  -0.253  0.00  0.00    -0.298 N 
ATOM     10  C   UNL     1       2.252  -2.728   0.605  0.00  0.00    +0.108 C 
ATOM     11  C   UNL     1       3.258  -3.776   1.093  0.00  0.00    +0.021 C 
ATOM     12  C   UNL     1       3.960  -4.403  -0.114  0.00  0.00    +0.034 C 
ATOM     13  C   UNL     1       4.724  -3.321  -0.881  0.00  0.00    +0.132 C 
ATOM     14  C   UNL     1       3.731  -2.267  -1.394  0.00  0.00    +0.139 C 
BRANCH  13  15
ATOM     15  O   UNL     1       5.405  -3.912  -1.989  0.00  0.00    -0.390 OA
ATOM     16  H   UNL     1       6.047  -4.591  -1.740  0.00  0.00    +0.210 HD
ENDBRANCH  13  15
ENDBRANCH   4   7
BRANCH   4  17
ATOM     17  C   UNL     1       2.769  -0.594   2.451  0.00  0.00    +0.147 C 
ATOM     18  N   UNL     1       4.042  -0.522   2.661  0.00  0.00    -0.076 NA
ATOM     19  N   UNL     1       1.961  -1.264   3.344  0.00  0.00    -0.343 N 
ATOM     20  H   UNL     1       0.998  -1.255   3.227  0.00  0.00    +0.144 HD
ATOM     21  H   UNL     1       2.355  -1.744   4.089  0.00  0.00    +0.144 HD
BRANCH  18  22
ATOM     22  O   UNL     1       4.858   0.253   1.802  0.00  0.00    -0.408 OA
ATOM     23  H   UNL     1       5.795   0.246   2.038  0.00  0.00    +0.328 HD
ENDBRANCH  18  22
ENDBRANCH   4  17
TORSDOF 4
