REMARK  Name = ZINC16248717
REMARK  6 active torsions:
REMARK  status: ('A' for Active; 'I' for Inactive)
REMARK    1  A    between atoms: C_1  and  S_2
REMARK    2  A    between atoms: S_2  and  C_3
REMARK    3  A    between atoms: C_4  and  C_25
REMARK    4  A    between atoms: C_11  and  N_12
REMARK    5  A    between atoms: N_13  and  C_14
REMARK    6  A    between atoms: C_18  and  N_20
REMARK                            x       y       z     vdW  Elec       q    Type
REMARK                         _______ _______ _______ _____ _____    ______ ____
ROOT
ATOM      1  C   UNL     1      -1.565  -0.548  -0.046  0.00  0.00    +0.121 A 
ATOM      2  C   UNL     1      -2.648   0.363  -0.145  0.00  0.00    +0.123 A 
ATOM      3  C   UNL     1      -3.952  -0.150  -0.182  0.00  0.00    +0.139 A 
ATOM      4  N   UNL     1      -4.148  -1.476  -0.123  0.00  0.00    -0.210 NA
ATOM      5  C   UNL     1      -3.150  -2.317  -0.032  0.00  0.00    +0.188 A 
ATOM      6  N   UNL     1      -1.845  -1.893   0.004  0.00  0.00    -0.203 N 
ATOM      7  N   UNL     1      -1.015  -3.014   0.095  0.00  0.00    -0.147 NA
ATOM      8  C   UNL     1      -1.710  -4.120   0.114  0.00  0.00    +0.168 A 
ATOM      9  C   UNL     1      -3.091  -3.799   0.048  0.00  0.00    +0.171 A 
ATOM     10  N   UNL     1      -1.182  -5.407   0.198  0.00  0.00    -0.340 N 
ATOM     11  N   UNL     1      -5.025   0.700  -0.277  0.00  0.00    -0.342 N 
ATOM     12  H   UNL     1      -0.222  -5.535   0.248  0.00  0.00    +0.144 HD
ATOM     13  H   UNL     1      -1.774  -6.175   0.205  0.00  0.00    +0.144 HD
ATOM     14  H   UNL     1      -4.881   1.659  -0.319  0.00  0.00    +0.144 HD
ATOM     15  H   UNL     1      -5.926   0.343  -0.302  0.00  0.00    +0.144 HD
ENDROOT
BRANCH   1  17
ATOM     16  C   UNL     1       0.578  -0.469   1.658  0.00  0.00    +0.091 C 
ATOM     17  S   UNL     1       0.002  -0.004   0.002  0.00  0.00    -0.108 S 
ENDBRANCH   1  17
BRANCH   9  18
ATOM     18  N   UNL     1      -4.122  -4.652   0.042  0.00  0.00    -0.142 NA
ATOM     19  N   UNL     1      -3.909  -5.922   0.118  0.00  0.00    -0.149 NA
BRANCH  19  20
ATOM     20  C   UNL     1      -4.947  -6.781   0.112  0.00  0.00    +0.088 A 
ATOM     21  C   UNL     1      -6.266  -6.298   0.017  0.00  0.00    +0.030 A 
ATOM     22  C   UNL     1      -7.312  -7.176   0.011  0.00  0.00    +0.004 A 
ATOM     23  C   UNL     1      -7.083  -8.541   0.098  0.00  0.00    +0.033 A 
ATOM     24  C   UNL     1      -5.790  -9.033   0.192  0.00  0.00    +0.128 A 
ATOM     25  C   UNL     1      -4.720  -8.168   0.195  0.00  0.00    +0.062 A 
BRANCH  24  26
ATOM     26  N   UNL     1      -5.560 -10.493   0.285  0.00  0.00    +0.056 N 
ATOM     27  O   UNL     1      -6.582 -11.322   0.278  0.00  0.00    -0.126 OA
ATOM     28  O   UNL     1      -4.332 -10.961   0.374  0.00  0.00    -0.126 OA
ENDBRANCH  24  26
ENDBRANCH  19  20
ENDBRANCH   9  18
BRANCH   2  29
ATOM     29  C   UNL     1      -2.414   1.775  -0.206  0.00  0.00    +0.105 C 
ATOM     30  N   UNL     1      -2.228   2.895  -0.254  0.00  0.00    -0.191 NA
ENDBRANCH   2  29
TORSDOF 5
