REMARK  Name = ZINC56546394
REMARK  4 active torsions:
REMARK  status: ('A' for Active; 'I' for Inactive)
REMARK    1  A    between atoms: C_1  and  C_2
REMARK    2  A    between atoms: C_3  and  N_11
REMARK    3  A    between atoms: C_7  and  N_8
REMARK    4  A    between atoms: C_18  and  C_21
REMARK                            x       y       z     vdW  Elec       q    Type
REMARK                         _______ _______ _______ _____ _____    ______ ____
ROOT
ATOM      1  N   UNL     1      -0.493  -0.558  -2.569  0.00  0.00    -0.269 N 
ATOM      2  C   UNL     1      -0.597  -1.453  -3.571  0.00  0.00    +0.307 C 
ATOM      3  O   UNL     1      -0.374  -2.630  -3.361  0.00  0.00    -0.252 OA
ATOM      4  N   UNL     1      -0.948  -1.044  -4.806  0.00  0.00    -0.280 N 
ATOM      5  C   UNL     1      -1.110   0.386  -5.113  0.00  0.00    +0.137 C 
ATOM      6  C   UNL     1      -2.467   0.582  -5.799  0.00  0.00    +0.179 C 
ATOM      7  O   UNL     1      -2.570  -0.319  -6.904  0.00  0.00    -0.369 OA
ATOM      8  C   UNL     1      -2.532  -1.700  -6.538  0.00  0.00    +0.166 C 
ATOM      9  C   UNL     1      -1.173  -2.013  -5.890  0.00  0.00    +0.145 C 
ATOM     10  H   UNL     1      -0.560   0.391  -2.757  0.00  0.00    +0.156 HD
ENDROOT
BRANCH   1  13
ATOM     11  C   UNL     1      -1.548   1.015  -0.444  0.00  0.00    +0.048 C 
ATOM     12  C   UNL     1      -0.788  -0.261  -0.189  0.00  0.00    +0.001 A 
ATOM     13  C   UNL     1      -0.290  -0.999  -1.256  0.00  0.00    +0.040 A 
ATOM     14  C   UNL     1       0.411  -2.173  -1.017  0.00  0.00    +0.024 A 
ATOM     15  C   UNL     1       0.610  -2.606   0.280  0.00  0.00    +0.004 A 
ATOM     16  C   UNL     1       0.112  -1.870   1.339  0.00  0.00    +0.033 A 
ATOM     17  C   UNL     1      -0.581  -0.696   1.105  0.00  0.00    +0.131 A 
BRANCH  17  18
ATOM     18  N   UNL     1      -1.106   0.092   2.242  0.00  0.00    +0.057 N 
ATOM     19  O   UNL     1      -1.096   1.300   2.196  0.00  0.00    -0.126 OA
ATOM     20  O   UNL     1      -1.546  -0.472   3.217  0.00  0.00    -0.126 OA
ENDBRANCH  17  18
ENDBRANCH   1  13
BRANCH   8  21
ATOM     21  C   UNL     1      -2.710  -2.553  -7.768  0.00  0.00    -0.017 A 
ATOM     22  C   UNL     1      -2.089  -2.197  -8.951  0.00  0.00    +0.007 A 
ATOM     23  C   UNL     1      -2.253  -2.978 -10.079  0.00  0.00    +0.020 A 
ATOM     24  C   UNL     1      -3.038  -4.116 -10.025  0.00  0.00    +0.041 A 
ATOM     25  C   UNL     1      -3.659  -4.472  -8.841  0.00  0.00    +0.020 A 
ATOM     26  C   UNL     1      -3.490  -3.693  -7.711  0.00  0.00    +0.007 A 
ATOM     27 CL   UNL     1      -3.244  -5.098 -11.442  0.00  0.00    -0.084 Cl
ENDBRANCH   8  21
TORSDOF 3
