REMARK  Name = ZINC40475562
REMARK  3 active torsions:
REMARK  status: ('A' for Active; 'I' for Inactive)
REMARK    1  A    between atoms: C_3  and  C_6
REMARK    2  A    between atoms: N_21  and  C_24
REMARK    3  A    between atoms: C_27  and  N_30
REMARK                            x       y       z     vdW  Elec       q    Type
REMARK                         _______ _______ _______ _____ _____    ______ ____
ROOT
ATOM      1  C   UNL     1       3.761   1.845  -0.024  0.00  0.00    +0.078 C 
ATOM      2  C   UNL     1       4.490   1.335   1.183  0.00  0.00    +0.033 A 
ATOM      3  C   UNL     1       5.770   0.871   1.294  0.00  0.00    +0.110 A 
ATOM      4  N   UNL     1       6.114   0.461   2.514  0.00  0.00    -0.225 NA
ATOM      5  C   UNL     1       5.279   0.524   3.529  0.00  0.00    +0.147 A 
ATOM      6  S   UNL     1       5.550   0.038   5.200  0.00  0.00    -0.023 SA
ATOM      7  S   UNL     1       3.887   1.182   2.844  0.00  0.00    -0.063 S 
ATOM      8  S   UNL     1       6.863   0.852  -0.119  0.00  0.00    -0.091 S 
ATOM      9  C   UNL     1       5.926   1.903  -1.259  0.00  0.00    +0.152 C 
ATOM     10  C   UNL     1       4.471   1.345  -1.258  0.00  0.00    +0.111 C 
ATOM     11  C   UNL     1       4.001   1.802  -2.603  0.00  0.00    +0.232 C 
ATOM     12  O   UNL     1       2.866   2.086  -2.921  0.00  0.00    -0.274 OA
ATOM     13  N   UNL     1       5.103   1.835  -3.397  0.00  0.00    -0.209 N 
ATOM     14  C   UNL     1       6.289   1.736  -2.709  0.00  0.00    +0.240 C 
ATOM     15  O   UNL     1       7.396   1.543  -3.164  0.00  0.00    -0.274 OA
ENDROOT
BRANCH  13  16
ATOM     16  C   UNL     1       5.042   1.977  -4.790  0.00  0.00    +0.044 A 
ATOM     17  C   UNL     1       3.813   2.097  -5.424  0.00  0.00    +0.026 A 
ATOM     18  C   UNL     1       3.756   2.237  -6.797  0.00  0.00    +0.034 A 
ATOM     19  C   UNL     1       4.921   2.257  -7.540  0.00  0.00    +0.126 A 
ATOM     20  C   UNL     1       6.147   2.137  -6.912  0.00  0.00    +0.034 A 
ATOM     21  C   UNL     1       6.211   2.003  -5.539  0.00  0.00    +0.026 A 
BRANCH  19  22
ATOM     22  N   UNL     1       4.857   2.407  -9.011  0.00  0.00    +0.056 N 
ATOM     23  O   UNL     1       3.786   2.511  -9.562  0.00  0.00    -0.126 OA
ATOM     24  O   UNL     1       5.875   2.425  -9.662  0.00  0.00    -0.126 OA
ENDBRANCH  19  22
ENDBRANCH  13  16
BRANCH   1  27
ATOM     25  C   UNL     1      -0.016   1.351   0.009  0.00  0.00    +0.008 A 
ATOM     26  C   UNL     1       1.183   2.038   0.002  0.00  0.00    +0.012 A 
ATOM     27  C   UNL     1       2.343   1.336  -0.013  0.00  0.00    -0.001 A 
ATOM     28  S   UNL     1       1.754  -0.349  -0.017  0.00  0.00    -0.101 S 
ATOM     29  C   UNL     1       0.002  -0.004   0.002  0.00  0.00    +0.045 A 
ENDBRANCH   1  27
TORSDOF 3
