REMARK  Name = ZINC61594570
REMARK  7 active torsions:
REMARK  status: ('A' for Active; 'I' for Inactive)
REMARK    1  A    between atoms: C_1  and  C_2
REMARK    2  A    between atoms: C_2  and  C_4
REMARK    3  A    between atoms: C_2  and  N_23
REMARK    4  A    between atoms: C_4  and  C_6
REMARK    5  A    between atoms: C_4  and  S_12
REMARK    6  A    between atoms: S_12  and  C_13
REMARK    7  A    between atoms: N_19  and  C_20
REMARK                            x       y       z     vdW  Elec       q    Type
REMARK                         _______ _______ _______ _____ _____    ______ ____
ROOT
ATOM      1  C   UNL     1       0.662  -0.621   1.239  0.00  0.00    +0.076 C 
ENDROOT
BRANCH   1   2
ATOM      2  C   UNL     1       0.729  -2.124   1.147  0.00  0.00    +0.003 A 
ATOM      3  C   UNL     1       1.818  -2.931   1.141  0.00  0.00    +0.027 A 
ATOM      4  C   UNL     1       1.638  -4.299   1.048  0.00  0.00    +0.025 A 
ATOM      5  C   UNL     1       0.377  -4.792   0.965  0.00  0.00    +0.060 A 
ATOM      6  S   UNL     1      -0.606  -3.303   1.026  0.00  0.00    -0.099 S 
ATOM      7 BR   UNL     1       3.127  -5.465   1.035  0.00  0.00    -0.050 Br
ENDBRANCH   1   2
BRANCH   1   9
ATOM      8  C   UNL     1       0.811  -0.366  -1.242  0.00  0.00    -0.013 C 
ATOM      9  C   UNL     1      -0.036  -0.065  -0.004  0.00  0.00    -0.060 C 
BRANCH   9  10
ATOM     10  N   UNL     1      -0.199   1.388   0.136  0.00  0.00    +0.381 N 
ATOM     11  H   UNL     1      -0.659   1.755  -0.684  0.00  0.00    -0.090 HD
ATOM     12  H   UNL     1      -0.757   1.587   0.952  0.00  0.00    -0.090 HD
ATOM     13  H   UNL     1       0.707   1.821   0.234  0.00  0.00    -0.090 HD
ENDBRANCH   9  10
ENDBRANCH   1   9
BRANCH   1  14
ATOM     14  S   UNL     1      -0.271  -0.146   2.720  0.00  0.00    -0.079 S 
BRANCH  14  15
ATOM     15  C   UNL     1       0.761  -0.656   4.055  0.00  0.00    +0.193 A 
ATOM     16  N   UNL     1       1.882  -1.308   3.942  0.00  0.00    -0.145 NA
ATOM     17  N   UNL     1       2.392  -1.521   5.230  0.00  0.00    -0.226 N 
ATOM     18  H   UNL     1       3.216  -1.980   5.453  0.00  0.00    +0.194 HD
ATOM     19  C   UNL     1       1.525  -0.968   6.104  0.00  0.00    +0.345 A 
ATOM     20  O   UNL     1       1.635  -0.955   7.317  0.00  0.00    -0.245 OA
ATOM     21  N   UNL     1       0.518  -0.426   5.390  0.00  0.00    -0.268 N 
BRANCH  21  22
ATOM     22  C   UNL     1      -0.640   0.283   5.941  0.00  0.00    +0.094 C 
ATOM     23  C   UNL     1      -0.623   0.608   7.436  0.00  0.00    +0.027 C 
ATOM     24  C   UNL     1      -1.548  -0.487   6.902  0.00  0.00    +0.027 C 
ENDBRANCH  21  22
ENDBRANCH  14  15
ENDBRANCH   1  14
TORSDOF 6
