REMARK  Name = ZINC66605066
REMARK  4 active torsions:
REMARK  status: ('A' for Active; 'I' for Inactive)
REMARK    1  A    between atoms: C_3  and  N_11
REMARK    2  A    between atoms: C_5  and  N_7
REMARK    3  A    between atoms: C_12  and  C_14
REMARK    4  A    between atoms: C_16  and  N_24
REMARK                            x       y       z     vdW  Elec       q    Type
REMARK                         _______ _______ _______ _____ _____    ______ ____
ROOT
ATOM      1  N   UNL     1       3.793   1.959   0.645  0.00  0.00    -0.281 N 
ATOM      2  C   UNL     1       3.824   3.306   0.671  0.00  0.00    +0.252 C 
ATOM      3  O   UNL     1       2.807   3.942   0.468  0.00  0.00    -0.270 OA
ATOM      4  H   UNL     1       4.615   1.453   0.740  0.00  0.00    +0.155 HD
ENDROOT
BRANCH   2   5
ATOM      5  C   UNL     1       5.091   4.009   0.946  0.00  0.00    +0.084 A 
ATOM      6  C   UNL     1       6.263   3.282   1.174  0.00  0.00    +0.049 A 
ATOM      7  C   UNL     1       7.444   3.942   1.431  0.00  0.00    +0.131 A 
ATOM      8  C   UNL     1       7.477   5.326   1.466  0.00  0.00    +0.082 A 
ATOM      9  C   UNL     1       6.324   6.062   1.243  0.00  0.00    +0.165 A 
ATOM     10  C   UNL     1       5.127   5.410   0.974  0.00  0.00    +0.174 A 
ATOM     11  O   UNL     1       3.988   6.111   0.740  0.00  0.00    -0.484 OA
ATOM     12  C   UNL     1       3.983   7.485   1.143  0.00  0.00    +0.270 C 
ATOM     13  C   UNL     1       5.294   8.129   0.671  0.00  0.00    +0.270 C 
ATOM     14  O   UNL     1       6.381   7.422   1.288  0.00  0.00    -0.485 OA
BRANCH   7  15
ATOM     15  N   UNL     1       8.683   3.169   1.670  0.00  0.00    +0.057 N 
ATOM     16  O   UNL     1       8.657   1.961   1.641  0.00  0.00    -0.126 OA
ATOM     17  O   UNL     1       9.721   3.746   1.896  0.00  0.00    -0.126 OA
ENDBRANCH   7  15
ENDBRANCH   2   5
BRANCH   1  20
ATOM     18  C   UNL     1       0.392   1.165  -0.509  0.00  0.00    +0.004 A 
ATOM     19  C   UNL     1       1.595   1.825  -0.346  0.00  0.00    +0.023 A 
ATOM     20  C   UNL     1       2.575   1.291   0.481  0.00  0.00    +0.035 A 
ATOM     21  C   UNL     1       2.345   0.093   1.143  0.00  0.00    +0.046 A 
ATOM     22  C   UNL     1       1.137  -0.567   0.977  0.00  0.00    +0.037 A 
ATOM     23  C   UNL     1       0.160  -0.028   0.149  0.00  0.00    +0.023 A 
BRANCH  22  24
ATOM     24  N   UNL     1       0.901  -1.775   1.643  0.00  0.00    -0.270 N 
ATOM     25  C   UNL     1       1.433  -1.987   2.864  0.00  0.00    +0.301 C 
ATOM     26  O   UNL     1       2.035  -1.094   3.427  0.00  0.00    -0.253 OA
ATOM     27  N   UNL     1       1.296  -3.188   3.459  0.00  0.00    -0.313 N 
ATOM     28  H   UNL     1       0.355  -2.460   1.226  0.00  0.00    +0.156 HD
ATOM     29  H   UNL     1       0.815  -3.901   3.009  0.00  0.00    +0.146 HD
ATOM     30  H   UNL     1       1.679  -3.340   4.337  0.00  0.00    +0.146 HD
ENDBRANCH  22  24
ENDBRANCH   1  20
TORSDOF 4
