REMARK  Name = ZINC08410134
REMARK  9 active torsions:
REMARK  status: ('A' for Active; 'I' for Inactive)
REMARK    1  A    between atoms: C_1  and  O_2
REMARK    2  A    between atoms: O_2  and  C_3
REMARK    3  A    between atoms: C_5  and  C_12
REMARK    4  A    between atoms: C_7  and  O_10
REMARK    5  A    between atoms: C_8  and  O_9
REMARK    6  A    between atoms: O_10  and  C_11
REMARK    7  A    between atoms: C_15  and  C_26
REMARK    8  A    between atoms: C_21  and  N_25
REMARK    9  A    between atoms: C_22  and  C_23
REMARK                            x       y       z     vdW  Elec       q    Type
REMARK                         _______ _______ _______ _____ _____    ______ ____
ROOT
ATOM      1  C   UNL     1       2.442   0.497  -4.285  0.00  0.00    +0.102 C 
ATOM      2  C   UNL     1       1.853   0.025  -5.589  0.00  0.00    +0.054 A 
ATOM      3  C   UNL     1       0.562   0.205  -6.094  0.00  0.00    +0.100 A 
ATOM      4  N   UNL     1       0.501  -0.384  -7.273  0.00  0.00    -0.171 NA
ATOM      5  N   UNL     1       1.754  -0.954  -7.548  0.00  0.00    -0.246 N 
ATOM      6  H   UNL     1       1.992  -1.449  -8.347  0.00  0.00    +0.192 HD
ATOM      7  C   UNL     1       2.569  -0.691  -6.505  0.00  0.00    +0.223 A 
ATOM      8  O   UNL     1       3.868  -1.032  -6.314  0.00  0.00    -0.423 OA
ATOM      9  C   UNL     1       4.535  -0.417  -5.317  0.00  0.00    +0.200 C 
ATOM     10  C   UNL     1       3.937   0.309  -4.346  0.00  0.00    +0.098 C 
ENDROOT
BRANCH   3  11
ATOM     11  C   UNL     1      -0.545   0.930  -5.422  0.00  0.00    +0.006 A 
ATOM     12  C   UNL     1      -0.296   2.137  -4.772  0.00  0.00    +0.014 A 
ATOM     13  C   UNL     1      -1.326   2.810  -4.147  0.00  0.00    +0.050 A 
ATOM     14  C   UNL     1      -2.611   2.290  -4.164  0.00  0.00    +0.166 A 
ATOM     15  C   UNL     1      -2.866   1.083  -4.813  0.00  0.00    +0.167 A 
ATOM     16  C   UNL     1      -1.837   0.407  -5.445  0.00  0.00    +0.059 A 
ATOM     17  O   UNL     1      -4.194   0.792  -4.687  0.00  0.00    -0.453 OA
ATOM     18  C   UNL     1      -4.668   1.621  -3.609  0.00  0.00    +0.466 C 
ATOM     19  O   UNL     1      -3.780   2.753  -3.632  0.00  0.00    -0.453 OA
ENDBRANCH   3  11
BRANCH   1  22
ATOM     20  C   UNL     1       0.727  -0.416  -1.043  0.00  0.00    +0.165 A 
ATOM     21  C   UNL     1       1.252   0.326  -2.091  0.00  0.00    +0.054 A 
ATOM     22  C   UNL     1       1.874  -0.312  -3.148  0.00  0.00    -0.027 A 
ATOM     23  C   UNL     1       1.976  -1.691  -3.165  0.00  0.00    +0.054 A 
ATOM     24  C   UNL     1       1.454  -2.439  -2.121  0.00  0.00    +0.165 A 
ATOM     25  C   UNL     1       0.833  -1.802  -1.054  0.00  0.00    +0.201 A 
BRANCH  20  27
ATOM     26  C   UNL     1       0.043   1.639  -0.059  0.00  0.00    +0.277 C 
ATOM     27  O   UNL     1       0.116   0.212  -0.004  0.00  0.00    -0.491 OA
ENDBRANCH  20  27
BRANCH  25  28
ATOM     28  O   UNL     1       0.325  -2.532  -0.024  0.00  0.00    -0.501 OA
ATOM     29  H   UNL     1      -0.597  -2.799  -0.149  0.00  0.00    +0.292 HD
ENDBRANCH  25  28
BRANCH  24  30
ATOM     30  O   UNL     1       1.554  -3.795  -2.139  0.00  0.00    -0.491 OA
ATOM     31  C   UNL     1       2.210  -4.383  -3.265  0.00  0.00    +0.277 C 
ENDBRANCH  24  30
ENDBRANCH   1  22
BRANCH   9  32
ATOM     32  N   UNL     1       5.903  -0.536  -5.286  0.00  0.00    -0.328 N 
ATOM     33  H   UNL     1       6.361  -1.051  -5.968  0.00  0.00    +0.145 HD
ATOM     34  H   UNL     1       6.411  -0.105  -4.581  0.00  0.00    +0.145 HD
ENDBRANCH   9  32
BRANCH  10  35
ATOM     35  C   UNL     1       4.751   0.923  -3.341  0.00  0.00    +0.101 C 
ATOM     36  N   UNL     1       5.397   1.409  -2.543  0.00  0.00    -0.191 NA
ENDBRANCH  10  35
TORSDOF 7
