REMARK  Name = ZINC20803419
REMARK  9 active torsions:
REMARK  status: ('A' for Active; 'I' for Inactive)
REMARK    1  A    between atoms: C_1  and  C_2
REMARK    2  A    between atoms: C_4  and  C_27
REMARK    3  A    between atoms: C_6  and  C_14
REMARK    4  A    between atoms: C_17  and  O_22
REMARK    5  A    between atoms: C_18  and  O_20
REMARK    6  A    between atoms: O_20  and  C_21
REMARK    7  A    between atoms: O_22  and  C_23
REMARK    8  A    between atoms: C_23  and  C_24
REMARK    9  A    between atoms: N_29  and  C_30
REMARK                            x       y       z     vdW  Elec       q    Type
REMARK                         _______ _______ _______ _____ _____    ______ ____
ROOT
ATOM      1  C   UNL     1       0.806   5.789   1.819  0.00  0.00    +0.028 C 
ATOM      2  C   UNL     1       0.888   5.606   0.302  0.00  0.00    +0.084 C 
ATOM      3  C   UNL     1      -0.526   5.552  -0.287  0.00  0.00    +0.124 C 
ATOM      4  C   UNL     1      -1.320   4.418   0.373  0.00  0.00    +0.154 C 
ATOM      5  N   UNL     1      -0.511   3.199   0.346  0.00  0.00    -0.225 N 
ATOM      6  C   UNL     1       0.831   3.178   0.166  0.00  0.00    +0.214 A 
ATOM      7  N   UNL     1       1.223   1.932   0.194  0.00  0.00    -0.202 NA
ATOM      8  C   UNL     1       0.167   1.136   0.391  0.00  0.00    +0.247 A 
ATOM      9  N   UNL     1      -0.914   1.870   0.485  0.00  0.00    -0.156 NA
ATOM     10  N   UNL     1       1.575   4.337  -0.008  0.00  0.00    -0.310 N 
ATOM     11  H   UNL     1       2.619   4.348  -0.354  0.00  0.00    +0.149 HD
ENDROOT
BRANCH   4  12
ATOM     12  C   UNL     1      -2.603   4.189  -0.383  0.00  0.00    -0.019 A 
ATOM     13  C   UNL     1      -2.563   3.844  -1.722  0.00  0.00    +0.009 A 
ATOM     14  C   UNL     1      -3.737   3.633  -2.420  0.00  0.00    +0.050 A 
ATOM     15  C   UNL     1      -4.958   3.767  -1.778  0.00  0.00    +0.163 A 
ATOM     16  C   UNL     1      -4.999   4.114  -0.431  0.00  0.00    +0.162 A 
ATOM     17  C   UNL     1      -3.818   4.318   0.264  0.00  0.00    +0.055 A 
BRANCH  16  18
ATOM     18  O   UNL     1      -6.194   4.247   0.203  0.00  0.00    -0.491 OA
ATOM     19  C   UNL     1      -6.159   4.604   1.586  0.00  0.00    +0.277 C 
ENDBRANCH  16  18
BRANCH  15  20
ATOM     20  O   UNL     1      -6.115   3.560  -2.463  0.00  0.00    -0.479 OA
BRANCH  20  21
ATOM     21  C   UNL     1      -5.997   3.208  -3.843  0.00  0.00    +0.324 C 
BRANCH  21  22
ATOM     22  C   UNL     1      -7.371   3.020  -4.433  0.00  0.00    +0.248 C 
ATOM     23  O   UNL     1      -8.354   3.173  -3.740  0.00  0.00    -0.272 OA
ATOM     24  N   UNL     1      -7.507   2.682  -5.730  0.00  0.00    -0.327 N 
ATOM     25  H   UNL     1      -8.510   2.545  -6.161  0.00  0.00    +0.145 HD
ATOM     26  H   UNL     1      -6.615   2.543  -6.359  0.00  0.00    +0.145 HD
ENDBRANCH  21  22
ENDBRANCH  20  21
ENDBRANCH  15  20
ENDBRANCH   4  12
BRANCH   3  27
ATOM     27  C   UNL     1      -1.224   6.864  -0.036  0.00  0.00    +0.224 C 
ATOM     28  O   UNL     1      -2.253   6.891   0.607  0.00  0.00    -0.275 OA
ATOM     29  N   UNL     1      -0.705   8.008  -0.525  0.00  0.00    -0.285 N 
ATOM     30  H   UNL     1       0.271   7.996  -1.032  0.00  0.00    +0.155 HD
BRANCH  29  31
ATOM     31  C   UNL     1      -1.408   9.210  -0.387  0.00  0.00    +0.033 A 
ATOM     32  C   UNL     1      -2.796   9.212  -0.420  0.00  0.00    +0.023 A 
ATOM     33  C   UNL     1      -3.487  10.400  -0.279  0.00  0.00    +0.002 A 
ATOM     34  C   UNL     1      -2.798  11.587  -0.114  0.00  0.00    +0.000 A 
ATOM     35  C   UNL     1      -1.415  11.589  -0.086  0.00  0.00    +0.002 A 
ATOM     36  C   UNL     1      -0.719  10.404  -0.222  0.00  0.00    +0.023 A 
ENDBRANCH  29  31
ENDBRANCH   3  27
TORSDOF 7
