REMARK  Name = ZINC12849209
REMARK  6 active torsions:
REMARK  status: ('A' for Active; 'I' for Inactive)
REMARK    1  A    between atoms: C_1  and  C_2
REMARK    2  A    between atoms: C_5  and  C_33
REMARK    3  A    between atoms: C_7  and  C_32
REMARK    4  A    between atoms: C_10  and  C_12
REMARK    5  A    between atoms: C_16  and  C_27
REMARK    6  A    between atoms: C_19  and  C_23
REMARK                            x       y       z     vdW  Elec       q    Type
REMARK                         _______ _______ _______ _____ _____    ______ ____
ROOT
ATOM      1  C   UNL     1       2.675  -1.915   2.408  0.00  0.00    +0.110 C 
ATOM      2  C   UNL     1       2.171  -1.816   3.663  0.00  0.00    +0.072 C 
ATOM      3  C   UNL     1       3.000  -2.651   4.530  0.00  0.00    +0.114 C 
ATOM      4  N   UNL     1       2.916  -2.867   5.812  0.00  0.00    -0.362 N 
ATOM      5  C   UNL     1       3.911  -3.732   6.457  0.00  0.00    +0.149 C 
ATOM      6  C   UNL     1       4.384  -4.820   5.492  0.00  0.00    +0.065 C 
ATOM      7  C   UNL     1       4.969  -4.172   4.227  0.00  0.00    +0.202 C 
ATOM      8  N   UNL     1       3.966  -3.232   3.717  0.00  0.00    -0.226 N 
ATOM      9  N   UNL     1       3.769  -2.764   2.423  0.00  0.00    -0.258 N 
ATOM     10  H   UNL     1       4.313  -2.995   1.653  0.00  0.00    +0.170 HD
ATOM     11  H   UNL     1       2.205  -2.462   6.333  0.00  0.00    +0.162 HD
ENDROOT
BRANCH   1  19
ATOM     12  C   UNL     1      -0.213   1.107   0.259  0.00  0.00    +0.028 C 
ATOM     13  C   UNL     1       0.267  -0.308  -0.069  0.00  0.00    +0.074 C 
ATOM     14  C   UNL     1      -0.915  -1.151  -0.558  0.00  0.00    +0.025 C 
ATOM     15  C   UNL     1      -1.922  -1.321   0.582  0.00  0.00    -0.011 C 
ATOM     16  C   UNL     1      -1.256  -2.056   1.747  0.00  0.00    +0.025 C 
ATOM     17  C   UNL     1      -0.078  -1.224   2.263  0.00  0.00    +0.074 C 
ATOM     18  N   UNL     1       0.826  -0.931   1.139  0.00  0.00    -0.291 N 
ATOM     19  C   UNL     1       2.139  -1.229   1.213  0.00  0.00    +0.262 C 
ATOM     20  O   UNL     1       2.881  -0.934   0.297  0.00  0.00    -0.269 OA
ATOM     21  C   UNL     1      -0.597   0.086   2.861  0.00  0.00    +0.028 C 
ATOM     22  C   UNL     1      -3.121  -2.133   0.086  0.00  0.00    +0.007 C 
ENDBRANCH   1  19
BRANCH   5  23
ATOM     23  C   UNL     1       5.092  -2.899   6.883  0.00  0.00    +0.127 A 
ATOM     24  C   UNL     1       5.779  -3.037   8.031  0.00  0.00    +0.047 A 
ATOM     25  C   UNL     1       6.798  -2.056   8.019  0.00  0.00    +0.041 A 
ATOM     26  C   UNL     1       6.672  -1.378   6.864  0.00  0.00    +0.195 A 
ATOM     27  O   UNL     1       5.641  -1.896   6.178  0.00  0.00    -0.466 OA
ENDBRANCH   5  23
BRANCH   7  28
ATOM     28  C   UNL     1       5.259  -5.247   3.178  0.00  0.00    +0.410 C 
ATOM     29  F   UNL     1       4.072  -5.910   2.849  0.00  0.00    -0.169 F 
ATOM     30  F   UNL     1       5.791  -4.648   2.031  0.00  0.00    -0.169 F 
ATOM     31  F   UNL     1       6.179  -6.167   3.694  0.00  0.00    -0.169 F 
ENDBRANCH   7  28
TORSDOF 3
