REMARK  Name = ZINC40729202
REMARK  5 active torsions:
REMARK  status: ('A' for Active; 'I' for Inactive)
REMARK    1  A    between atoms: C_4  and  C_7
REMARK    2  A    between atoms: C_7  and  C_8
REMARK    3  A    between atoms: C_15  and  N_31
REMARK    4  A    between atoms: C_16  and  N_20
REMARK    5  A    between atoms: N_20  and  C_21
REMARK                            x       y       z     vdW  Elec       q    Type
REMARK                         _______ _______ _______ _____ _____    ______ ____
ROOT
ATOM      1  C   UNL     1       2.913  -1.096   1.957  0.00  0.00    -0.004 C 
ATOM      2  C   UNL     1       2.137  -2.151   2.749  0.00  0.00    +0.023 C 
ATOM      3  C   UNL     1       2.813  -2.363   4.107  0.00  0.00    +0.107 C 
ATOM      4  N   UNL     1       4.227  -2.695   3.884  0.00  0.00    -0.314 N 
ATOM      5  C   UNL     1       5.043  -1.794   3.059  0.00  0.00    +0.107 C 
ATOM      6  C   UNL     1       4.342  -1.588   1.713  0.00  0.00    +0.023 C 
ATOM      7  C   UNL     1       4.782  -3.840   4.444  0.00  0.00    +0.147 A 
ATOM      8  C   UNL     1       5.443  -3.780   5.673  0.00  0.00    +0.106 A 
ATOM      9  C   UNL     1       5.982  -4.959   6.190  0.00  0.00    +0.149 A 
ATOM     10  N   UNL     1       5.846  -6.088   5.497  0.00  0.00    -0.219 NA
ATOM     11  C   UNL     1       5.215  -6.101   4.341  0.00  0.00    +0.225 A 
ATOM     12  N   UNL     1       4.688  -5.011   3.820  0.00  0.00    -0.219 NA
ENDROOT
BRANCH   8  13
ATOM     13  N   UNL     1       5.563  -2.566   6.369  0.00  0.00    -0.353 N 
ATOM     14  H   UNL     1       5.113  -1.772   6.040  0.00  0.00    +0.143 HD
ATOM     15  H   UNL     1       6.095  -2.522   7.178  0.00  0.00    +0.143 HD
ENDBRANCH   8  13
BRANCH   9  16
ATOM     16  N   UNL     1       6.650  -4.955   7.409  0.00  0.00    -0.296 N 
ATOM     17  H   UNL     1       6.828  -4.115   7.862  0.00  0.00    +0.154 HD
BRANCH  16  18
ATOM     18  C   UNL     1       7.065  -6.157   7.981  0.00  0.00    +0.059 A 
ATOM     19  C   UNL     1       6.417  -7.333   7.671  0.00  0.00    +0.025 A 
ATOM     20  C   UNL     1       6.821  -8.540   8.235  0.00  0.00    +0.003 A 
ATOM     21  C   UNL     1       7.866  -8.591   9.107  0.00  0.00    +0.010 A 
ATOM     22  C   UNL     1       8.553  -7.414   9.447  0.00  0.00    +0.002 A 
ATOM     23  C   UNL     1       8.156  -6.180   8.877  0.00  0.00    +0.092 A 
ATOM     24  N   UNL     1       8.809  -5.059   9.196  0.00  0.00    -0.253 NA
ATOM     25  C   UNL     1       9.822  -5.074  10.028  0.00  0.00    +0.111 A 
ATOM     26  C   UNL     1      10.268  -6.254  10.620  0.00  0.00    +0.020 A 
ATOM     27  C   UNL     1       9.637  -7.434  10.345  0.00  0.00    +0.011 A 
ENDBRANCH  16  18
ENDBRANCH   9  16
BRANCH   1  28
ATOM     28  C   UNL     1       2.221  -0.856   0.614  0.00  0.00    +0.038 C 
BRANCH  28  32
ATOM     29  C   UNL     1      -1.640   0.844   1.284  0.00  0.00    +0.000 A 
ATOM     30  C   UNL     1      -0.540   1.667   1.128  0.00  0.00    +0.000 A 
ATOM     31  C   UNL     1       0.709   1.117   0.911  0.00  0.00    +0.003 A 
ATOM     32  C   UNL     1       0.859  -0.256   0.851  0.00  0.00    -0.047 A 
ATOM     33  C   UNL     1      -0.241  -1.079   1.008  0.00  0.00    +0.003 A 
ATOM     34  C   UNL     1      -1.491  -0.529   1.223  0.00  0.00    +0.000 A 
ENDBRANCH  28  32
ENDBRANCH   1  28
TORSDOF 5
