REMARK  Name = ZINC40779779
REMARK  4 active torsions:
REMARK  status: ('A' for Active; 'I' for Inactive)
REMARK    1  A    between atoms: C_3  and  N_8
REMARK    2  A    between atoms: C_10  and  N_17
REMARK    3  A    between atoms: C_11  and  N_15
REMARK    4  A    between atoms: N_15  and  N_16
REMARK                            x       y       z     vdW  Elec       q    Type
REMARK                         _______ _______ _______ _____ _____    ______ ____
ROOT
ATOM      1  N   UNL     1       3.595   2.001  -0.022  0.00  0.00    -0.283 N 
ATOM      2  C   UNL     1       3.628   3.388  -0.120  0.00  0.00    +0.150 A 
ATOM      3  C   UNL     1       4.845   4.061  -0.240  0.00  0.00    +0.105 A 
ATOM      4  C   UNL     1       4.821   5.454  -0.336  0.00  0.00    +0.135 A 
ATOM      5  N   UNL     1       3.648   6.082  -0.308  0.00  0.00    -0.332 N 
ATOM      6  C   UNL     1       2.522   5.408  -0.194  0.00  0.00    +0.200 A 
ATOM      7  N   UNL     1       2.500   4.093  -0.107  0.00  0.00    -0.221 NA
ATOM      8  H   UNL     1       4.423   1.499   0.038  0.00  0.00    +0.155 HD
ATOM      9  H   UNL     1       3.622   7.049  -0.374  0.00  0.00    +0.168 HD
ENDROOT
BRANCH   1  12
ATOM     10  C   UNL     1       1.129  -0.710  -0.009  0.00  0.00    +0.020 A 
ATOM     11  C   UNL     1       2.349  -0.058  -0.021  0.00  0.00    +0.045 A 
ATOM     12  C   UNL     1       2.374   1.333  -0.010  0.00  0.00    +0.124 A 
ATOM     13  N   UNL     1       1.247   2.027   0.011  0.00  0.00    -0.239 NA
ATOM     14  C   UNL     1       0.069   1.433   0.023  0.00  0.00    +0.128 A 
ATOM     15  C   UNL     1      -0.030   0.055   0.014  0.00  0.00    +0.036 A 
ATOM     16 BR   UNL     1      -1.726  -0.781   0.030  0.00  0.00    -0.049 Br
ENDBRANCH   1  12
BRANCH   3  17
ATOM     17  N   UNL     1       6.060   3.357  -0.264  0.00  0.00    -0.353 N 
ATOM     18  H   UNL     1       6.061   2.389  -0.197  0.00  0.00    +0.143 HD
ATOM     19  H   UNL     1       6.898   3.838  -0.348  0.00  0.00    +0.143 HD
ENDBRANCH   3  17
BRANCH   4  20
ATOM     20  N   UNL     1       6.004   6.173  -0.456  0.00  0.00    -0.267 N 
ATOM     21  H   UNL     1       6.855   5.708  -0.475  0.00  0.00    +0.167 HD
BRANCH  20  22
ATOM     22  N   UNL     1       5.969   7.536  -0.549  0.00  0.00    -0.255 NA
ATOM     23  H   UNL     1       6.899   7.917  -0.631  0.00  0.00    +0.140 HD
ATOM     24  H   UNL     1       5.388   7.831  -1.319  0.00  0.00    +0.140 HD
ENDBRANCH  20  22
ENDBRANCH   4  20
TORSDOF 4
