REMARK  Name = ZINC12401700
REMARK  7 active torsions:
REMARK  status: ('A' for Active; 'I' for Inactive)
REMARK    1  A    between atoms: C_1  and  C_2
REMARK    2  A    between atoms: C_2  and  C_3
REMARK    3  A    between atoms: C_2  and  S_4
REMARK    4  A    between atoms: S_4  and  C_5
REMARK    5  A    between atoms: C_13  and  C_20
REMARK    6  A    between atoms: C_15  and  C_18
REMARK    7  A    between atoms: C_16  and  N_17
REMARK                            x       y       z     vdW  Elec       q    Type
REMARK                         _______ _______ _______ _____ _____    ______ ____
ROOT
ATOM      1  C   UNL     1       7.007   0.856   1.402  0.00  0.00    +0.160 A 
ATOM      2  N   UNL     1       6.689   0.655   0.131  0.00  0.00    -0.133 NA
ATOM      3  N   UNL     1       5.623   1.109  -0.369  0.00  0.00    -0.124 NA
ATOM      4  C   UNL     1       4.758   1.813   0.343  0.00  0.00    +0.194 A 
ATOM      5  S   UNL     1       5.594   1.824   1.926  0.00  0.00    -0.024 S 
ATOM      6  N   UNL     1       3.546   2.387  -0.034  0.00  0.00    -0.237 N 
ATOM      7  C   UNL     1       2.399   1.638  -0.000  0.00  0.00    +0.026 C 
ATOM      8  C   UNL     1       1.188   2.235   0.032  0.00  0.00    +0.027 C 
ATOM      9  C   UNL     1       1.065   3.738   0.038  0.00  0.00    +0.117 C 
ATOM     10  C   UNL     1       2.337   4.388  -0.422  0.00  0.00    +0.078 C 
ATOM     11  C   UNL     1       3.510   3.704  -0.437  0.00  0.00    +0.108 C 
ATOM     12  C   UNL     1       0.007   1.474   0.064  0.00  0.00    +0.162 C 
ATOM     13  O   UNL     1      -1.068   2.041   0.067  0.00  0.00    -0.292 OA
ATOM     14  C   UNL     1       0.048  -0.030   0.088  0.00  0.00    +0.080 C 
ATOM     15  C   UNL     1       1.350  -0.482   0.757  0.00  0.00    +0.014 C 
ATOM     16  C   UNL     1       2.525   0.134  -0.004  0.00  0.00    +0.052 C 
ENDROOT
BRANCH   9  17
ATOM     17  C   UNL     1       0.751   4.202   1.437  0.00  0.00    +0.073 A 
ATOM     18  C   UNL     1       1.794   4.445   2.335  0.00  0.00    +0.135 A 
ATOM     19  N   UNL     1       1.544   4.851   3.559  0.00  0.00    -0.252 NA
ATOM     20  C   UNL     1       0.278   5.033   3.951  0.00  0.00    +0.089 A 
ATOM     21  C   UNL     1      -0.022   5.466   5.255  0.00  0.00    +0.030 A 
ATOM     22  C   UNL     1      -1.320   5.641   5.624  0.00  0.00    +0.002 A 
ATOM     23  C   UNL     1      -2.360   5.399   4.728  0.00  0.00    +0.002 A 
ATOM     24  C   UNL     1      -2.108   4.980   3.459  0.00  0.00    +0.030 A 
ATOM     25  C   UNL     1      -0.780   4.787   3.040  0.00  0.00    +0.090 A 
ATOM     26  N   UNL     1      -0.499   4.380   1.797  0.00  0.00    -0.248 NA
ENDBRANCH   9  17
BRANCH  11  27
ATOM     27  N   UNL     1       4.662   4.326  -0.855  0.00  0.00    -0.345 N 
ATOM     28  H   UNL     1       5.482   3.816  -0.946  0.00  0.00    +0.144 HD
ATOM     29  H   UNL     1       4.654   5.274  -1.059  0.00  0.00    +0.144 HD
ENDBRANCH  11  27
BRANCH  10  30
ATOM     30  C   UNL     1       2.313   5.753  -0.853  0.00  0.00    +0.099 C 
ATOM     31  N   UNL     1       2.294   6.837  -1.195  0.00  0.00    -0.191 NA
ENDBRANCH  10  30
BRANCH   1  32
ATOM     32  S   UNL     1       8.420   0.329   2.313  0.00  0.00    -0.094 S 
BRANCH  32  34
ATOM     33  C   UNL     1       9.884   0.359   0.003  0.00  0.00    +0.019 C 
ATOM     34  C   UNL     1       9.405  -0.593   1.100  0.00  0.00    +0.047 C 
ATOM     35  C   UNL     1      10.615  -1.218   1.796  0.00  0.00    +0.019 C 
ENDBRANCH  32  34
ENDBRANCH   1  32
TORSDOF 5
