REMARK  Name = ZINC17458053
REMARK  7 active torsions:
REMARK  status: ('A' for Active; 'I' for Inactive)
REMARK    1  A    between atoms: C_1  and  C_2
REMARK    2  A    between atoms: C_5  and  O_28
REMARK    3  A    between atoms: C_6  and  C_8
REMARK    4  A    between atoms: N_10  and  N_11
REMARK    5  A    between atoms: C_12  and  C_14
REMARK    6  A    between atoms: C_17  and  S_20
REMARK    7  A    between atoms: S_20  and  N_23
REMARK                            x       y       z     vdW  Elec       q    Type
REMARK                         _______ _______ _______ _____ _____    ______ ____
ROOT
ATOM      1  N   UNL     1      -0.068   0.060  -4.872  0.00  0.00    -0.230 N 
ATOM      2  C   UNL     1      -0.076  -0.614  -6.038  0.00  0.00    +0.260 C 
ATOM      3  O   UNL     1      -0.059  -1.830  -6.038  0.00  0.00    -0.269 OA
ATOM      4  H   UNL     1      -0.082   1.030  -4.872  0.00  0.00    +0.173 HD
ENDROOT
BRANCH   2   5
ATOM      5  C   UNL     1      -0.104   0.124  -7.319  0.00  0.00    +0.038 A 
ATOM      6  C   UNL     1      -0.129   1.520  -7.323  0.00  0.00    +0.015 A 
ATOM      7  C   UNL     1      -0.150   2.203  -8.522  0.00  0.00    +0.029 A 
ATOM      8  C   UNL     1      -0.157   1.507  -9.718  0.00  0.00    +0.106 A 
ATOM      9  C   UNL     1      -0.138   0.124  -9.720  0.00  0.00    +0.029 A 
ATOM     10  C   UNL     1      -0.112  -0.571  -8.529  0.00  0.00    +0.015 A 
BRANCH   8  11
ATOM     11  S   UNL     1      -0.191   2.387 -11.244  0.00  0.00    +0.061 S 
ATOM     12  O   UNL     1       0.346   3.676 -10.981  0.00  0.00    -0.153 OA
ATOM     13  O   UNL     1       0.358   1.518 -12.226  0.00  0.00    -0.153 OA
BRANCH  11  14
ATOM     14  N   UNL     1      -1.782   2.610 -11.645  0.00  0.00    -0.177 NA
ATOM     15  C   UNL     1      -2.598   1.693 -12.455  0.00  0.00    +0.109 C 
ATOM     16  C   UNL     1      -4.001   2.323 -12.586  0.00  0.00    +0.018 C 
ATOM     17  C   UNL     1      -3.730   3.828 -12.327  0.00  0.00    +0.018 C 
ATOM     18  C   UNL     1      -2.613   3.763 -11.255  0.00  0.00    +0.109 C 
ENDBRANCH  11  14
ENDBRANCH   8  11
ENDBRANCH   2   5
BRANCH   1  21
ATOM     19  C   UNL     1      -0.034   0.035  -2.491  0.00  0.00    +0.264 C 
ATOM     20  O   UNL     1      -0.051   1.251  -2.492  0.00  0.00    -0.269 OA
ATOM     21  N   UNL     1      -0.042  -0.639  -3.658  0.00  0.00    -0.230 N 
ATOM     22  H   UNL     1      -0.028  -1.609  -3.658  0.00  0.00    +0.173 HD
BRANCH  19  28
ATOM     23  C   UNL     1       0.059  -4.287  -0.007  0.00  0.00    +0.044 C 
ATOM     24  C   UNL     1       0.039  -2.780  -0.011  0.00  0.00    -0.050 A 
ATOM     25  C   UNL     1       0.041  -2.087   1.188  0.00  0.00    +0.007 A 
ATOM     26  C   UNL     1       0.023  -0.707   1.198  0.00  0.00    +0.046 A 
ATOM     27  C   UNL     1       0.002  -0.004   0.002  0.00  0.00    +0.129 A 
ATOM     28  C   UNL     1      -0.006  -0.701  -1.214  0.00  0.00    +0.080 A 
ATOM     29  C   UNL     1       0.019  -2.098  -1.208  0.00  0.00    +0.020 A 
BRANCH  27  30
ATOM     30  O   UNL     1      -0.016   1.352   0.009  0.00  0.00    -0.506 OA
ATOM     31  H   UNL     1       0.862   1.758   0.003  0.00  0.00    +0.292 HD
ENDBRANCH  27  30
ENDBRANCH  19  28
ENDBRANCH   1  21
TORSDOF 6
