REMARK  Name = ZINC09138232
REMARK  3 active torsions:
REMARK  status: ('A' for Active; 'I' for Inactive)
REMARK    1  A    between atoms: C_4  and  C_7
REMARK    2  A    between atoms: C_19  and  C_21
REMARK    3  A    between atoms: C_26  and  C_27
REMARK                            x       y       z     vdW  Elec       q    Type
REMARK                         _______ _______ _______ _____ _____    ______ ____
ROOT
ATOM      1  C   UNL     1       1.160   1.663  -0.000  0.00  0.00    +0.143 A 
ATOM      2  N   UNL     1      -0.011   0.966   0.007  0.00  0.00    -0.307 N 
ATOM      3  H   UNL     1       0.004  -0.134   0.006  0.00  0.00    +0.170 HD
ATOM      4  C   UNL     1      -1.190   1.625   0.017  0.00  0.00    +0.257 A 
ATOM      5  O   UNL     1      -2.246   1.013   0.018  0.00  0.00    -0.267 OA
ATOM      6  C   UNL     1      -1.175   3.025   0.029  0.00  0.00    +0.065 A 
ATOM      7  C   UNL     1       0.041   3.685   0.021  0.00  0.00    +0.136 A 
ATOM      8  N   UNL     1       1.177   2.978   0.006  0.00  0.00    -0.214 NA
ATOM      9  N   UNL     1       0.077   5.069   0.028  0.00  0.00    -0.270 N 
ATOM     10  C   UNL     1      -1.007   5.786  -0.321  0.00  0.00    +0.219 C 
ATOM     11  O   UNL     1      -0.959   6.997  -0.293  0.00  0.00    -0.275 OA
ATOM     12  C   UNL     1      -2.279   5.103  -0.747  0.00  0.00    +0.109 C 
ATOM     13  C   UNL     1      -2.461   3.806   0.045  0.00  0.00    +0.067 C 
ATOM     14  H   UNL     1       0.998   5.594   0.321  0.00  0.00    +0.156 HD
ENDROOT
BRANCH   1  18
ATOM     15  C   UNL     1       4.838  -0.460  -0.045  0.00  0.00    +0.000 A 
ATOM     16  C   UNL     1       4.842   0.924  -0.038  0.00  0.00    +0.001 A 
ATOM     17  C   UNL     1       3.651   1.620  -0.024  0.00  0.00    +0.011 A 
ATOM     18  C   UNL     1       2.440   0.924  -0.016  0.00  0.00    +0.017 A 
ATOM     19  C   UNL     1       2.444  -0.472  -0.018  0.00  0.00    +0.011 A 
ATOM     20  C   UNL     1       3.642  -1.155  -0.038  0.00  0.00    +0.001 A 
ENDBRANCH   1  18
BRANCH  13  21
ATOM     21  C   UNL     1      -2.832   4.134   1.468  0.00  0.00    -0.028 A 
ATOM     22  C   UNL     1      -1.973   4.881   2.252  0.00  0.00    +0.005 A 
ATOM     23  C   UNL     1      -2.316   5.186   3.556  0.00  0.00    +0.000 A 
ATOM     24  C   UNL     1      -3.514   4.735   4.079  0.00  0.00    +0.001 A 
ATOM     25  C   UNL     1      -4.370   3.984   3.296  0.00  0.00    +0.012 A 
ATOM     26  C   UNL     1      -4.030   3.684   1.991  0.00  0.00    +0.059 A 
BRANCH  26  27
ATOM     27  C   UNL     1      -4.964   2.864   1.138  0.00  0.00    +0.418 C 
ATOM     28  F   UNL     1      -6.100   2.528   1.881  0.00  0.00    -0.166 F 
ATOM     29  F   UNL     1      -5.344   3.608   0.015  0.00  0.00    -0.166 F 
ATOM     30  F   UNL     1      -4.314   1.696   0.725  0.00  0.00    -0.166 F 
ENDBRANCH  26  27
ENDBRANCH  13  21
TORSDOF 3
