REMARK  Name = ZINC35701116
REMARK  6 active torsions:
REMARK  status: ('A' for Active; 'I' for Inactive)
REMARK    1  A    between atoms: C_1  and  N_2
REMARK    2  A    between atoms: N_2  and  C_3
REMARK    3  A    between atoms: N_2  and  C_9
REMARK    4  A    between atoms: C_3  and  C_4
REMARK    5  A    between atoms: C_12  and  C_16
REMARK    6  A    between atoms: C_14  and  N_15
REMARK                            x       y       z     vdW  Elec       q    Type
REMARK                         _______ _______ _______ _____ _____    ______ ____
ROOT
ATOM      1  C   UNL     1       0.000  -0.694  -1.208  0.00  0.00    +0.051 A 
ATOM      2  C   UNL     1       1.203  -1.026  -1.820  0.00  0.00    +0.026 A 
ATOM      3  C   UNL     1       1.206  -1.709  -3.017  0.00  0.00    +0.015 A 
ATOM      4  C   UNL     1      -0.002  -2.068  -3.620  0.00  0.00    +0.038 A 
ATOM      5  C   UNL     1      -1.214  -1.735  -3.007  0.00  0.00    +0.037 A 
ATOM      6  C   UNL     1      -1.212  -1.056  -1.803  0.00  0.00    +0.047 A 
ENDROOT
BRANCH   4   7
ATOM      7  C   UNL     1       0.001  -2.798  -4.902  0.00  0.00    +0.242 C 
ATOM      8  O   UNL     1      -1.051  -3.111  -5.426  0.00  0.00    -0.270 OA
ATOM      9  N   UNL     1       1.169  -3.119  -5.492  0.00  0.00    -0.325 N 
ATOM     10  H   UNL     1       2.008  -2.869  -5.074  0.00  0.00    +0.145 HD
ATOM     11  H   UNL     1       1.171  -3.598  -6.335  0.00  0.00    +0.145 HD
ENDBRANCH   4   7
BRANCH   6  12
ATOM     12  N   UNL     1      -2.423  -0.726  -1.183  0.00  0.00    -0.357 N 
ATOM     13  H   UNL     1      -2.421  -0.246  -0.340  0.00  0.00    +0.142 HD
ATOM     14  H   UNL     1      -3.264  -0.978  -1.596  0.00  0.00    +0.142 HD
ENDBRANCH   6  12
BRANCH   1  16
ATOM     15  C   UNL     1      -0.018   1.461   0.010  0.00  0.00    +0.130 C 
ATOM     16  N   UNL     1       0.002  -0.004   0.002  0.00  0.00    -0.324 N 
BRANCH  16  17
ATOM     17  C   UNL     1       0.024  -0.743   1.267  0.00  0.00    +0.179 C 
BRANCH  17  18
ATOM     18  C   UNL     1      -1.389  -1.016   1.714  0.00  0.00    +0.122 A 
ATOM     19  C   UNL     1      -2.117  -2.103   1.401  0.00  0.00    +0.046 A 
ATOM     20  C   UNL     1      -3.375  -1.948   2.027  0.00  0.00    +0.041 A 
ATOM     21  C   UNL     1      -3.340  -0.775   2.686  0.00  0.00    +0.195 A 
ATOM     22  O   UNL     1      -2.133  -0.218   2.497  0.00  0.00    -0.466 OA
ENDBRANCH  17  18
ENDBRANCH  16  17
ENDBRANCH   1  16
TORSDOF 5
