REMARK  Name = ZINC23667578
REMARK  16 active torsions:
REMARK  status: ('A' for Active; 'I' for Inactive)
REMARK    1  A    between atoms: C_1  and  C_2
REMARK    2  A    between atoms: C_2  and  C_3
REMARK    3  A    between atoms: C_3  and  C_4
REMARK    4  A    between atoms: C_4  and  N_5
REMARK    5  A    between atoms: N_5  and  C_6
REMARK    6  A    between atoms: C_7  and  N_19
REMARK    7  A    between atoms: N_8  and  C_15
REMARK    8  A    between atoms: C_15  and  C_16
REMARK    9  A    between atoms: C_16  and  C_17
REMARK   10  A    between atoms: C_16  and  C_18
REMARK   11  A    between atoms: C_20  and  C_22
REMARK   12  A    between atoms: C_22  and  N_23
REMARK   13  A    between atoms: N_23  and  C_24
REMARK   14  A    between atoms: N_23  and  C_25
REMARK   15  A    between atoms: C_25  and  C_27
REMARK   16  A    between atoms: C_25  and  C_28
REMARK                            x       y       z     vdW  Elec       q    Type
REMARK                         _______ _______ _______ _____ _____    ______ ____
ROOT
ATOM      1  N   UNL     1       4.811   7.713  -2.513  0.00  0.00    -0.266 N 
ATOM      2  C   UNL     1       3.667   7.254  -1.961  0.00  0.00    +0.203 C 
ATOM      3  O   UNL     1       2.600   7.717  -2.306  0.00  0.00    -0.277 OA
ENDROOT
BRANCH   1   4
ATOM      4  C   UNL     1       4.760   8.662  -3.555  0.00  0.00    +0.140 A 
ATOM      5  C   UNL     1       4.168   8.349  -4.762  0.00  0.00    +0.127 A 
ATOM      6  N   UNL     1       4.134   9.296  -5.759  0.00  0.00    -0.280 N 
ATOM      7  C   UNL     1       4.672  10.513  -5.561  0.00  0.00    +0.331 A 
ATOM      8  O   UNL     1       4.632  11.336  -6.455  0.00  0.00    -0.246 OA
ATOM      9  N   UNL     1       5.253  10.836  -4.392  0.00  0.00    -0.273 N 
ATOM     10  H   UNL     1       5.690  11.835  -4.253  0.00  0.00    +0.173 HD
ATOM     11  C   UNL     1       5.307   9.947  -3.380  0.00  0.00    +0.277 A 
ATOM     12  O   UNL     1       5.832  10.252  -2.323  0.00  0.00    -0.266 OA
BRANCH   5  13
ATOM     13  N   UNL     1       3.619   7.105  -4.965  0.00  0.00    -0.343 N 
ATOM     14  H   UNL     1       3.149   6.862  -5.929  0.00  0.00    +0.144 HD
ATOM     15  H   UNL     1       3.650   6.353  -4.163  0.00  0.00    +0.144 HD
ENDBRANCH   5  13
BRANCH   6  16
ATOM     16  C   UNL     1       3.509   8.977  -7.045  0.00  0.00    +0.131 C 
BRANCH  16  17
ATOM     17  C   UNL     1       2.024   9.344  -6.995  0.00  0.00    +0.003 C 
ATOM     18  C   UNL     1       1.399   9.128  -8.374  0.00  0.00    +0.009 C 
ATOM     19  C   UNL     1       1.314   8.460  -5.968  0.00  0.00    +0.009 C 
ENDBRANCH  16  17
ENDBRANCH   6  16
ENDBRANCH   1   4
BRANCH   1  20
ATOM     20  C   UNL     1       6.104   7.224  -2.029  0.00  0.00    +0.114 C 
BRANCH  20  21
ATOM     21  C   UNL     1       6.564   6.052  -2.897  0.00  0.00    +0.019 C 
BRANCH  21  23
ATOM     22  C   UNL     1       8.375   4.369  -3.261  0.00  0.00    +0.004 C 
ATOM     23  C   UNL     1       7.915   5.542  -2.392  0.00  0.00    -0.002 C 
ENDBRANCH  21  23
ENDBRANCH  20  21
ENDBRANCH   1  20
BRANCH   2  24
ATOM     24  C   UNL     1       3.717   6.168  -0.918  0.00  0.00    +0.020 C 
BRANCH  24  25
ATOM     25  N   UNL     1       2.352   5.848  -0.479  0.00  0.00    +0.388 N 
ATOM     26  C   UNL     1       1.746   6.985   0.228  0.00  0.00    -0.095 C 
ATOM     27  H   UNL     1       1.747   5.647  -1.376  0.00  0.00    -0.081 HD
BRANCH  25  28
ATOM     28  C   UNL     1       2.337   4.640   0.356  0.00  0.00    -0.040 C 
ATOM     29  C   UNL     1       0.893   4.295   0.729  0.00  0.00    -0.008 C 
BRANCH  28  30
ATOM     30  C   UNL     1       2.946   3.493  -0.408  0.00  0.00    -0.058 A 
ATOM     31  C   UNL     1       2.551   3.244  -1.710  0.00  0.00    +0.005 A 
ATOM     32  C   UNL     1       3.109   2.193  -2.413  0.00  0.00    +0.041 A 
ATOM     33  C   UNL     1       4.068   1.392  -1.817  0.00  0.00    +0.158 A 
ATOM     34  C   UNL     1       4.459   1.639  -0.509  0.00  0.00    +0.159 A 
ATOM     35  C   UNL     1       3.899   2.692   0.192  0.00  0.00    +0.043 A 
ATOM     36  F   UNL     1       5.390   0.855   0.077  0.00  0.00    -0.202 F 
ATOM     37  F   UNL     1       4.617   0.368  -2.505  0.00  0.00    -0.202 F 
ENDBRANCH  28  30
ENDBRANCH  25  28
ENDBRANCH  24  25
ENDBRANCH   2  24
TORSDOF 11
