REMARK  Name = ZINC62756854
REMARK  6 active torsions:
REMARK  status: ('A' for Active; 'I' for Inactive)
REMARK    1  A    between atoms: C_1  and  C_2
REMARK    2  A    between atoms: C_2  and  C_3
REMARK    3  A    between atoms: C_7  and  C_20
REMARK    4  A    between atoms: C_9  and  N_12
REMARK    5  A    between atoms: C_15  and  C_18
REMARK    6  A    between atoms: C_15  and  C_19
REMARK                            x       y       z     vdW  Elec       q    Type
REMARK                         _______ _______ _______ _____ _____    ______ ____
ROOT
ATOM      1  C   UNL     1      -0.231  -0.296   2.911  0.00  0.00    -0.013 C 
ATOM      2  C   UNL     1      -0.762  -1.267   3.969  0.00  0.00    +0.004 C 
ATOM      3  C   UNL     1       0.413  -1.873   4.739  0.00  0.00    +0.013 C 
ATOM      4  C   UNL     1       1.325  -2.626   3.769  0.00  0.00    +0.089 C 
ATOM      5  C   UNL     1       1.856  -1.655   2.711  0.00  0.00    -0.054 C 
ATOM      6  C   UNL     1       0.681  -1.049   1.941  0.00  0.00    -0.011 C 
ENDROOT
BRANCH   5   7
ATOM      7  N   UNL     1       2.616  -0.584   3.368  0.00  0.00    +0.382 N 
ATOM      8  C   UNL     1       3.331  -1.132   4.526  0.00  0.00    -0.078 C 
ATOM      9  C   UNL     1       4.060  -0.005   5.261  0.00  0.00    -0.012 C 
ATOM     10  C   UNL     1       5.061   0.655   4.308  0.00  0.00    -0.038 C 
ATOM     11  C   UNL     1       4.314   1.157   3.068  0.00  0.00    -0.012 C 
ATOM     12  C   UNL     1       3.576  -0.013   2.415  0.00  0.00    -0.078 C 
ATOM     13  C   UNL     1       5.736   1.834   5.011  0.00  0.00    +0.011 C 
ATOM     14  C   UNL     1       6.119  -0.367   3.888  0.00  0.00    +0.011 C 
ATOM     15  H   UNL     1       1.982   0.137   3.677  0.00  0.00    -0.081 HD
ENDBRANCH   5   7
BRANCH   4  16
ATOM     16  C   UNL     1       2.482  -3.223   4.528  0.00  0.00    +0.357 C 
ATOM     17  O   UNL     1       2.424  -3.333   5.741  0.00  0.00    -0.246 OA
ATOM     18  O   UNL     1       3.476  -3.596   3.929  0.00  0.00    -0.246 OA
ENDBRANCH   4  16
BRANCH   1  20
ATOM     19  C   UNL     1      -2.250   1.165   3.087  0.00  0.00    +0.004 C 
ATOM     20  C   UNL     1      -1.406   0.310   2.140  0.00  0.00    -0.000 C 
ENDBRANCH   1  20
TORSDOF 3
