REMARK  Name = ZINC24497413
REMARK  8 active torsions:
REMARK  status: ('A' for Active; 'I' for Inactive)
REMARK    1  A    between atoms: C_1  and  C_2
REMARK    2  A    between atoms: C_2  and  C_20
REMARK    3  A    between atoms: N_5  and  C_9
REMARK    4  A    between atoms: C_9  and  C_10
REMARK    5  A    between atoms: N_12  and  C_13
REMARK    6  A    between atoms: C_13  and  C_14
REMARK    7  A    between atoms: C_13  and  C_15
REMARK    8  A    between atoms: C_13  and  C_17
REMARK                            x       y       z     vdW  Elec       q    Type
REMARK                         _______ _______ _______ _____ _____    ______ ____
ROOT
ATOM      1  C   UNL     1      -0.019   1.526   0.010  0.00  0.00    +0.047 C 
ATOM      2  C   UNL     1       0.002  -0.004   0.002  0.00  0.00    +0.135 C 
ATOM      3  C   UNL     1       0.815  -0.520  -1.169  0.00  0.00    +0.251 C 
ATOM      4  O   UNL     1       0.595  -0.342  -2.348  0.00  0.00    -0.272 OA
ATOM      5  N   UNL     1       1.833  -1.217  -0.627  0.00  0.00    -0.215 N 
ATOM      6  C   UNL     1       1.777  -1.214   0.710  0.00  0.00    +0.310 C 
ATOM      7  O   UNL     1       2.586  -1.776   1.421  0.00  0.00    -0.252 OA
ATOM      8  N   UNL     1       0.724  -0.519   1.178  0.00  0.00    -0.281 N 
ATOM      9  H   UNL     1       0.487  -0.383   2.109  0.00  0.00    +0.152 HD
ENDROOT
BRANCH   2  10
ATOM     10  C   UNL     1      -1.401  -0.551  -0.040  0.00  0.00    -0.015 A 
ATOM     11  C   UNL     1      -2.005  -0.815  -1.255  0.00  0.00    +0.006 A 
ATOM     12  C   UNL     1      -3.291  -1.317  -1.292  0.00  0.00    +0.004 A 
ATOM     13  C   UNL     1      -3.979  -1.557  -0.114  0.00  0.00    -0.044 A 
ATOM     14  C   UNL     1      -3.375  -1.294   1.102  0.00  0.00    -0.044 A 
ATOM     15  C   UNL     1      -2.083  -0.796   1.136  0.00  0.00    +0.010 A 
ATOM     16  C   UNL     1      -4.325  -1.637   2.230  0.00  0.00    +0.036 C 
ATOM     17  C   UNL     1      -5.719  -1.722   1.573  0.00  0.00    +0.009 C 
ATOM     18  C   UNL     1      -5.375  -2.095   0.115  0.00  0.00    +0.036 C 
ENDBRANCH   2  10
BRANCH   5  19
ATOM     19  C   UNL     1       2.871  -1.896  -1.406  0.00  0.00    +0.213 C 
BRANCH  19  20
ATOM     20  C   UNL     1       4.020  -0.950  -1.644  0.00  0.00    +0.232 C 
ATOM     21  O   UNL     1       3.975   0.180  -1.206  0.00  0.00    -0.274 OA
ATOM     22  N   UNL     1       5.097  -1.360  -2.343  0.00  0.00    -0.296 N 
ATOM     23  H   UNL     1       5.133  -2.264  -2.693  0.00  0.00    +0.150 HD
BRANCH  22  24
ATOM     24  C   UNL     1       6.213  -0.440  -2.574  0.00  0.00    +0.121 C 
ATOM     25  C   UNL     1       6.793   0.007  -1.230  0.00  0.00    +0.048 C 
BRANCH  24  26
ATOM     26  C   UNL     1       7.298  -1.149  -3.387  0.00  0.00    +0.026 C 
ATOM     27  C   UNL     1       8.660  -1.354  -2.720  0.00  0.00    +0.007 C 
ATOM     28  C   UNL     1       8.502  -0.318  -3.835  0.00  0.00    +0.007 C 
ENDBRANCH  24  26
BRANCH  24  29
ATOM     29  C   UNL     1       5.734   0.737  -3.317  0.00  0.00    +0.088 C 
ATOM     30  N   UNL     1       5.364   1.645  -3.890  0.00  0.00    -0.194 NA
ENDBRANCH  24  29
ENDBRANCH  22  24
ENDBRANCH  19  20
ENDBRANCH   5  19
TORSDOF 6
