REMARK  Name = ZINC35079618
REMARK  9 active torsions:
REMARK  status: ('A' for Active; 'I' for Inactive)
REMARK    1  A    between atoms: C_1  and  C_2
REMARK    2  A    between atoms: C_2  and  O_3
REMARK    3  A    between atoms: O_3  and  C_4
REMARK    4  A    between atoms: C_4  and  C_6
REMARK    5  A    between atoms: C_7  and  C_25
REMARK    6  A    between atoms: C_9  and  N_24
REMARK    7  A    between atoms: C_10  and  C_22
REMARK    8  A    between atoms: C_11  and  C_13
REMARK    9  A    between atoms: C_16  and  N_19
REMARK                            x       y       z     vdW  Elec       q    Type
REMARK                         _______ _______ _______ _____ _____    ______ ____
ROOT
ATOM      1  C   UNL     1      -2.794  -2.404   0.082  0.00  0.00    +0.066 C 
ATOM      2  C   UNL     1      -2.937  -3.729  -0.087  0.00  0.00    +0.017 C 
ATOM      3  N   UNL     1      -4.177  -4.303  -0.140  0.00  0.00    -0.305 N 
ATOM      4  C   UNL     1      -5.276  -3.620   0.330  0.00  0.00    +0.100 C 
ATOM      5  C   UNL     1      -5.225  -2.276   0.516  0.00  0.00    +0.076 C 
ATOM      6  C   UNL     1      -3.980  -1.493   0.216  0.00  0.00    +0.101 C 
ATOM      7  C   UNL     1      -1.712  -4.597  -0.220  0.00  0.00    +0.061 C 
ATOM      8  H   UNL     1      -4.283  -5.193  -0.510  0.00  0.00    +0.153 HD
ENDROOT
BRANCH   6   9
ATOM      9  C   UNL     1      -4.174  -0.739  -1.074  0.00  0.00    -0.034 A 
ATOM     10  C   UNL     1      -4.414  -1.428  -2.249  0.00  0.00    +0.007 A 
ATOM     11  C   UNL     1      -4.592  -0.736  -3.432  0.00  0.00    +0.033 A 
ATOM     12  C   UNL     1      -4.531   0.645  -3.441  0.00  0.00    +0.126 A 
ATOM     13  C   UNL     1      -4.292   1.334  -2.267  0.00  0.00    +0.033 A 
ATOM     14  C   UNL     1      -4.118   0.642  -1.083  0.00  0.00    +0.007 A 
BRANCH  12  15
ATOM     15  N   UNL     1      -4.720   1.386  -4.709  0.00  0.00    +0.056 N 
ATOM     16  O   UNL     1      -4.929   0.783  -5.736  0.00  0.00    -0.126 OA
ATOM     17  O   UNL     1      -4.667   2.594  -4.717  0.00  0.00    -0.126 OA
ENDBRANCH  12  15
ENDBRANCH   6   9
BRANCH   4  18
ATOM     18  N   UNL     1      -6.433  -4.305   0.613  0.00  0.00    -0.346 N 
ATOM     19  H   UNL     1      -6.474  -5.265   0.481  0.00  0.00    +0.143 HD
ATOM     20  H   UNL     1      -7.210  -3.828   0.944  0.00  0.00    +0.143 HD
ENDBRANCH   4  18
BRANCH   1  21
ATOM     21  C   UNL     1      -1.493  -1.853   0.141  0.00  0.00    +0.338 C 
ATOM     22  O   UNL     1      -0.991  -1.593   1.218  0.00  0.00    -0.245 OA
BRANCH  21  23
ATOM     23  O   UNL     1      -0.808  -1.617  -0.998  0.00  0.00    -0.462 OA
BRANCH  23  25
ATOM     24  C   UNL     1       1.116  -0.864  -2.251  0.00  0.00    +0.048 C 
ATOM     25  C   UNL     1       0.501  -1.060  -0.864  0.00  0.00    +0.229 C 
ENDBRANCH  23  25
ENDBRANCH  21  23
ENDBRANCH   1  21
BRANCH   5  26
ATOM     26  C   UNL     1      -6.381  -1.592   1.014  0.00  0.00    +0.099 C 
ATOM     27  N   UNL     1      -7.297  -1.049   1.409  0.00  0.00    -0.191 NA
ENDBRANCH   5  26
TORSDOF 7
