REMARK  Name = ZINC11324806
REMARK  4 active torsions:
REMARK  status: ('A' for Active; 'I' for Inactive)
REMARK    1  A    between atoms: C_1  and  C_2
REMARK    2  A    between atoms: C_4  and  N_13
REMARK    3  A    between atoms: C_7  and  N_8
REMARK    4  A    between atoms: C_14  and  C_16
REMARK                            x       y       z     vdW  Elec       q    Type
REMARK                         _______ _______ _______ _____ _____    ______ ____
ROOT
ATOM      1  N   UNL     1      -2.352   3.857   0.048  0.00  0.00    -0.281 N 
ATOM      2  C   UNL     1      -2.425   5.036  -0.600  0.00  0.00    +0.248 C 
ATOM      3  O   UNL     1      -1.429   5.510  -1.115  0.00  0.00    -0.270 OA
ATOM      4  H   UNL     1      -3.129   3.511   0.515  0.00  0.00    +0.155 HD
ENDROOT
BRANCH   2   5
ATOM      5  C   UNL     1      -3.711   5.753  -0.685  0.00  0.00    +0.039 A 
ATOM      6  C   UNL     1      -4.856   5.205  -0.099  0.00  0.00    +0.014 A 
ATOM      7  C   UNL     1      -6.058   5.875  -0.173  0.00  0.00    +0.017 A 
ATOM      8  C   UNL     1      -6.132   7.091  -0.841  0.00  0.00    +0.029 A 
ATOM      9  C   UNL     1      -4.993   7.641  -1.434  0.00  0.00    +0.048 A 
ATOM     10  C   UNL     1      -3.786   6.977  -1.358  0.00  0.00    +0.037 A 
ATOM     11  N   UNL     1      -5.090   8.873  -2.101  0.00  0.00    -0.285 N 
ATOM     12  C   UNL     1      -5.662   9.924  -1.501  0.00  0.00    +0.218 C 
ATOM     13  O   UNL     1      -5.912  10.916  -2.151  0.00  0.00    -0.275 OA
ATOM     14  C   UNL     1      -5.999   9.897  -0.039  0.00  0.00    +0.107 C 
ATOM     15  C   UNL     1      -7.429   9.371   0.174  0.00  0.00    +0.083 C 
ATOM     16  S   UNL     1      -7.664   7.958  -0.955  0.00  0.00    -0.123 S 
ATOM     17  H   UNL     1      -4.741   8.962  -3.001  0.00  0.00    +0.155 HD
ENDBRANCH   2   5
BRANCH   1  21
ATOM     18  C   UNL     1       2.564   3.803   0.104  0.00  0.00    +0.046 C 
ATOM     19  C   UNL     1       1.243   3.079   0.073  0.00  0.00    -0.028 A 
ATOM     20  C   UNL     1       0.063   3.796   0.074  0.00  0.00    +0.028 A 
ATOM     21  C   UNL     1      -1.155   3.129   0.047  0.00  0.00    +0.034 A 
ATOM     22  C   UNL     1      -1.186   1.741   0.012  0.00  0.00    +0.025 A 
ATOM     23  C   UNL     1      -0.006   1.024   0.017  0.00  0.00    +0.025 A 
ATOM     24  C   UNL     1       1.212   1.691   0.044  0.00  0.00    +0.033 A 
BRANCH  24  25
ATOM     25  N   UNL     1       2.408   0.965   0.043  0.00  0.00    -0.330 N 
ATOM     26  C   UNL     1       2.143  -0.496   0.067  0.00  0.00    +0.105 C 
ATOM     27  C   UNL     1       3.466  -1.105  -0.461  0.00  0.00    +0.020 C 
ATOM     28  C   UNL     1       3.900  -0.098  -1.550  0.00  0.00    +0.020 C 
ATOM     29  C   UNL     1       3.178   1.215  -1.195  0.00  0.00    +0.105 C 
ENDBRANCH  24  25
ENDBRANCH   1  21
TORSDOF 3
