REMARK  Name = ZINC57463939
REMARK  7 active torsions:
REMARK  status: ('A' for Active; 'I' for Inactive)
REMARK    1  A    between atoms: C_1  and  C_2
REMARK    2  A    between atoms: C_2  and  C_4
REMARK    3  A    between atoms: C_2  and  O_32
REMARK    4  A    between atoms: C_7  and  C_21
REMARK    5  A    between atoms: N_23  and  C_24
REMARK    6  A    between atoms: C_27  and  O_30
REMARK    7  A    between atoms: O_30  and  C_31
REMARK                            x       y       z     vdW  Elec       q    Type
REMARK                         _______ _______ _______ _____ _____    ______ ____
ROOT
ATOM      1  C   UNL     1       0.742  -0.516   1.238  0.00  0.00    +0.084 C 
ATOM      2  C   UNL     1       0.906  -2.056   1.174  0.00  0.00    +0.036 C 
ATOM      3  C   UNL     1       2.150  -2.279   2.076  0.00  0.00    +0.110 C 
ATOM      4  C   UNL     1       3.008  -1.037   1.787  0.00  0.00    +0.135 C 
ATOM      5  N   UNL     1       2.124   0.014   1.264  0.00  0.00    -0.294 NA
ATOM      6  C   UNL     1       3.725  -0.581   3.029  0.00  0.00    +0.005 A 
ATOM      7  C   UNL     1       3.294  -0.144   4.262  0.00  0.00    +0.008 A 
ATOM      8  C   UNL     1       4.215   0.214   5.231  0.00  0.00    +0.002 A 
ATOM      9  C   UNL     1       5.568   0.133   4.957  0.00  0.00    +0.022 A 
ATOM     10  C   UNL     1       6.005  -0.303   3.723  0.00  0.00    +0.062 A 
ATOM     11  C   UNL     1       5.083  -0.665   2.741  0.00  0.00    +0.057 A 
ATOM     12  N   UNL     1       5.272  -1.126   1.437  0.00  0.00    -0.282 N 
ATOM     13  C   UNL     1       4.106  -1.366   0.808  0.00  0.00    +0.243 C 
ATOM     14  O   UNL     1       3.966  -1.770  -0.327  0.00  0.00    -0.273 OA
ATOM     15 CL   UNL     1       7.706  -0.401   3.390  0.00  0.00    -0.082 Cl
ATOM     16  H   UNL     1       2.417   0.307   0.344  0.00  0.00    +0.124 HD
ATOM     17  H   UNL     1       6.143  -1.258   1.030  0.00  0.00    +0.155 HD
ENDROOT
BRANCH   3  18
ATOM     18  C   UNL     1       1.753  -2.331   3.529  0.00  0.00    +0.223 C 
ATOM     19  O   UNL     1       0.840  -1.641   3.934  0.00  0.00    -0.275 OA
ATOM     20  N   UNL     1       2.412  -3.143   4.379  0.00  0.00    -0.285 N 
ATOM     21  H   UNL     1       3.191  -3.634   4.075  0.00  0.00    +0.155 HD
BRANCH  20  22
ATOM     22  C   UNL     1       1.971  -3.279   5.702  0.00  0.00    +0.034 A 
ATOM     23  C   UNL     1       0.613  -3.240   5.989  0.00  0.00    +0.027 A 
ATOM     24  C   UNL     1       0.179  -3.374   7.293  0.00  0.00    +0.047 A 
ATOM     25  C   UNL     1       1.099  -3.547   8.316  0.00  0.00    +0.120 A 
ATOM     26  C   UNL     1       2.456  -3.586   8.031  0.00  0.00    +0.047 A 
ATOM     27  C   UNL     1       2.891  -3.458   6.726  0.00  0.00    +0.027 A 
BRANCH  25  28
ATOM     28  O   UNL     1       0.671  -3.679   9.600  0.00  0.00    -0.495 OA
ATOM     29  C   UNL     1       1.673  -3.854  10.604  0.00  0.00    +0.277 C 
ENDBRANCH  25  28
ENDBRANCH  20  22
ENDBRANCH   3  18
BRANCH   1  31
ATOM     30  C   UNL     1      -0.008   1.522   0.003  0.00  0.00    +0.039 C 
ATOM     31  C   UNL     1       0.000  -0.008   0.000  0.00  0.00    +0.128 C 
BRANCH  31  32
ATOM     32  O   UNL     1       0.659  -0.478  -1.177  0.00  0.00    -0.391 OA
ATOM     33  H   UNL     1       1.578  -0.188  -1.256  0.00  0.00    +0.210 HD
ENDBRANCH  31  32
ENDBRANCH   1  31
TORSDOF 5
