REMARK  Name = ZINC21121536
REMARK  11 active torsions:
REMARK  status: ('A' for Active; 'I' for Inactive)
REMARK    1  A    between atoms: C_1  and  C_2
REMARK    2  A    between atoms: C_2  and  N_3
REMARK    3  A    between atoms: C_12  and  S_13
REMARK    4  A    between atoms: S_13  and  C_14
REMARK    5  A    between atoms: C_14  and  C_16
REMARK    6  A    between atoms: C_14  and  C_17
REMARK    7  A    between atoms: C_17  and  C_19
REMARK    8  A    between atoms: C_20  and  N_29
REMARK    9  A    between atoms: N_21  and  C_28
REMARK   10  A    between atoms: N_24  and  C_27
REMARK   11  A    between atoms: C_31  and  C_35
REMARK                            x       y       z     vdW  Elec       q    Type
REMARK                         _______ _______ _______ _____ _____    ______ ____
ROOT
ATOM      1  S   UNL     1       0.853   3.830  -0.811  0.00  0.00    -0.076 S 
ENDROOT
BRANCH   1  11
ATOM      2  N   UNL     1       2.630   5.698  -1.642  0.00  0.00    -0.288 N 
ATOM      3  C   UNL     1       3.852   6.201  -1.896  0.00  0.00    +0.263 A 
ATOM      4  O   UNL     1       3.975   7.328  -2.345  0.00  0.00    -0.267 OA
ATOM      5  C   UNL     1       5.005   5.393  -1.638  0.00  0.00    +0.076 A 
ATOM      6  C   UNL     1       6.414   5.732  -1.842  0.00  0.00    -0.023 A 
ATOM      7  C   UNL     1       7.323   4.790  -1.519  0.00  0.00    -0.004 A 
ATOM      8  S   UNL     1       6.372   3.414  -0.932  0.00  0.00    -0.073 S 
ATOM      9  C   UNL     1       4.750   4.112  -1.123  0.00  0.00    +0.117 A 
ATOM     10  N   UNL     1       3.518   3.676  -0.889  0.00  0.00    -0.216 NA
ATOM     11  C   UNL     1       2.474   4.441  -1.135  0.00  0.00    +0.173 A 
ATOM     12  C   UNL     1       8.814   4.890  -1.632  0.00  0.00    +0.046 C 
ATOM     13  C   UNL     1       9.187   6.367  -1.825  0.00  0.00    -0.009 C 
ATOM     14  C   UNL     1       8.289   6.962  -2.913  0.00  0.00    +0.008 C 
ATOM     15  C   UNL     1       6.856   7.085  -2.395  0.00  0.00    +0.037 C 
ATOM     16  C   UNL     1      10.652   6.474  -2.252  0.00  0.00    +0.008 C 
BRANCH   2  18
ATOM     17  C   UNL     1       1.099   7.335  -0.664  0.00  0.00    +0.027 C 
ATOM     18  C   UNL     1       1.446   6.518  -1.910  0.00  0.00    +0.124 C 
ENDBRANCH   2  18
ENDBRANCH   1  11
BRANCH   1  19
ATOM     19  C   UNL     1       1.258   2.180  -0.185  0.00  0.00    +0.122 C 
ATOM     20  C   UNL     1       2.028   2.309   1.130  0.00  0.00    +0.028 C 
BRANCH  19  21
ATOM     21  C   UNL     1      -0.013   1.407   0.051  0.00  0.00    +0.185 C 
ATOM     22  O   UNL     1      -1.054   1.997   0.261  0.00  0.00    -0.291 OA
BRANCH  21  23
ATOM     23  C   UNL     1       0.004  -0.004   0.022  0.00  0.00    +0.121 A 
ATOM     24  C   UNL     1      -1.186  -0.746   0.114  0.00  0.00    +0.116 A 
ATOM     25  N   UNL     1      -1.119  -2.110   0.082  0.00  0.00    -0.284 N 
ATOM     26  C   UNL     1       0.056  -2.748  -0.035  0.00  0.00    +0.333 A 
ATOM     27  O   UNL     1       0.063  -3.963  -0.059  0.00  0.00    -0.246 OA
ATOM     28  N   UNL     1       1.225  -2.093  -0.126  0.00  0.00    -0.263 N 
ATOM     29  C   UNL     1       1.266  -0.744  -0.111  0.00  0.00    +0.269 A 
ATOM     30  O   UNL     1       2.326  -0.153  -0.200  0.00  0.00    -0.267 OA
ATOM     31  C   UNL     1       2.472  -2.852  -0.251  0.00  0.00    +0.157 C 
ATOM     32  C   UNL     1      -2.354  -2.892   0.177  0.00  0.00    +0.155 C 
BRANCH  24  33
ATOM     33  N   UNL     1      -2.386  -0.116   0.234  0.00  0.00    -0.344 N 
ATOM     34  H   UNL     1      -3.312  -0.706   0.305  0.00  0.00    +0.144 HD
ATOM     35  H   UNL     1      -2.430   0.983   0.259  0.00  0.00    +0.144 HD
ENDBRANCH  24  33
ENDBRANCH  21  23
ENDBRANCH  19  21
ENDBRANCH   1  19
TORSDOF 6
