REMARK  Name = ZINC43137086
REMARK  6 active torsions:
REMARK  status: ('A' for Active; 'I' for Inactive)
REMARK    1  A    between atoms: C_3  and  C_6
REMARK    2  A    between atoms: C_6  and  C_8
REMARK    3  A    between atoms: C_6  and  N_21
REMARK    4  A    between atoms: C_8  and  N_9
REMARK    5  A    between atoms: N_12  and  N_13
REMARK    6  A    between atoms: N_13  and  C_14
REMARK                            x       y       z     vdW  Elec       q    Type
REMARK                         _______ _______ _______ _____ _____    ______ ____
ROOT
ATOM      1  N   UNL     1       3.349  -0.922   1.882  0.00  0.00    -0.299 N 
ATOM      2  C   UNL     1       3.462  -1.324   3.163  0.00  0.00    +0.316 C 
ATOM      3  O   UNL     1       4.091  -0.652   3.958  0.00  0.00    -0.251 OA
ATOM      4  N   UNL     1       2.877  -2.470   3.565  0.00  0.00    -0.220 N 
ATOM      5  H   UNL     1       2.847  -1.458   1.248  0.00  0.00    +0.150 HD
ATOM      6  H   UNL     1       2.959  -2.759   4.487  0.00  0.00    +0.174 HD
ENDROOT
BRANCH   4   7
ATOM      7  N   UNL     1       2.152  -3.244   2.649  0.00  0.00    -0.263 N 
ATOM      8  H   UNL     1       2.071  -2.955   1.727  0.00  0.00    +0.170 HD
BRANCH   7   9
ATOM      9  C   UNL     1       1.546  -4.434   3.065  0.00  0.00    +0.045 A 
ATOM     10  C   UNL     1       1.657  -4.846   4.387  0.00  0.00    +0.027 A 
ATOM     11  C   UNL     1       1.058  -6.021   4.796  0.00  0.00    +0.040 A 
ATOM     12  C   UNL     1       0.346  -6.788   3.889  0.00  0.00    +0.124 A 
ATOM     13  C   UNL     1       0.234  -6.379   2.571  0.00  0.00    +0.040 A 
ATOM     14  C   UNL     1       0.827  -5.202   2.159  0.00  0.00    +0.027 A 
ATOM     15  F   UNL     1      -0.239  -7.937   4.291  0.00  0.00    -0.205 F 
ENDBRANCH   7   9
ENDBRANCH   4   7
BRANCH   1  16
ATOM     16  C   UNL     1       3.984   0.324   1.446  0.00  0.00    +0.098 C 
BRANCH  16  17
ATOM     17  C   UNL     1       3.617   0.600  -0.013  0.00  0.00    +0.016 C 
BRANCH  17  18
ATOM     18  N   UNL     1       3.970  -0.565  -0.836  0.00  0.00    +0.387 N 
ATOM     19  C   UNL     1       5.413  -0.814  -0.736  0.00  0.00    -0.078 C 
ATOM     20  C   UNL     1       5.773  -2.074  -1.525  0.00  0.00    -0.019 C 
ATOM     21  C   UNL     1       5.389  -1.877  -2.994  0.00  0.00    -0.004 C 
ATOM     22  C   UNL     1       3.896  -1.545  -3.081  0.00  0.00    -0.019 C 
ATOM     23  C   UNL     1       3.606  -0.304  -2.233  0.00  0.00    -0.078 C 
ATOM     24  H   UNL     1       3.467  -1.375  -0.504  0.00  0.00    -0.081 HD
ENDBRANCH  17  18
BRANCH  17  27
ATOM     25  C   UNL     1       0.160   1.847  -0.286  0.00  0.00    +0.041 A 
ATOM     26  C   UNL     1       1.554   2.068  -0.206  0.00  0.00    +0.043 A 
ATOM     27  C   UNL     1       2.136   0.859  -0.119  0.00  0.00    +0.093 A 
ATOM     28  O   UNL     1       1.175  -0.078  -0.142  0.00  0.00    -0.469 OA
ATOM     29  C   UNL     1      -0.026   0.515  -0.244  0.00  0.00    +0.195 A 
ENDBRANCH  17  27
ENDBRANCH  16  17
ENDBRANCH   1  16
TORSDOF 6
