REMARK  Name = ZINC03430651
REMARK  8 active torsions:
REMARK  status: ('A' for Active; 'I' for Inactive)
REMARK    1  A    between atoms: C_11  and  C_13
REMARK    2  A    between atoms: C_13  and  O_14
REMARK    3  A    between atoms: O_14  and  C_15
REMARK    4  A    between atoms: C_15  and  C_17
REMARK    5  A    between atoms: C_17  and  C_18
REMARK    6  A    between atoms: C_18  and  C_19
REMARK    7  A    between atoms: N_21  and  C_22
REMARK    8  A    between atoms: C_23  and  C_30
REMARK                            x       y       z     vdW  Elec       q    Type
REMARK                         _______ _______ _______ _____ _____    ______ ____
ROOT
ATOM      1  C   UNL     1      -1.332   1.955  -0.059  0.00  0.00    +0.107 C 
ENDROOT
BRANCH   1   2
ATOM      2  C   UNL     1      -0.016   1.221  -0.066  0.00  0.00    +0.218 C 
ATOM      3  O   UNL     1       0.003   0.009  -0.046  0.00  0.00    -0.275 OA
ATOM      4  N   UNL     1       1.141   1.913  -0.098  0.00  0.00    -0.279 N 
ATOM      5  H   UNL     1       1.126   2.882  -0.113  0.00  0.00    +0.155 HD
BRANCH   4   6
ATOM      6  C   UNL     1       2.352   1.238  -0.110  0.00  0.00    +0.084 A 
ATOM      7  C   UNL     1       3.631   1.766  -0.147  0.00  0.00    +0.068 A 
ATOM      8  C   UNL     1       4.752   0.827  -0.148  0.00  0.00    -0.023 A 
ATOM      9  C   UNL     1       4.408  -0.473  -0.120  0.00  0.00    -0.004 A 
ATOM     10  S   UNL     1       2.632  -0.470  -0.088  0.00  0.00    -0.077 S 
ATOM     11  C   UNL     1       5.612  -1.375  -0.125  0.00  0.00    +0.043 C 
ATOM     12  C   UNL     1       6.788  -0.458   0.277  0.00  0.00    +0.010 C 
ATOM     13  C   UNL     1       6.278   0.924  -0.179  0.00  0.00    +0.037 C 
BRANCH   7  14
ATOM     14  C   UNL     1       3.853   3.215  -0.182  0.00  0.00    +0.244 C 
ATOM     15  O   UNL     1       3.968   3.838   0.857  0.00  0.00    -0.270 OA
ATOM     16  N   UNL     1       3.931   3.857  -1.364  0.00  0.00    -0.325 N 
ATOM     17  H   UNL     1       3.839   3.361  -2.193  0.00  0.00    +0.145 HD
ATOM     18  H   UNL     1       4.078   4.816  -1.387  0.00  0.00    +0.145 HD
ENDBRANCH   7  14
ENDBRANCH   4   6
ENDBRANCH   1   2
BRANCH   1  19
ATOM     19  C   UNL     1      -2.479   0.943  -0.027  0.00  0.00    +0.130 C 
BRANCH  19  20
ATOM     20  C   UNL     1      -3.796   1.676  -0.021  0.00  0.00    +0.308 C 
ATOM     21  O   UNL     1      -3.815   2.884  -0.040  0.00  0.00    -0.251 OA
BRANCH  20  22
ATOM     22  O   UNL     1      -4.948   0.987   0.006  0.00  0.00    -0.455 OA
BRANCH  22  23
ATOM     23  C   UNL     1      -6.178   1.759   0.010  0.00  0.00    +0.328 C 
BRANCH  23  34
ATOM     24  C   UNL     1     -11.849  -1.283   0.463  0.00  0.00    +0.000 A 
ATOM     25  C   UNL     1     -10.610  -1.761   0.076  0.00  0.00    +0.002 A 
ATOM     26  C   UNL     1      -9.540  -0.895  -0.026  0.00  0.00    +0.024 A 
ATOM     27  C   UNL     1      -9.708   0.456   0.253  0.00  0.00    +0.040 A 
ATOM     28  C   UNL     1     -10.950   0.934   0.643  0.00  0.00    -0.026 A 
ATOM     29  C   UNL     1     -12.018   0.059   0.745  0.00  0.00    +0.005 A 
ATOM     30  C   UNL     1     -11.170   2.391   0.955  0.00  0.00    +0.038 C 
ATOM     31  C   UNL     1      -9.842   3.075   1.281  0.00  0.00    +0.024 C 
ATOM     32  C   UNL     1      -8.838   2.768   0.162  0.00  0.00    +0.114 C 
ATOM     33  N   UNL     1      -8.607   1.317   0.152  0.00  0.00    -0.268 N 
ATOM     34  C   UNL     1      -7.358   0.823   0.041  0.00  0.00    +0.258 C 
ATOM     35  O   UNL     1      -7.184  -0.375  -0.033  0.00  0.00    -0.272 OA
ENDBRANCH  23  34
ENDBRANCH  22  23
ENDBRANCH  20  22
ENDBRANCH  19  20
ENDBRANCH   1  19
TORSDOF 8
