REMARK  Name = ZINC62870573
REMARK  5 active torsions:
REMARK  status: ('A' for Active; 'I' for Inactive)
REMARK    1  A    between atoms: C_1  and  C_2
REMARK    2  A    between atoms: C_2  and  C_3
REMARK    3  A    between atoms: C_3  and  C_4
REMARK    4  A    between atoms: C_4  and  C_19
REMARK    5  A    between atoms: C_10  and  C_12
REMARK                            x       y       z     vdW  Elec       q    Type
REMARK                         _______ _______ _______ _____ _____    ______ ____
ROOT
ATOM      1  C   UNL     1      -0.896  -1.257  -0.072  0.00  0.00    +0.088 C 
ATOM      2  C   UNL     1      -2.400  -1.167  -0.343  0.00  0.00    +0.021 C 
ATOM      3  C   UNL     1      -3.108  -0.599   0.889  0.00  0.00    +0.020 C 
ATOM      4  C   UNL     1      -2.887  -1.538   2.079  0.00  0.00    +0.108 C 
ATOM      5  N   UNL     1      -1.443  -1.745   2.255  0.00  0.00    -0.295 N 
ATOM      6  C   UNL     1      -0.649  -2.203   1.107  0.00  0.00    +0.126 C 
ATOM      7  C   UNL     1      -0.857  -1.519   3.448  0.00  0.00    +0.263 C 
ATOM      8  O   UNL     1       0.339  -1.697   3.582  0.00  0.00    -0.268 OA
ENDROOT
BRANCH   7   9
ATOM      9  C   UNL     1      -1.662  -1.058   4.584  0.00  0.00    +0.103 A 
ATOM     10  C   UNL     1      -1.223  -0.269   5.626  0.00  0.00    +0.047 A 
ATOM     11  C   UNL     1      -2.314  -0.072   6.480  0.00  0.00    +0.036 A 
ATOM     12  C   UNL     1      -3.376  -0.731   5.956  0.00  0.00    +0.098 A 
ATOM     13  N   UNL     1      -2.994  -1.329   4.801  0.00  0.00    -0.356 N 
ATOM     14  H   UNL     1      -3.564  -1.861   4.224  0.00  0.00    +0.165 HD
ATOM     15 BR   UNL     1      -2.306   0.933   8.082  0.00  0.00    -0.049 Br
ENDBRANCH   7   9
BRANCH   1  16
ATOM     16  C   UNL     1      -0.194  -1.785  -1.297  0.00  0.00    +0.364 C 
ATOM     17  O   UNL     1       1.016  -1.935  -1.290  0.00  0.00    -0.246 OA
ATOM     18  O   UNL     1      -0.837  -2.063  -2.295  0.00  0.00    -0.246 OA
ENDBRANCH   1  16
BRANCH   1  19
ATOM     19  C   UNL     1      -0.354   0.133   0.267  0.00  0.00    +0.019 C 
BRANCH  19  21
ATOM     20  C   UNL     1       1.690   1.432   0.880  0.00  0.00    +0.004 C 
ATOM     21  C   UNL     1       1.148   0.042   0.541  0.00  0.00    -0.002 C 
ENDBRANCH  19  21
ENDBRANCH   1  19
TORSDOF 4
