REMARK  Name = ZINC23606983
REMARK  4 active torsions:
REMARK  status: ('A' for Active; 'I' for Inactive)
REMARK    1  A    between atoms: C_1  and  C_2
REMARK    2  A    between atoms: C_5  and  C_11
REMARK    3  A    between atoms: C_7  and  N_8
REMARK    4  A    between atoms: N_20  and  C_23
REMARK                            x       y       z     vdW  Elec       q    Type
REMARK                         _______ _______ _______ _____ _____    ______ ____
ROOT
ATOM      1  C   UNL     1       0.574  -4.196  -0.099  0.00  0.00    +0.250 C 
ATOM      2  O   UNL     1       0.898  -4.785   0.913  0.00  0.00    -0.270 OA
ATOM      3  N   UNL     1       0.474  -4.864  -1.265  0.00  0.00    -0.261 N 
ATOM      4  C   UNL     1       0.742  -6.226  -1.311  0.00  0.00    +0.165 A 
ATOM      5  N   UNL     1       0.702  -7.033  -2.349  0.00  0.00    -0.229 NA
ATOM      6  C   UNL     1       0.986  -8.325  -2.243  0.00  0.00    +0.056 A 
ATOM      7  C   UNL     1       1.316  -8.739  -0.991  0.00  0.00    +0.028 A 
ATOM      8  S   UNL     1       1.205  -7.245  -0.050  0.00  0.00    -0.055 S 
ATOM      9  C   UNL     1       1.677 -10.122  -0.569  0.00  0.00    +0.128 C 
ATOM     10  N   UNL     1       1.284 -11.047  -1.650  0.00  0.00    -0.300 NA
ATOM     11  C   UNL     1       1.766 -10.562  -2.951  0.00  0.00    +0.090 C 
ATOM     12  C   UNL     1       0.970  -9.329  -3.388  0.00  0.00    +0.071 C 
ATOM     13  C   UNL     1       1.770 -12.407  -1.382  0.00  0.00    +0.105 C 
ATOM     14  H   UNL     1       0.215  -4.393  -2.073  0.00  0.00    +0.157 HD
ENDROOT
BRANCH   1  19
ATOM     15  C   UNL     1      -0.538   1.447   0.089  0.00  0.00    +0.046 C 
ATOM     16  C   UNL     1      -0.247  -0.031   0.040  0.00  0.00    -0.020 A 
ATOM     17  C   UNL     1      -0.350  -0.714  -1.160  0.00  0.00    +0.006 A 
ATOM     18  C   UNL     1      -0.085  -2.066  -1.212  0.00  0.00    +0.013 A 
ATOM     19  C   UNL     1       0.288  -2.746  -0.051  0.00  0.00    +0.039 A 
ATOM     20  C   UNL     1       0.391  -2.051   1.155  0.00  0.00    +0.046 A 
ATOM     21  C   UNL     1       0.127  -0.698   1.192  0.00  0.00    +0.130 A 
BRANCH  21  22
ATOM     22  N   UNL     1       0.241   0.042   2.470  0.00  0.00    +0.057 N 
ATOM     23  O   UNL     1       0.674   1.171   2.478  0.00  0.00    -0.126 OA
ATOM     24  O   UNL     1      -0.100  -0.482   3.504  0.00  0.00    -0.126 OA
ENDBRANCH  21  22
ENDBRANCH   1  19
TORSDOF 2
