REMARK  Name = ZINC66783029
REMARK  5 active torsions:
REMARK  status: ('A' for Active; 'I' for Inactive)
REMARK    1  A    between atoms: C_8  and  C_9
REMARK    2  A    between atoms: N_11  and  N_12
REMARK    3  A    between atoms: C_13  and  C_15
REMARK    4  A    between atoms: C_15  and  C_16
REMARK    5  A    between atoms: C_16  and  C_17
REMARK                            x       y       z     vdW  Elec       q    Type
REMARK                         _______ _______ _______ _____ _____    ______ ____
ROOT
ATOM      1  C   UNL     1      -1.250  -0.777   0.011  0.00  0.00    +0.265 C 
ATOM      2  O   UNL     1      -2.318  -0.204   0.120  0.00  0.00    -0.268 OA
ATOM      3  N   UNL     1      -1.214  -2.120  -0.098  0.00  0.00    -0.230 N 
ATOM      4  H   UNL     1      -0.362  -2.583  -0.110  0.00  0.00    +0.173 HD
ENDROOT
BRANCH   1  12
ATOM      5  C   UNL     1      -0.017   1.384  -0.007  0.00  0.00    +0.031 A 
ATOM      6  C   UNL     1       1.209   2.083  -0.017  0.00  0.00    +0.037 A 
ATOM      7  C   UNL     1       2.413   1.398  -0.013  0.00  0.00    +0.030 A 
ATOM      8  N   UNL     1       2.432   0.049  -0.011  0.00  0.00    -0.325 N 
ATOM      9  H   UNL     1       3.287  -0.409  -0.016  0.00  0.00    +0.169 HD
ATOM     10  C   UNL     1       1.303  -0.678  -0.004  0.00  0.00    +0.261 A 
ATOM     11  O   UNL     1       1.360  -1.895   0.001  0.00  0.00    -0.267 OA
ATOM     12  C   UNL     1       0.002  -0.004  -0.000  0.00  0.00    +0.103 A 
ATOM     13  C   UNL     1       3.731   2.127  -0.001  0.00  0.00    +0.054 C 
ATOM     14  C   UNL     1       3.589   3.540  -0.558  0.00  0.00    +0.014 C 
ATOM     15  C   UNL     1       2.494   4.282   0.220  0.00  0.00    +0.080 C 
ATOM     16  C   UNL     1       1.191   3.555  -0.036  0.00  0.00    +0.165 C 
ATOM     17  O   UNL     1       0.165   4.166  -0.249  0.00  0.00    -0.292 OA
ENDBRANCH   1  12
BRANCH   3  18
ATOM     18  N   UNL     1      -2.408  -2.848  -0.194  0.00  0.00    -0.234 N 
ATOM     19  C   UNL     1      -2.371  -4.190  -0.304  0.00  0.00    +0.229 C 
ATOM     20  O   UNL     1      -1.306  -4.769  -0.318  0.00  0.00    -0.274 OA
ATOM     21  H   UNL     1      -3.260  -2.385  -0.182  0.00  0.00    +0.173 HD
BRANCH  19  22
ATOM     22  C   UNL     1      -3.655  -4.973  -0.407  0.00  0.00    +0.097 C 
BRANCH  22  23
ATOM     23  C   UNL     1      -3.335  -6.465  -0.520  0.00  0.00    +0.013 C 
BRANCH  23  24
ATOM     24  C   UNL     1      -4.639  -7.259  -0.625  0.00  0.00    -0.011 C 
ATOM     25  C   UNL     1      -5.432  -7.112   0.675  0.00  0.00    +0.003 C 
ATOM     26  C   UNL     1      -6.735  -7.907   0.569  0.00  0.00    +0.000 C 
ATOM     27  C   UNL     1      -6.415  -9.384   0.331  0.00  0.00    +0.000 C 
ATOM     28  C   UNL     1      -5.621  -9.530  -0.969  0.00  0.00    +0.000 C 
ATOM     29  C   UNL     1      -4.318  -8.736  -0.863  0.00  0.00    +0.003 C 
ENDBRANCH  23  24
ENDBRANCH  22  23
ENDBRANCH  19  22
ENDBRANCH   3  18
TORSDOF 5
