REMARK  Name = ZINC06477013
REMARK  8 active torsions:
REMARK  status: ('A' for Active; 'I' for Inactive)
REMARK    1  A    between atoms: C_4  and  N_9
REMARK    2  A    between atoms: C_5  and  C_6
REMARK    3  A    between atoms: C_10  and  C_12
REMARK    4  A    between atoms: C_12  and  O_13
REMARK    5  A    between atoms: O_13  and  C_14
REMARK    6  A    between atoms: C_14  and  C_16
REMARK    7  A    between atoms: C_16  and  N_17
REMARK    8  A    between atoms: C_18  and  C_20
REMARK                            x       y       z     vdW  Elec       q    Type
REMARK                         _______ _______ _______ _____ _____    ______ ____
ROOT
ATOM      1  C   UNL     1       5.012  -5.295  -0.073  0.00  0.00    +0.325 C 
ATOM      2  O   UNL     1       4.230  -6.216  -0.071  0.00  0.00    -0.249 OA
ENDROOT
BRANCH   1   3
ATOM      3  O   UNL     1       4.560  -4.031  -0.062  0.00  0.00    -0.454 OA
BRANCH   3   4
ATOM      4  C   UNL     1       3.143  -3.849  -0.048  0.00  0.00    +0.328 C 
BRANCH   4   6
ATOM      5  N   UNL     1       1.543  -1.963  -0.023  0.00  0.00    -0.277 N 
ATOM      6  C   UNL     1       2.826  -2.376  -0.037  0.00  0.00    +0.255 C 
ATOM      7  O   UNL     1       3.725  -1.562  -0.041  0.00  0.00    -0.272 OA
ATOM      8  H   UNL     1       0.824  -2.614  -0.020  0.00  0.00    +0.155 HD
BRANCH   5  12
ATOM      9  C   UNL     1      -0.018   1.441   0.010  0.00  0.00    +0.022 A 
ATOM     10  C   UNL     1       1.186   2.044   0.002  0.00  0.00    +0.048 A 
ATOM     11  S   UNL     1       2.328   0.679  -0.017  0.00  0.00    -0.081 S 
ATOM     12  C   UNL     1       1.251  -0.607  -0.013  0.00  0.00    +0.084 A 
ATOM     13  C   UNL     1       0.002  -0.004   0.002  0.00  0.00    +0.065 A 
BRANCH  13  14
ATOM     14  C   UNL     1      -1.234  -0.792   0.010  0.00  0.00    +0.244 C 
ATOM     15  O   UNL     1      -1.181  -2.008   0.003  0.00  0.00    -0.270 OA
ATOM     16  N   UNL     1      -2.430  -0.170   0.024  0.00  0.00    -0.325 N 
ATOM     17  H   UNL     1      -2.472   0.800   0.029  0.00  0.00    +0.145 HD
ATOM     18  H   UNL     1      -3.248  -0.691   0.029  0.00  0.00    +0.145 HD
ENDBRANCH  13  14
ENDBRANCH   5  12
ENDBRANCH   4   6
ENDBRANCH   3   4
ENDBRANCH   1   3
BRANCH   1  19
ATOM     19  C   UNL     1       6.495  -5.565  -0.088  0.00  0.00    +0.224 C 
BRANCH  19  20
ATOM     20  N   UNL     1       6.728  -7.011  -0.098  0.00  0.00    -0.304 N 
ATOM     21  C   UNL     1       7.987  -7.491  -0.112  0.00  0.00    +0.220 C 
ATOM     22  O   UNL     1       8.928  -6.725  -0.117  0.00  0.00    -0.275 OA
ATOM     23  H   UNL     1       5.975  -7.624  -0.095  0.00  0.00    +0.149 HD
BRANCH  21  24
ATOM     24  C   UNL     1       8.227  -8.979  -0.122  0.00  0.00    +0.048 C 
ATOM     25  C   UNL     1       7.607  -9.604   1.129  0.00  0.00    +0.019 C 
ATOM     26  C   UNL     1       7.850 -11.114   1.119  0.00  0.00    -0.009 C 
ATOM     27  C   UNL     1       9.356 -11.389   1.103  0.00  0.00    +0.007 C 
ATOM     28  C   UNL     1       9.975 -10.763  -0.148  0.00  0.00    -0.009 C 
ATOM     29  C   UNL     1       9.732  -9.253  -0.138  0.00  0.00    +0.019 C 
ATOM     30  C   UNL     1       9.333 -11.375  -1.395  0.00  0.00    +0.007 C 
ATOM     31  C   UNL     1       7.828 -11.101  -1.380  0.00  0.00    -0.009 C 
ATOM     32  C   UNL     1       7.208 -11.726  -0.128  0.00  0.00    +0.007 C 
ATOM     33  C   UNL     1       7.584  -9.590  -1.369  0.00  0.00    +0.019 C 
ENDBRANCH  21  24
ENDBRANCH  19  20
ENDBRANCH   1  19
TORSDOF 8
