REMARK  Name = ZINC39357235
REMARK  9 active torsions:
REMARK  status: ('A' for Active; 'I' for Inactive)
REMARK    1  A    between atoms: C_1  and  C_2
REMARK    2  A    between atoms: C_2  and  O_3
REMARK    3  A    between atoms: O_3  and  C_4
REMARK    4  A    between atoms: C_6  and  C_20
REMARK    5  A    between atoms: C_9  and  O_10
REMARK    6  A    between atoms: O_10  and  C_11
REMARK    7  A    between atoms: C_11  and  C_12
REMARK    8  A    between atoms: C_21  and  C_22
REMARK    9  A    between atoms: C_21  and  C_24
REMARK                            x       y       z     vdW  Elec       q    Type
REMARK                         _______ _______ _______ _____ _____    ______ ____
ROOT
ATOM      1  C   UNL     1       0.616  -2.069   1.751  0.00  0.00    +0.162 A 
ATOM      2  C   UNL     1       0.229  -2.788   0.637  0.00  0.00    +0.057 A 
ATOM      3  C   UNL     1       0.214  -4.187   0.682  0.00  0.00    -0.020 A 
ATOM      4  C   UNL     1       0.590  -4.849   1.856  0.00  0.00    +0.012 A 
ATOM      5  C   UNL     1       0.974  -4.124   2.962  0.00  0.00    +0.050 A 
ATOM      6  C   UNL     1       0.994  -2.737   2.915  0.00  0.00    +0.163 A 
ENDROOT
BRANCH   3   7
ATOM      7  C   UNL     1      -0.198  -4.958  -0.501  0.00  0.00    +0.026 C 
ATOM      8  C   UNL     1       0.425  -6.117  -0.800  0.00  0.00    +0.072 C 
BRANCH   8   9
ATOM      9  C   UNL     1      -0.100  -6.989  -1.911  0.00  0.00    +0.216 C 
ATOM     10  N   UNL     1      -0.398  -8.333  -1.400  0.00  0.00    -0.359 N 
ATOM     11  C   UNL     1       0.354  -9.174  -2.049  0.00  0.00    +0.060 A 
ATOM     12  C   UNL     1       0.505 -10.634  -1.985  0.00  0.00    +0.027 A 
ATOM     13  C   UNL     1       1.386 -11.248  -2.801  0.00  0.00    +0.002 A 
ATOM     14  C   UNL     1       2.179 -10.546  -3.726  0.00  0.00    +0.002 A 
ATOM     15  C   UNL     1       2.119  -9.206  -3.865  0.00  0.00    +0.027 A 
ATOM     16  C   UNL     1       1.193  -8.431  -3.028  0.00  0.00    +0.060 A 
ATOM     17  N   UNL     1       0.928  -7.159  -2.946  0.00  0.00    -0.359 N 
ATOM     18  H   UNL     1      -1.039  -8.553  -0.706  0.00  0.00    +0.162 HD
ATOM     19  H   UNL     1       1.334  -6.453  -3.473  0.00  0.00    +0.162 HD
ENDBRANCH   8   9
BRANCH   8  20
ATOM     20  C   UNL     1       1.584  -6.519  -0.061  0.00  0.00    +0.099 C 
ATOM     21  N   UNL     1       2.503  -6.838   0.525  0.00  0.00    -0.191 NA
ENDBRANCH   8  20
ENDBRANCH   3   7
BRANCH   1  22
ATOM     22  O   UNL     1       0.632  -0.710   1.711  0.00  0.00    -0.489 OA
BRANCH  22  24
ATOM     23  C   UNL     1       0.315   1.429   0.631  0.00  0.00    +0.048 C 
ATOM     24  C   UNL     1       0.232  -0.092   0.486  0.00  0.00    +0.226 C 
ENDBRANCH  22  24
ENDBRANCH   1  22
BRANCH   6  25
ATOM     25  O   UNL     1       1.379  -2.027   4.008  0.00  0.00    -0.479 OA
BRANCH  25  26
ATOM     26  C   UNL     1       1.754  -2.774   5.167  0.00  0.00    +0.324 C 
BRANCH  26  27
ATOM     27  C   UNL     1       2.148  -1.826   6.270  0.00  0.00    +0.253 C 
ATOM     28  O   UNL     1       2.111  -0.628   6.082  0.00  0.00    -0.272 OA
ATOM     29  N   UNL     1       2.541  -2.308   7.466  0.00  0.00    -0.294 N 
ATOM     30  C   UNL     1       2.600  -3.757   7.715  0.00  0.00    +0.136 C 
ATOM     31  C   UNL     1       3.977  -4.091   8.302  0.00  0.00    +0.179 C 
ATOM     32  O   UNL     1       4.229  -3.243   9.424  0.00  0.00    -0.377 OA
ATOM     33  C   UNL     1       4.285  -1.850   9.105  0.00  0.00    +0.179 C 
ATOM     34  C   UNL     1       2.930  -1.402   8.558  0.00  0.00    +0.136 C 
ENDBRANCH  26  27
ENDBRANCH  25  26
ENDBRANCH   6  25
TORSDOF 8
