REMARK  Name = ZINC13059202
REMARK  12 active torsions:
REMARK  status: ('A' for Active; 'I' for Inactive)
REMARK    1  A    between atoms: C_1  and  C_2
REMARK    2  A    between atoms: C_6  and  O_9
REMARK    3  A    between atoms: C_7  and  C_8
REMARK    4  A    between atoms: O_9  and  C_10
REMARK    5  A    between atoms: C_10  and  C_12
REMARK    6  A    between atoms: C_10  and  C_13
REMARK    7  A    between atoms: N_15  and  N_16
REMARK    8  A    between atoms: N_16  and  S_17
REMARK    9  A    between atoms: S_17  and  C_20
REMARK   10  A    between atoms: C_22  and  C_28
REMARK   11  A    between atoms: C_25  and  O_26
REMARK   12  A    between atoms: O_26  and  C_27
REMARK                            x       y       z     vdW  Elec       q    Type
REMARK                         _______ _______ _______ _____ _____    ______ ____
ROOT
ATOM      1  N   UNL     1       3.765   3.930   1.159  0.00  0.00    -0.108 NA
ATOM      2  H   UNL     1       3.889   4.590   1.859  0.00  0.00    +0.172 HD
ENDROOT
BRANCH   1   5
ATOM      3  C   UNL     1       5.239   2.208   1.886  0.00  0.00    +0.268 C 
ATOM      4  O   UNL     1       6.094   3.044   2.090  0.00  0.00    -0.270 OA
ATOM      5  N   UNL     1       4.032   2.579   1.414  0.00  0.00    -0.229 N 
ATOM      6  H   UNL     1       3.349   1.910   1.250  0.00  0.00    +0.171 HD
BRANCH   3   7
ATOM      7  C   UNL     1       5.527   0.754   2.160  0.00  0.00    +0.257 C 
ATOM      8  C   UNL     1       4.543   0.228   3.207  0.00  0.00    +0.062 C 
BRANCH   7   9
ATOM      9  O   UNL     1       6.862   0.617   2.650  0.00  0.00    -0.480 OA
BRANCH   9  15
ATOM     10  C   UNL     1      10.859  -2.162   3.003  0.00  0.00    +0.044 C 
ATOM     11  C   UNL     1       9.413  -1.977   2.621  0.00  0.00    -0.044 A 
ATOM     12  C   UNL     1       8.702  -3.031   2.077  0.00  0.00    +0.004 A 
ATOM     13  C   UNL     1       7.375  -2.864   1.725  0.00  0.00    +0.004 A 
ATOM     14  C   UNL     1       6.755  -1.645   1.922  0.00  0.00    +0.046 A 
ATOM     15  C   UNL     1       7.468  -0.585   2.461  0.00  0.00    +0.125 A 
ATOM     16  C   UNL     1       8.799  -0.755   2.814  0.00  0.00    -0.006 A 
ATOM     17  C   UNL     1       9.575   0.394   3.405  0.00  0.00    +0.048 C 
ENDBRANCH   9  15
ENDBRANCH   7   9
ENDBRANCH   3   7
ENDBRANCH   1   5
BRANCH   1  18
ATOM     18  S   UNL     1       3.238   4.402  -0.339  0.00  0.00    +0.077 S 
ATOM     19  O   UNL     1       4.179   3.900  -1.277  0.00  0.00    -0.152 OA
ATOM     20  O   UNL     1       2.921   5.784  -0.241  0.00  0.00    -0.152 OA
BRANCH  18  21
ATOM     21  C   UNL     1       1.722   3.558  -0.646  0.00  0.00    +0.149 A 
ATOM     22  C   UNL     1       0.550   4.272  -0.767  0.00  0.00    +0.047 A 
ATOM     23  C   UNL     1      -0.652   3.601  -1.011  0.00  0.00    +0.065 A 
ATOM     24  C   UNL     1      -0.658   2.209  -1.138  0.00  0.00    +0.019 A 
ATOM     25  C   UNL     1       0.517   1.503  -1.011  0.00  0.00    +0.048 A 
ATOM     26  C   UNL     1       1.710   2.174  -0.768  0.00  0.00    +0.146 A 
BRANCH  23  27
ATOM     27  C   UNL     1      -1.909   4.361  -1.141  0.00  0.00    +0.387 C 
ATOM     28  O   UNL     1      -1.901   5.572  -1.036  0.00  0.00    -0.241 OA
ATOM     29  O   UNL     1      -3.067   3.713  -1.377  0.00  0.00    -0.241 OA
ENDBRANCH  23  27
BRANCH  26  30
ATOM     30  O   UNL     1       2.867   1.474  -0.649  0.00  0.00    -0.493 OA
ATOM     31  C   UNL     1       2.784   0.054  -0.784  0.00  0.00    +0.277 C 
ENDBRANCH  26  30
ENDBRANCH  18  21
ENDBRANCH   1  18
TORSDOF 8
