REMARK  Name = ZINC45069852
REMARK  6 active torsions:
REMARK  status: ('A' for Active; 'I' for Inactive)
REMARK    1  A    between atoms: C_12  and  N_14
REMARK    2  A    between atoms: N_14  and  C_15
REMARK    3  A    between atoms: C_15  and  C_16
REMARK    4  A    between atoms: C_16  and  C_17
REMARK    5  A    between atoms: C_17  and  S_18
REMARK    6  A    between atoms: S_18  and  N_21
REMARK                            x       y       z     vdW  Elec       q    Type
REMARK                         _______ _______ _______ _____ _____    ______ ____
ROOT
ATOM      1  C   UNL     1      -0.017   1.379   0.010  0.00  0.00    +0.016 A 
ATOM      2  C   UNL     1       1.171   2.089   0.002  0.00  0.00    +0.006 A 
ATOM      3  C   UNL     1       2.373   1.410  -0.018  0.00  0.00    -0.020 A 
ATOM      4  C   UNL     1       2.397   0.030  -0.041  0.00  0.00    +0.123 A 
ATOM      5  C   UNL     1       1.207  -0.683  -0.022  0.00  0.00    +0.061 A 
ATOM      6  C   UNL     1       0.002  -0.004   0.002  0.00  0.00    +0.021 A 
ATOM      7 BR   UNL     1      -1.624  -0.969   0.025  0.00  0.00    -0.050 Br
ATOM      8  O   UNL     1       3.584  -0.634  -0.109  0.00  0.00    -0.492 OA
ATOM      9  C   UNL     1       4.279  -0.535  -1.356  0.00  0.00    +0.229 C 
ATOM     10  C   UNL     1       5.156   0.700  -1.391  0.00  0.00    +0.040 C 
ATOM     11  C   UNL     1       4.370   2.002  -1.353  0.00  0.00    -0.008 C 
ATOM     12  C   UNL     1       3.679   2.180  -0.001  0.00  0.00    -0.037 C 
ENDROOT
BRANCH  12  13
ATOM     13  N   UNL     1       4.544   1.660   1.066  0.00  0.00    +0.384 N 
ATOM     14  H   UNL     1       4.666   0.666   0.946  0.00  0.00    -0.085 HD
ATOM     15  H   UNL     1       5.442   2.117   1.023  0.00  0.00    -0.085 HD
BRANCH  13  16
ATOM     16  C   UNL     1       3.922   1.923   2.371  0.00  0.00    -0.080 C 
BRANCH  16  17
ATOM     17  C   UNL     1       4.823   1.382   3.483  0.00  0.00    +0.005 C 
BRANCH  17  18
ATOM     18  C   UNL     1       4.176   1.656   4.842  0.00  0.00    +0.183 C 
BRANCH  18  19
ATOM     19  S   UNL     1       5.244   1.014   6.161  0.00  0.00    +0.027 S 
ATOM     20  O   UNL     1       5.282  -0.405   6.112  0.00  0.00    -0.158 OA
ATOM     21  O   UNL     1       6.446   1.769   6.228  0.00  0.00    -0.158 OA
BRANCH  19  22
ATOM     22  N   UNL     1       4.444   1.368   7.567  0.00  0.00    -0.208 NA
ATOM     23  H   UNL     1       3.589   1.827   7.536  0.00  0.00    +0.144 HD
ATOM     24  H   UNL     1       4.829   1.116   8.421  0.00  0.00    +0.144 HD
ENDBRANCH  19  22
ENDBRANCH  18  19
ENDBRANCH  17  18
ENDBRANCH  16  17
ENDBRANCH  13  16
ENDBRANCH  12  13
TORSDOF 6
