REMARK  Name = ZINC41003447
REMARK  11 active torsions:
REMARK  status: ('A' for Active; 'I' for Inactive)
REMARK    1  A    between atoms: C_5  and  C_7
REMARK    2  A    between atoms: C_7  and  O_8
REMARK    3  A    between atoms: O_8  and  C_9
REMARK    4  A    between atoms: C_12  and  C_15
REMARK    5  A    between atoms: C_17  and  C_26
REMARK    6  A    between atoms: C_18  and  N_20
REMARK    7  A    between atoms: N_20  and  C_21
REMARK    8  A    between atoms: C_21  and  C_22
REMARK    9  A    between atoms: C_22  and  C_23
REMARK   10  A    between atoms: C_23  and  C_24
REMARK   11  A    between atoms: C_24  and  N_25
REMARK                            x       y       z     vdW  Elec       q    Type
REMARK                         _______ _______ _______ _____ _____    ______ ____
ROOT
ATOM      1  C   UNL     1      -0.772  -8.248  -0.035  0.00  0.00    +0.231 A 
ATOM      2  N   UNL     1       0.200  -9.123  -0.039  0.00  0.00    -0.196 NA
ATOM      3  C   UNL     1      -0.340 -10.371  -0.045  0.00  0.00    +0.201 A 
ATOM      4  C   UNL     1      -1.717 -10.215  -0.043  0.00  0.00    +0.225 A 
ATOM      5  O   UNL     1      -1.956  -8.890  -0.032  0.00  0.00    -0.421 OA
ENDROOT
BRANCH   1   9
ATOM      6  C   UNL     1      -0.272  -4.029  -0.017  0.00  0.00    +0.121 A 
ATOM      7  C   UNL     1       0.842  -4.859  -0.027  0.00  0.00    +0.046 A 
ATOM      8  C   UNL     1       0.684  -6.228  -0.033  0.00  0.00    +0.017 A 
ATOM      9  C   UNL     1      -0.598  -6.781  -0.028  0.00  0.00    +0.037 A 
ATOM     10  C   UNL     1      -1.716  -5.944  -0.018  0.00  0.00    +0.017 A 
ATOM     11  C   UNL     1      -1.549  -4.576  -0.007  0.00  0.00    +0.046 A 
BRANCH   6  12
ATOM     12  O   UNL     1      -0.112  -2.680  -0.011  0.00  0.00    -0.487 OA
BRANCH  12  13
ATOM     13  C   UNL     1       1.229  -2.186  -0.022  0.00  0.00    +0.266 C 
BRANCH  13  18
ATOM     14  C   UNL     1      -0.017   1.378   0.010  0.00  0.00    +0.000 A 
ATOM     15  C   UNL     1       1.171   2.086   0.002  0.00  0.00    +0.001 A 
ATOM     16  C   UNL     1       2.377   1.412  -0.013  0.00  0.00    +0.020 A 
ATOM     17  C   UNL     1       2.397   0.029  -0.021  0.00  0.00    +0.047 A 
ATOM     18  C   UNL     1       1.208  -0.679  -0.013  0.00  0.00    +0.008 A 
ATOM     19  C   UNL     1       0.002  -0.004   0.002  0.00  0.00    +0.008 A 
ATOM     20 CL   UNL     1       3.912  -0.818  -0.041  0.00  0.00    -0.083 Cl
ENDBRANCH  13  18
ENDBRANCH  12  13
ENDBRANCH   6  12
ENDBRANCH   1   9
BRANCH   4  21
ATOM     21  N   UNL     1      -2.659 -11.220  -0.048  0.00  0.00    -0.313 N 
ATOM     22  H   UNL     1      -2.378 -12.148  -0.052  0.00  0.00    +0.149 HD
BRANCH  21  23
ATOM     23  C   UNL     1      -4.086 -10.887  -0.045  0.00  0.00    +0.104 C 
BRANCH  23  24
ATOM     24  C   UNL     1      -4.911 -12.176  -0.051  0.00  0.00    +0.017 C 
BRANCH  24  25
ATOM     25  C   UNL     1      -6.401 -11.828  -0.049  0.00  0.00    -0.018 C 
BRANCH  25  26
ATOM     26  C   UNL     1      -7.225 -13.117  -0.054  0.00  0.00    -0.086 C 
BRANCH  26  27
ATOM     27  N   UNL     1      -8.656 -12.783  -0.052  0.00  0.00    +0.378 N 
ATOM     28  H   UNL     1      -9.199 -13.633  -0.056  0.00  0.00    -0.090 HD
ATOM     29  H   UNL     1      -8.875 -12.247   0.774  0.00  0.00    -0.090 HD
ATOM     30  H   UNL     1      -8.875 -12.240  -0.873  0.00  0.00    -0.090 HD
ENDBRANCH  26  27
ENDBRANCH  25  26
ENDBRANCH  24  25
ENDBRANCH  23  24
ENDBRANCH  21  23
ENDBRANCH   4  21
BRANCH   3  31
ATOM     31  C   UNL     1       0.378 -11.611  -0.051  0.00  0.00    +0.124 C 
ATOM     32  N   UNL     1       0.947 -12.594  -0.056  0.00  0.00    -0.189 NA
ENDBRANCH   3  31
TORSDOF 11
