REMARK  Name = ZINC25724691
REMARK  11 active torsions:
REMARK  status: ('A' for Active; 'I' for Inactive)
REMARK    1  A    between atoms: C_1  and  C_2
REMARK    2  A    between atoms: C_3  and  C_27
REMARK    3  A    between atoms: N_9  and  C_26
REMARK    4  A    between atoms: C_10  and  S_12
REMARK    5  A    between atoms: S_12  and  C_13
REMARK    6  A    between atoms: C_13  and  C_15
REMARK    7  A    between atoms: C_13  and  C_16
REMARK    8  A    between atoms: N_21  and  C_22
REMARK    9  A    between atoms: C_22  and  C_23
REMARK   10  A    between atoms: C_22  and  C_24
REMARK   11  A    between atoms: C_22  and  C_25
REMARK                            x       y       z     vdW  Elec       q    Type
REMARK                         _______ _______ _______ _____ _____    ______ ____
ROOT
ATOM      1  S   UNL     1       0.095  -3.592   4.753  0.00  0.00    -0.075 S 
ENDROOT
BRANCH   1  11
ATOM      2  C   UNL     1      -0.018   1.503   0.010  0.00  0.00    +0.045 C 
ATOM      3  C   UNL     1       0.002  -0.004   0.002  0.00  0.00    -0.026 A 
ATOM      4  C   UNL     1       0.006  -0.676  -1.159  0.00  0.00    -0.008 A 
ATOM      5  S   UNL     1       0.031  -2.384  -0.648  0.00  0.00    -0.073 S 
ATOM      6  C   UNL     1       0.036  -2.146   1.110  0.00  0.00    +0.117 A 
ATOM      7  C   UNL     1       0.024  -0.746   1.251  0.00  0.00    +0.075 A 
ATOM      8  C   UNL     1       0.030  -0.255   2.595  0.00  0.00    +0.263 A 
ATOM      9  O   UNL     1       0.015   0.944   2.815  0.00  0.00    -0.267 OA
ATOM     10  N   UNL     1       0.051  -1.135   3.613  0.00  0.00    -0.290 N 
ATOM     11  C   UNL     1       0.067  -2.481   3.386  0.00  0.00    +0.173 A 
ATOM     12  N   UNL     1       0.052  -2.960   2.159  0.00  0.00    -0.216 NA
ATOM     13  C   UNL     1       0.057  -0.638   4.992  0.00  0.00    +0.154 C 
ATOM     14  C   UNL     1      -0.009  -0.120  -2.559  0.00  0.00    +0.052 C 
ENDBRANCH   1  11
BRANCH   1  15
ATOM     15  C   UNL     1       0.110  -5.234   3.983  0.00  0.00    +0.137 C 
ATOM     16  C   UNL     1      -1.202  -5.455   3.226  0.00  0.00    +0.029 C 
BRANCH  15  17
ATOM     17  C   UNL     1       0.258  -6.288   5.049  0.00  0.00    +0.233 C 
ATOM     18  O   UNL     1      -0.100  -6.056   6.184  0.00  0.00    -0.274 OA
ATOM     19  N   UNL     1       0.787  -7.489   4.742  0.00  0.00    -0.239 N 
ATOM     20  C   UNL     1       0.920  -8.432   5.696  0.00  0.00    +0.306 C 
ATOM     21  O   UNL     1       0.561  -8.199   6.834  0.00  0.00    -0.252 OA
ATOM     22  N   UNL     1       1.449  -9.632   5.388  0.00  0.00    -0.294 N 
ATOM     23  H   UNL     1       1.073  -7.675   3.834  0.00  0.00    +0.159 HD
ATOM     24  H   UNL     1       1.735  -9.818   4.480  0.00  0.00    +0.151 HD
BRANCH  22  25
ATOM     25  C   UNL     1       1.593 -10.657   6.425  0.00  0.00    +0.028 C 
ATOM     26  C   UNL     1       0.217 -10.997   7.001  0.00  0.00    +0.031 C 
ATOM     27  C   UNL     1       2.216 -11.915   5.817  0.00  0.00    +0.031 C 
ATOM     28  C   UNL     1       2.497 -10.130   7.542  0.00  0.00    +0.031 C 
ENDBRANCH  22  25
ENDBRANCH  15  17
ENDBRANCH   1  15
TORSDOF 4
