REMARK  Name = ZINC41056506
REMARK  9 active torsions:
REMARK  status: ('A' for Active; 'I' for Inactive)
REMARK    1  A    between atoms: C_1  and  C_2
REMARK    2  A    between atoms: C_2  and  O_3
REMARK    3  A    between atoms: O_3  and  C_4
REMARK    4  A    between atoms: C_4  and  C_6
REMARK    5  A    between atoms: C_10  and  N_11
REMARK    6  A    between atoms: C_12  and  C_14
REMARK    7  A    between atoms: N_16  and  C_27
REMARK    8  A    between atoms: C_20  and  O_25
REMARK    9  A    between atoms: O_25  and  C_26
REMARK                            x       y       z     vdW  Elec       q    Type
REMARK                         _______ _______ _______ _____ _____    ______ ____
ROOT
ATOM      1  N   UNL     1      -3.031  -2.531   2.497  0.00  0.00    -0.275 N 
ATOM      2  C   UNL     1      -3.809  -2.866   3.545  0.00  0.00    +0.254 C 
ATOM      3  O   UNL     1      -4.950  -3.246   3.359  0.00  0.00    -0.270 OA
ATOM      4  H   UNL     1      -2.149  -2.157   2.648  0.00  0.00    +0.156 HD
ENDROOT
BRANCH   2   5
ATOM      5  C   UNL     1      -3.280  -2.773   4.914  0.00  0.00    +0.100 A 
ATOM      6  C   UNL     1      -4.025  -3.217   5.987  0.00  0.00    +0.102 A 
ATOM      7  N   UNL     1      -3.575  -3.148   7.246  0.00  0.00    -0.349 N 
ATOM      8  C   UNL     1      -2.339  -2.631   7.571  0.00  0.00    +0.053 A 
ATOM      9  C   UNL     1      -1.919  -2.583   8.898  0.00  0.00    +0.030 A 
ATOM     10  C   UNL     1      -0.683  -2.064   9.212  0.00  0.00    +0.047 A 
ATOM     11  C   UNL     1       0.160  -1.583   8.214  0.00  0.00    +0.121 A 
ATOM     12  C   UNL     1      -0.237  -1.622   6.891  0.00  0.00    +0.059 A 
ATOM     13  C   UNL     1      -1.488  -2.146   6.563  0.00  0.00    +0.049 A 
ATOM     14  C   UNL     1      -1.944  -2.209   5.162  0.00  0.00    +0.202 A 
ATOM     15  O   UNL     1      -1.244  -1.807   4.248  0.00  0.00    -0.286 OA
ATOM     16  C   UNL     1      -4.434  -3.643   8.326  0.00  0.00    +0.149 C 
BRANCH  11  17
ATOM     17  O   UNL     1       1.377  -1.074   8.542  0.00  0.00    -0.495 OA
ATOM     18  C   UNL     1       1.724  -1.064   9.928  0.00  0.00    +0.277 C 
ENDBRANCH  11  17
ENDBRANCH   2   5
BRANCH   1  23
ATOM     19  C   UNL     1      -2.835  -2.438   0.015  0.00  0.00    +0.091 A 
ATOM     20  C   UNL     1      -3.540  -2.739  -1.219  0.00  0.00    -0.021 A 
ATOM     21  C   UNL     1      -4.771  -3.262  -1.039  0.00  0.00    -0.004 A 
ATOM     22  S   UNL     1      -4.972  -3.346   0.717  0.00  0.00    -0.077 S 
ATOM     23  C   UNL     1      -3.491  -2.722   1.205  0.00  0.00    +0.087 A 
ATOM     24  C   UNL     1      -5.739  -3.673  -2.105  0.00  0.00    +0.043 C 
ATOM     25  C   UNL     1      -5.277  -3.064  -3.437  0.00  0.00    +0.005 C 
ATOM     26  C   UNL     1      -3.781  -3.336  -3.614  0.00  0.00    +0.005 C 
ATOM     27  C   UNL     1      -2.977  -2.503  -2.613  0.00  0.00    +0.037 C 
BRANCH  19  28
ATOM     28  C   UNL     1      -1.488  -1.866   0.005  0.00  0.00    +0.342 C 
ATOM     29  O   UNL     1      -0.516  -2.598  -0.003  0.00  0.00    -0.245 OA
BRANCH  28  30
ATOM     30  O   UNL     1      -1.324  -0.527   0.004  0.00  0.00    -0.461 OA
BRANCH  30  32
ATOM     31  C   UNL     1       0.004   1.492  -0.006  0.00  0.00    +0.048 C 
ATOM     32  C   UNL     1       0.019  -0.038  -0.007  0.00  0.00    +0.229 C 
ENDBRANCH  30  32
ENDBRANCH  28  30
ENDBRANCH  19  28
ENDBRANCH   1  23
TORSDOF 6
