REMARK  Name = ZINC35430583
REMARK  5 active torsions:
REMARK  status: ('A' for Active; 'I' for Inactive)
REMARK    1  A    between atoms: C_5  and  O_7
REMARK    2  A    between atoms: O_7  and  C_8
REMARK    3  A    between atoms: C_9  and  C_16
REMARK    4  A    between atoms: C_16  and  N_17
REMARK    5  A    between atoms: N_17  and  C_18
REMARK                            x       y       z     vdW  Elec       q    Type
REMARK                         _______ _______ _______ _____ _____    ______ ____
ROOT
ATOM      1  C   UNL     1       0.049  -2.697   0.091  0.00  0.00    +0.241 A 
ATOM      2  C   UNL     1      -0.106  -4.031   0.202  0.00  0.00    +0.070 A 
ATOM      3  N   UNL     1      -1.475  -4.291   0.295  0.00  0.00    -0.296 N 
ATOM      4  C   UNL     1      -2.308  -5.382   0.422  0.00  0.00    +0.100 A 
ATOM      5  C   UNL     1      -3.630  -5.227   0.480  0.00  0.00    +0.067 A 
ATOM      6  S   UNL     1      -3.800  -3.454   0.354  0.00  0.00    -0.058 S 
ATOM      7  C   UNL     1      -2.070  -3.060   0.232  0.00  0.00    +0.181 A 
ATOM      8  N   UNL     1      -1.168  -2.127   0.118  0.00  0.00    -0.186 NA
ENDROOT
BRANCH   1   9
ATOM      9  O   UNL     1       1.234  -2.039  -0.022  0.00  0.00    -0.435 OA
BRANCH   9  14
ATOM     10  C   UNL     1       0.031   1.370   0.385  0.00  0.00    +0.004 A 
ATOM     11  C   UNL     1       1.181   2.085   0.106  0.00  0.00    +0.002 A 
ATOM     12  C   UNL     1       2.350   1.420  -0.216  0.00  0.00    +0.024 A 
ATOM     13  C   UNL     1       2.371   0.038  -0.260  0.00  0.00    +0.083 A 
ATOM     14  C   UNL     1       1.217  -0.681   0.021  0.00  0.00    +0.149 A 
ATOM     15  C   UNL     1       0.046  -0.011   0.343  0.00  0.00    +0.048 A 
ATOM     16 CL   UNL     1       3.838  -0.796  -0.665  0.00  0.00    -0.080 Cl
ENDBRANCH   9  14
ENDBRANCH   1   9
BRANCH   2  17
ATOM     17  C   UNL     1       0.998  -5.057   0.221  0.00  0.00    -0.022 C 
BRANCH  17  18
ATOM     18  N   UNL     1       1.283  -5.495  -1.152  0.00  0.00    +0.385 N 
ATOM     19  H   UNL     1       0.452  -5.903  -1.554  0.00  0.00    -0.085 HD
ATOM     20  H   UNL     1       1.570  -4.702  -1.706  0.00  0.00    -0.085 HD
BRANCH  18  21
ATOM     21  C   UNL     1       2.359  -6.495  -1.133  0.00  0.00    -0.071 C 
ATOM     22  C   UNL     1       3.670  -6.135  -1.836  0.00  0.00    -0.017 C 
ATOM     23  C   UNL     1       2.725  -7.164  -2.460  0.00  0.00    -0.017 C 
ENDBRANCH  18  21
ENDBRANCH  17  18
ENDBRANCH   2  17
TORSDOF 5
