REMARK  Name = ZINC17104319
REMARK  9 active torsions:
REMARK  status: ('A' for Active; 'I' for Inactive)
REMARK    1  A    between atoms: C_1  and  C_2
REMARK    2  A    between atoms: C_2  and  C_4
REMARK    3  A    between atoms: C_2  and  O_15
REMARK    4  A    between atoms: N_6  and  C_7
REMARK    5  A    between atoms: C_8  and  C_12
REMARK    6  A    between atoms: O_15  and  C_16
REMARK    7  A    between atoms: C_16  and  C_18
REMARK    8  A    between atoms: C_24  and  C_26
REMARK    9  A    between atoms: C_27  and  C_28
REMARK                            x       y       z     vdW  Elec       q    Type
REMARK                         _______ _______ _______ _____ _____    ______ ____
ROOT
ATOM      1  C   UNL     1      -4.480   3.426  -2.147  0.00  0.00    +0.311 C 
ATOM      2  O   UNL     1      -4.956   2.580  -2.866  0.00  0.00    -0.251 OA
ENDROOT
BRANCH   1   3
ATOM      3  C   UNL     1      -3.549   3.029  -1.030  0.00  0.00    +0.101 C 
ATOM      4  C   UNL     1      -3.376   1.508  -1.027  0.00  0.00    +0.033 C 
ATOM      5  C   UNL     1      -2.457   1.106   0.130  0.00  0.00    +0.109 C 
ATOM      6  N   UNL     1      -1.199   1.856   0.018  0.00  0.00    -0.298 N 
ATOM      7  C   UNL     1      -1.256   3.321  -0.078  0.00  0.00    +0.109 C 
ATOM      8  C   UNL     1      -2.189   3.698  -1.238  0.00  0.00    +0.033 C 
ATOM      9  C   UNL     1      -0.014   1.213   0.009  0.00  0.00    +0.239 C 
ATOM     10  O   UNL     1       0.017  -0.004  -0.002  0.00  0.00    -0.271 OA
BRANCH   9  11
ATOM     11  C   UNL     1       1.234   1.978   0.006  0.00  0.00    +0.068 C 
ATOM     12  C   UNL     1       2.417   1.338   0.092  0.00  0.00    +0.013 C 
BRANCH  12  13
ATOM     13  C   UNL     1       3.672   2.107   0.089  0.00  0.00    -0.025 A 
ATOM     14  C   UNL     1       3.642   3.501  -0.009  0.00  0.00    +0.008 A 
ATOM     15  C   UNL     1       4.821   4.215  -0.006  0.00  0.00    +0.001 A 
ATOM     16  C   UNL     1       6.034   3.554   0.082  0.00  0.00    +0.000 A 
ATOM     17  C   UNL     1       6.073   2.174   0.175  0.00  0.00    +0.001 A 
ATOM     18  C   UNL     1       4.902   1.446   0.179  0.00  0.00    +0.008 A 
ENDBRANCH  12  13
ENDBRANCH   9  11
ENDBRANCH   1   3
BRANCH   1  19
ATOM     19  O   UNL     1      -4.780   4.720  -2.343  0.00  0.00    -0.452 OA
BRANCH  19  21
ATOM     20  C   UNL     1      -7.127   5.011  -2.928  0.00  0.00    +0.062 C 
ATOM     21  C   UNL     1      -5.684   5.029  -3.437  0.00  0.00    +0.259 C 
BRANCH  21  22
ATOM     22  C   UNL     1      -5.361   6.395  -3.984  0.00  0.00    +0.258 C 
ATOM     23  O   UNL     1      -4.458   7.045  -3.500  0.00  0.00    -0.271 OA
ATOM     24  N   UNL     1      -6.075   6.895  -5.012  0.00  0.00    -0.276 N 
ATOM     25  H   UNL     1      -6.797   6.376  -5.399  0.00  0.00    +0.155 HD
BRANCH  24  26
ATOM     26  C   UNL     1      -5.778   8.152  -5.515  0.00  0.00    +0.084 A 
ATOM     27  C   UNL     1      -6.390   8.830  -6.563  0.00  0.00    +0.065 A 
ATOM     28  C   UNL     1      -5.876  10.141  -6.877  0.00  0.00    +0.022 A 
ATOM     29  C   UNL     1      -4.845  10.590  -6.138  0.00  0.00    +0.048 A 
ATOM     30  S   UNL     1      -4.549   9.256  -4.996  0.00  0.00    -0.081 S 
BRANCH  27  31
ATOM     31  C   UNL     1      -7.507   8.242  -7.311  0.00  0.00    +0.244 C 
ATOM     32  O   UNL     1      -7.919   7.135  -7.018  0.00  0.00    -0.270 OA
ATOM     33  N   UNL     1      -8.076   8.928  -8.321  0.00  0.00    -0.325 N 
ATOM     34  H   UNL     1      -7.748   9.811  -8.554  0.00  0.00    +0.145 HD
ATOM     35  H   UNL     1      -8.815   8.539  -8.816  0.00  0.00    +0.145 HD
ENDBRANCH  27  31
ENDBRANCH  24  26
ENDBRANCH  21  22
ENDBRANCH  19  21
ENDBRANCH   1  19
TORSDOF 8
