REMARK  Name = ZINC04147643
REMARK  7 active torsions:
REMARK  status: ('A' for Active; 'I' for Inactive)
REMARK    1  A    between atoms: C_1  and  C_2
REMARK    2  A    between atoms: C_5  and  S_8
REMARK    3  A    between atoms: S_8  and  C_9
REMARK    4  A    between atoms: C_9  and  C_10
REMARK    5  A    between atoms: C_17  and  N_24
REMARK    6  A    between atoms: C_18  and  C_22
REMARK    7  A    between atoms: C_19  and  C_21
REMARK                            x       y       z     vdW  Elec       q    Type
REMARK                         _______ _______ _______ _____ _____    ______ ____
ROOT
ATOM      1  C   UNL     1       0.097  -6.482   1.870  0.00  0.00    +0.054 A 
ATOM      2  C   UNL     1      -0.976  -7.285   1.942  0.00  0.00    +0.045 A 
ATOM      3  C   UNL     1      -0.520  -8.616   2.060  0.00  0.00    +0.244 A 
ATOM      4  N   UNL     1       0.782  -8.598   2.060  0.00  0.00    -0.135 NA
ATOM      5  N   UNL     1       1.200  -7.263   1.936  0.00  0.00    -0.277 N 
ATOM      6  H   UNL     1       2.119  -6.955   1.905  0.00  0.00    +0.189 HD
ATOM      7  O   UNL     1      -1.378  -9.667   2.150  0.00  0.00    -0.422 OA
ATOM      8  C   UNL     1      -2.673  -9.438   1.852  0.00  0.00    +0.200 C 
ATOM      9  C   UNL     1      -3.224  -8.213   1.726  0.00  0.00    +0.094 C 
ATOM     10  C   UNL     1      -2.442  -6.937   1.911  0.00  0.00    +0.068 C 
ATOM     11  C   UNL     1      -2.723  -5.986   0.746  0.00  0.00    +0.018 C 
ENDROOT
BRANCH   8  12
ATOM     12  N   UNL     1      -3.487 -10.527   1.664  0.00  0.00    -0.328 N 
ATOM     13  H   UNL     1      -3.125 -11.423   1.747  0.00  0.00    +0.145 HD
ATOM     14  H   UNL     1      -4.424 -10.400   1.448  0.00  0.00    +0.145 HD
ENDBRANCH   8  12
BRANCH   9  15
ATOM     15  C   UNL     1      -4.615  -8.120   1.401  0.00  0.00    +0.100 C 
ATOM     16  N   UNL     1      -5.719  -8.047   1.143  0.00  0.00    -0.191 NA
ENDBRANCH   9  15
BRANCH   1  17
ATOM     17  C   UNL     1       0.077  -4.981   1.735  0.00  0.00    +0.129 C 
BRANCH  17  18
ATOM     18  S   UNL     1       0.062  -4.533  -0.023  0.00  0.00    -0.119 S 
BRANCH  18  23
ATOM     19  C   UNL     1      -0.018   1.503   0.010  0.00  0.00    +0.044 C 
ATOM     20  C   UNL     1       0.002  -0.004   0.002  0.00  0.00    -0.050 A 
ATOM     21  C   UNL     1       0.006  -0.687  -1.200  0.00  0.00    +0.004 A 
ATOM     22  C   UNL     1       0.024  -2.068  -1.212  0.00  0.00    +0.015 A 
ATOM     23  C   UNL     1       0.039  -2.771  -0.013  0.00  0.00    +0.008 A 
ATOM     24  C   UNL     1       0.036  -2.081   1.193  0.00  0.00    +0.015 A 
ATOM     25  C   UNL     1       0.023  -0.700   1.197  0.00  0.00    +0.004 A 
ENDBRANCH  18  23
ENDBRANCH  17  18
ENDBRANCH   1  17
TORSDOF 5
