REMARK  Name = ZINC34888564
REMARK  7 active torsions:
REMARK  status: ('A' for Active; 'I' for Inactive)
REMARK    1  A    between atoms: C_1  and  C_2
REMARK    2  A    between atoms: C_2  and  O_3
REMARK    3  A    between atoms: O_3  and  C_4
REMARK    4  A    between atoms: C_14  and  C_16
REMARK    5  A    between atoms: C_16  and  N_17
REMARK    6  A    between atoms: N_20  and  S_23
REMARK    7  A    between atoms: S_23  and  C_26
REMARK                            x       y       z     vdW  Elec       q    Type
REMARK                         _______ _______ _______ _____ _____    ______ ____
ROOT
ATOM      1  C   UNL     1       1.895 -10.072  -3.152  0.00  0.00    +0.181 C 
ENDROOT
BRANCH   1  12
ATOM      2  C   UNL     1       0.777  -1.811  -1.336  0.00  0.00    +0.122 A 
ATOM      3  C   UNL     1       0.244  -2.679  -0.388  0.00  0.00    +0.048 A 
ATOM      4  C   UNL     1       0.338  -4.038  -0.530  0.00  0.00    +0.032 A 
ATOM      5  C   UNL     1       0.985  -4.606  -1.652  0.00  0.00    +0.081 A 
ATOM      6  C   UNL     1       1.515  -3.696  -2.595  0.00  0.00    +0.044 A 
ATOM      7  C   UNL     1       1.412  -2.335  -2.452  0.00  0.00    +0.063 A 
ATOM      8  S   UNL     1       2.220  -4.782  -3.812  0.00  0.00    -0.052 S 
ATOM      9  C   UNL     1       1.783  -6.323  -3.019  0.00  0.00    +0.165 A 
ATOM     10  N   UNL     1       1.161  -5.915  -1.938  0.00  0.00    -0.225 NA
ATOM     11  N   UNL     1       2.035  -7.619  -3.440  0.00  0.00    -0.264 N 
ATOM     12  C   UNL     1       1.620  -8.662  -2.695  0.00  0.00    +0.233 C 
ATOM     13  O   UNL     1       1.025  -8.467  -1.656  0.00  0.00    -0.274 OA
ATOM     14  H   UNL     1       2.511  -7.775  -4.271  0.00  0.00    +0.157 HD
BRANCH   2  15
ATOM     15  O   UNL     1       0.671  -0.465  -1.174  0.00  0.00    -0.492 OA
BRANCH  15  17
ATOM     16  C   UNL     1      -0.019   1.526   0.010  0.00  0.00    +0.048 C 
ATOM     17  C   UNL     1       0.002  -0.004   0.002  0.00  0.00    +0.225 C 
ENDBRANCH  15  17
ENDBRANCH   2  15
ENDBRANCH   1  12
BRANCH   1  18
ATOM     18  N   UNL     1       1.346 -11.020  -2.174  0.00  0.00    -0.291 NA
ATOM     19  C   UNL     1       2.050 -10.918  -0.889  0.00  0.00    +0.102 C 
ATOM     20  C   UNL     1       1.335 -11.786   0.152  0.00  0.00    +0.125 C 
ATOM     21  N   UNL     1       1.212 -13.151  -0.383  0.00  0.00    -0.174 NA
ATOM     22  C   UNL     1       0.640 -13.322  -1.727  0.00  0.00    +0.125 C 
ATOM     23  C   UNL     1       1.382 -12.393  -2.694  0.00  0.00    +0.102 C 
BRANCH  21  24
ATOM     24  S   UNL     1       1.703 -14.460   0.505  0.00  0.00    +0.061 S 
ATOM     25  O   UNL     1       1.985 -15.498  -0.424  0.00  0.00    -0.153 OA
ATOM     26  O   UNL     1       2.671 -13.982   1.430  0.00  0.00    -0.153 OA
BRANCH  24  27
ATOM     27  C   UNL     1       0.319 -14.995   1.454  0.00  0.00    +0.106 A 
ATOM     28  C   UNL     1       0.103 -14.472   2.716  0.00  0.00    +0.031 A 
ATOM     29  C   UNL     1      -0.983 -14.891   3.461  0.00  0.00    +0.040 A 
ATOM     30  C   UNL     1      -1.854 -15.834   2.944  0.00  0.00    +0.124 A 
ATOM     31  C   UNL     1      -1.637 -16.357   1.681  0.00  0.00    +0.040 A 
ATOM     32  C   UNL     1      -0.553 -15.933   0.935  0.00  0.00    +0.031 A 
ATOM     33  F   UNL     1      -2.916 -16.244   3.672  0.00  0.00    -0.205 F 
ENDBRANCH  24  27
ENDBRANCH  21  24
ENDBRANCH   1  18
TORSDOF 6
