REMARK  Name = ZINC22609853
REMARK  12 active torsions:
REMARK  status: ('A' for Active; 'I' for Inactive)
REMARK    1  A    between atoms: C_1  and  C_2
REMARK    2  A    between atoms: C_2  and  C_3
REMARK    3  A    between atoms: C_5  and  C_31
REMARK    4  A    between atoms: C_7  and  C_30
REMARK    5  A    between atoms: C_8  and  C_12
REMARK    6  A    between atoms: N_14  and  N_15
REMARK    7  A    between atoms: C_16  and  C_18
REMARK    8  A    between atoms: C_18  and  C_20
REMARK    9  A    between atoms: C_18  and  O_21
REMARK   10  A    between atoms: O_21  and  C_22
REMARK   11  A    between atoms: C_26  and  C_29
REMARK   12  A    between atoms: C_27  and  C_28
REMARK                            x       y       z     vdW  Elec       q    Type
REMARK                         _______ _______ _______ _____ _____    ______ ____
ROOT
ATOM      1  C   UNL     1      -3.951   1.567  -1.474  0.00  0.00    +0.267 C 
ATOM      2  O   UNL     1      -4.690   0.900  -0.774  0.00  0.00    -0.268 OA
ATOM      3  N   UNL     1      -2.678   1.787  -1.092  0.00  0.00    -0.230 N 
ATOM      4  H   UNL     1      -2.010   2.390  -1.725  0.00  0.00    +0.173 HD
ENDROOT
BRANCH   1  10
ATOM      5  C   UNL     1      -6.172   3.952  -6.888  0.00  0.00    +0.130 A 
ATOM      6  N   UNL     1      -7.216   3.304  -6.400  0.00  0.00    -0.237 NA
ATOM      7  C   UNL     1      -7.172   2.653  -5.258  0.00  0.00    +0.050 A 
ATOM      8  C   UNL     1      -5.966   2.639  -4.514  0.00  0.00    +0.032 A 
ATOM      9  C   UNL     1      -5.685   2.014  -3.288  0.00  0.00    -0.020 A 
ATOM     10  C   UNL     1      -4.448   2.131  -2.737  0.00  0.00    +0.081 A 
ATOM     11  S   UNL     1      -3.572   3.131  -3.928  0.00  0.00    -0.064 S 
ATOM     12  C   UNL     1      -4.887   3.354  -5.096  0.00  0.00    +0.113 A 
ATOM     13  N   UNL     1      -5.020   3.979  -6.246  0.00  0.00    -0.225 NA
ATOM     14  C   UNL     1      -6.754   1.221  -2.582  0.00  0.00    +0.046 C 
ATOM     15  C   UNL     1      -8.391   1.930  -4.747  0.00  0.00    +0.066 C 
BRANCH   5  17
ATOM     16  C   UNL     1      -6.760   6.112  -7.954  0.00  0.00    +0.012 C 
ATOM     17  C   UNL     1      -6.301   4.675  -8.204  0.00  0.00    +0.073 C 
ENDBRANCH   5  17
ENDBRANCH   1  10
BRANCH   3  18
ATOM     18  N   UNL     1      -2.204   1.249   0.112  0.00  0.00    -0.231 N 
ATOM     19  C   UNL     1      -0.931   1.470   0.494  0.00  0.00    +0.270 C 
ATOM     20  O   UNL     1      -0.195   2.134  -0.204  0.00  0.00    -0.270 OA
ATOM     21  H   UNL     1      -2.872   0.647   0.746  0.00  0.00    +0.173 HD
BRANCH  19  22
ATOM     22  C   UNL     1      -0.422   0.891   1.790  0.00  0.00    +0.257 C 
ATOM     23  C   UNL     1      -1.256   1.432   2.953  0.00  0.00    +0.062 C 
BRANCH  22  24
ATOM     24  O   UNL     1       0.946   1.262   1.972  0.00  0.00    -0.480 OA
BRANCH  24  25
ATOM     25  C   UNL     1       1.695   0.475   2.788  0.00  0.00    +0.125 A 
ATOM     26  C   UNL     1       1.147  -0.675   3.339  0.00  0.00    +0.046 A 
ATOM     27  C   UNL     1       1.913  -1.476   4.163  0.00  0.00    +0.004 A 
ATOM     28  C   UNL     1       3.220  -1.128   4.450  0.00  0.00    +0.004 A 
ATOM     29  C   UNL     1       3.766   0.020   3.906  0.00  0.00    -0.044 A 
ATOM     30  C   UNL     1       3.007   0.822   3.076  0.00  0.00    -0.006 A 
ATOM     31  C   UNL     1       3.603   2.073   2.484  0.00  0.00    +0.048 C 
ATOM     32  C   UNL     1       5.191   0.397   4.219  0.00  0.00    +0.044 C 
ENDBRANCH  24  25
ENDBRANCH  22  24
ENDBRANCH  19  22
ENDBRANCH   3  18
TORSDOF 6
