REMARK  Name = ZINC23904829
REMARK  9 active torsions:
REMARK  status: ('A' for Active; 'I' for Inactive)
REMARK    1  A    between atoms: C_1  and  C_2
REMARK    2  A    between atoms: C_2  and  C_19
REMARK    3  A    between atoms: N_5  and  C_9
REMARK    4  A    between atoms: C_9  and  C_10
REMARK    5  A    between atoms: C_12  and  C_15
REMARK    6  A    between atoms: C_15  and  C_16
REMARK    7  A    between atoms: C_15  and  C_17
REMARK    8  A    between atoms: C_15  and  C_18
REMARK    9  A    between atoms: C_22  and  C_25
REMARK                            x       y       z     vdW  Elec       q    Type
REMARK                         _______ _______ _______ _____ _____    ______ ____
ROOT
ATOM      1  C   UNL     1      -2.132  -0.178  -4.536  0.00  0.00    +0.047 C 
ATOM      2  C   UNL     1      -2.582  -1.135  -3.431  0.00  0.00    +0.135 C 
ATOM      3  C   UNL     1      -2.484  -0.472  -2.072  0.00  0.00    +0.251 C 
ATOM      4  O   UNL     1      -3.078   0.514  -1.693  0.00  0.00    -0.272 OA
ATOM      5  N   UNL     1      -1.597  -1.207  -1.371  0.00  0.00    -0.215 N 
ATOM      6  C   UNL     1      -1.132  -2.235  -2.090  0.00  0.00    +0.310 C 
ATOM      7  O   UNL     1      -0.324  -3.041  -1.671  0.00  0.00    -0.252 OA
ATOM      8  N   UNL     1      -1.658  -2.278  -3.327  0.00  0.00    -0.281 N 
ATOM      9  H   UNL     1      -1.524  -2.956  -4.182  0.00  0.00    +0.152 HD
ENDROOT
BRANCH   2  10
ATOM     10  C   UNL     1      -3.989  -1.613  -3.683  0.00  0.00    -0.015 A 
ATOM     11  C   UNL     1      -5.061  -0.890  -3.189  0.00  0.00    +0.007 A 
ATOM     12  C   UNL     1      -6.351  -1.319  -3.420  0.00  0.00    +0.019 A 
ATOM     13  C   UNL     1      -6.575  -2.492  -4.144  0.00  0.00    +0.052 A 
ATOM     14  C   UNL     1      -5.489  -3.219  -4.635  0.00  0.00    +0.019 A 
ATOM     15  C   UNL     1      -4.204  -2.776  -4.402  0.00  0.00    +0.007 A 
BRANCH  13  16
ATOM     16  C   UNL     1      -7.912  -2.947  -4.382  0.00  0.00    +0.099 C 
ATOM     17  N   UNL     1      -8.972  -3.307  -4.571  0.00  0.00    -0.191 NA
ENDBRANCH  13  16
ENDBRANCH   2  10
BRANCH   5  18
ATOM     18  C   UNL     1      -1.196  -0.918   0.008  0.00  0.00    +0.216 C 
BRANCH  18  19
ATOM     19  C   UNL     1       0.002  -0.004   0.002  0.00  0.00    +0.245 A 
ATOM     20  N   UNL     1      -0.016   1.307   0.009  0.00  0.00    -0.194 NA
ATOM     21  C   UNL     1       1.274   1.687  -0.001  0.00  0.00    +0.177 A 
ATOM     22  N   UNL     1       1.998   0.607  -0.014  0.00  0.00    -0.061 NA
ATOM     23  O   UNL     1       1.286  -0.375  -0.012  0.00  0.00    -0.336 OA
BRANCH  21  24
ATOM     24  C   UNL     1       1.787   3.104   0.002  0.00  0.00    +0.025 C 
ATOM     25  C   UNL     1       1.295   3.822   1.260  0.00  0.00    +0.019 C 
ATOM     26  C   UNL     1       3.317   3.092  -0.013  0.00  0.00    +0.019 C 
ATOM     27  C   UNL     1       1.271   3.835  -1.239  0.00  0.00    +0.019 C 
ENDBRANCH  21  24
ENDBRANCH  18  19
ENDBRANCH   5  18
TORSDOF 5
