REMARK  Name = ZINC37244231
REMARK  5 active torsions:
REMARK  status: ('A' for Active; 'I' for Inactive)
REMARK    1  A    between atoms: C_2  and  N_9
REMARK    2  A    between atoms: C_10  and  C_12
REMARK    3  A    between atoms: N_14  and  C_15
REMARK    4  A    between atoms: C_15  and  C_16
REMARK    5  A    between atoms: C_16  and  N_18
REMARK                            x       y       z     vdW  Elec       q    Type
REMARK                         _______ _______ _______ _____ _____    ______ ____
ROOT
ATOM      1  N   UNL     1       1.162   3.485   0.009  0.00  0.00    -0.278 N 
ATOM      2  C   UNL     1       2.318   4.171   0.104  0.00  0.00    +0.303 C 
ATOM      3  O   UNL     1       3.377   3.580   0.091  0.00  0.00    -0.265 OA
ATOM      4  H   UNL     1       0.318   3.960  -0.048  0.00  0.00    +0.155 HD
ENDROOT
BRANCH   1   6
ATOM      5  C   UNL     1       0.154   1.373   0.602  0.00  0.00    +0.043 A 
ATOM      6  C   UNL     1       1.178   2.088  -0.006  0.00  0.00    +0.037 A 
ATOM      7  C   UNL     1       2.219   1.411  -0.630  0.00  0.00    +0.043 A 
ATOM      8  C   UNL     1       2.232   0.029  -0.644  0.00  0.00    +0.044 A 
ATOM      9  C   UNL     1       1.210  -0.681  -0.037  0.00  0.00    +0.040 A 
ATOM     10  C   UNL     1       0.173  -0.009   0.585  0.00  0.00    +0.044 A 
ATOM     11 CL   UNL     1      -1.106  -0.903   1.346  0.00  0.00    -0.083 Cl
ATOM     12 CL   UNL     1       3.531  -0.818  -1.424  0.00  0.00    -0.083 Cl
ENDBRANCH   1   6
BRANCH   2  13
ATOM     13  C   UNL     1       2.294   5.660   0.224  0.00  0.00    +0.300 C 
ATOM     14  O   UNL     1       1.235   6.251   0.237  0.00  0.00    -0.265 OA
ATOM     15  N   UNL     1       3.450   6.346   0.318  0.00  0.00    -0.302 N 
ATOM     16  H   UNL     1       4.297   5.874   0.308  0.00  0.00    +0.150 HD
BRANCH  15  17
ATOM     17  C   UNL     1       3.428   7.806   0.436  0.00  0.00    +0.163 C 
BRANCH  17  18
ATOM     18  C   UNL     1       4.840   8.325   0.525  0.00  0.00    +0.064 C 
ATOM     19  S   UNL     1       6.070   7.305   0.484  0.00  0.00    -0.039 S 
BRANCH  18  20
ATOM     20  N   UNL     1       5.065   9.649   0.641  0.00  0.00    -0.354 N 
ATOM     21  H   UNL     1       4.318  10.268   0.666  0.00  0.00    +0.143 HD
ATOM     22  H   UNL     1       5.974   9.983   0.698  0.00  0.00    +0.143 HD
ENDBRANCH  18  20
ENDBRANCH  17  18
ENDBRANCH  15  17
ENDBRANCH   2  13
TORSDOF 5
