REMARK  Name = ZINC12276229
REMARK  11 active torsions:
REMARK  status: ('A' for Active; 'I' for Inactive)
REMARK    1  A    between atoms: C_1  and  O_2
REMARK    2  A    between atoms: O_2  and  C_3
REMARK    3  A    between atoms: C_6  and  C_11
REMARK    4  A    between atoms: C_8  and  O_9
REMARK    5  A    between atoms: O_9  and  C_10
REMARK    6  A    between atoms: C_11  and  C_13
REMARK    7  A    between atoms: C_14  and  N_33
REMARK    8  A    between atoms: C_22  and  C_24
REMARK    9  A    between atoms: C_27  and  O_32
REMARK   10  A    between atoms: C_28  and  O_30
REMARK   11  A    between atoms: O_30  and  C_31
REMARK                            x       y       z     vdW  Elec       q    Type
REMARK                         _______ _______ _______ _____ _____    ______ ____
ROOT
ATOM      1  C   UNL     1      -3.735   3.147  -0.235  0.00  0.00    +0.082 A 
ATOM      2  C   UNL     1      -5.043   3.636  -0.150  0.00  0.00    +0.048 A 
ATOM      3  C   UNL     1      -6.088   2.737  -0.057  0.00  0.00    +0.010 A 
ATOM      4  C   UNL     1      -5.761   1.397  -0.058  0.00  0.00    +0.078 A 
ATOM      5  S   UNL     1      -3.997   1.380  -0.188  0.00  0.00    -0.068 S 
ATOM      6  N   UNL     1      -6.661   0.361   0.014  0.00  0.00    -0.280 N 
ATOM      7  C   UNL     1      -7.973   0.660  -0.137  0.00  0.00    +0.218 C 
ATOM      8  O   UNL     1      -8.810  -0.187   0.093  0.00  0.00    -0.275 OA
ATOM      9  C   UNL     1      -8.405   2.028  -0.586  0.00  0.00    +0.109 C 
ATOM     10  C   UNL     1      -7.560   3.128   0.054  0.00  0.00    +0.062 C 
ATOM     11  H   UNL     1      -6.367  -0.550   0.168  0.00  0.00    +0.155 HD
ENDROOT
BRANCH  10  12
ATOM     12  C   UNL     1      -7.793   4.430  -0.668  0.00  0.00    -0.036 A 
ATOM     13  C   UNL     1      -7.524   4.527  -2.021  0.00  0.00    +0.008 A 
ATOM     14  C   UNL     1      -7.737   5.719  -2.688  0.00  0.00    +0.049 A 
ATOM     15  C   UNL     1      -8.220   6.821  -2.000  0.00  0.00    +0.158 A 
ATOM     16  C   UNL     1      -8.492   6.723  -0.639  0.00  0.00    +0.162 A 
ATOM     17  C   UNL     1      -8.281   5.524   0.023  0.00  0.00    +0.053 A 
BRANCH  16  18
ATOM     18  O   UNL     1      -8.967   7.802   0.040  0.00  0.00    -0.491 OA
ATOM     19  C   UNL     1      -9.222   7.629   1.435  0.00  0.00    +0.277 C 
ENDBRANCH  16  18
BRANCH  15  20
ATOM     20  O   UNL     1      -8.430   7.994  -2.655  0.00  0.00    -0.503 OA
ATOM     21  H   UNL     1      -9.319   8.084  -3.026  0.00  0.00    +0.292 HD
ENDBRANCH  15  20
ENDBRANCH  10  12
BRANCH   2  22
ATOM     22  N   UNL     1      -5.288   5.005  -0.160  0.00  0.00    -0.357 N 
ATOM     23  H   UNL     1      -4.660   5.606  -0.590  0.00  0.00    +0.142 HD
ATOM     24  H   UNL     1      -6.086   5.358   0.264  0.00  0.00    +0.142 HD
ENDBRANCH   2  22
BRANCH   1  25
ATOM     25  C   UNL     1      -2.526   3.862  -0.337  0.00  0.00    +0.202 C 
ATOM     26  O   UNL     1      -2.527   5.078  -0.245  0.00  0.00    -0.286 OA
BRANCH  25  30
ATOM     27  C   UNL     1       1.125   1.777  -0.970  0.00  0.00    +0.162 A 
ATOM     28  C   UNL     1      -0.080   1.196  -1.343  0.00  0.00    +0.050 A 
ATOM     29  C   UNL     1      -1.265   1.872  -1.144  0.00  0.00    +0.015 A 
ATOM     30  C   UNL     1      -1.256   3.139  -0.556  0.00  0.00    +0.027 A 
ATOM     31  C   UNL     1      -0.044   3.723  -0.181  0.00  0.00    +0.061 A 
ATOM     32  C   UNL     1       1.141   3.043  -0.388  0.00  0.00    +0.162 A 
BRANCH  27  34
ATOM     33  C   UNL     1       2.201  -0.184  -1.775  0.00  0.00    +0.277 C 
ATOM     34  O   UNL     1       2.290   1.109  -1.173  0.00  0.00    -0.491 OA
ENDBRANCH  27  34
BRANCH  32  35
ATOM     35  O   UNL     1       2.322   3.610  -0.024  0.00  0.00    -0.491 OA
ATOM     36  C   UNL     1       2.264   4.909   0.567  0.00  0.00    +0.277 C 
ENDBRANCH  32  35
ENDBRANCH  25  30
ENDBRANCH   1  25
TORSDOF 8
