REMARK  Name = ZINC06108104
REMARK  8 active torsions:
REMARK  status: ('A' for Active; 'I' for Inactive)
REMARK    1  A    between atoms: C_1  and  C_2
REMARK    2  A    between atoms: C_2  and  C_20
REMARK    3  A    between atoms: N_5  and  C_9
REMARK    4  A    between atoms: C_9  and  C_10
REMARK    5  A    between atoms: N_15  and  C_16
REMARK    6  A    between atoms: C_16  and  C_17
REMARK    7  A    between atoms: C_16  and  C_18
REMARK    8  A    between atoms: C_16  and  C_19
REMARK                            x       y       z     vdW  Elec       q    Type
REMARK                         _______ _______ _______ _____ _____    ______ ____
ROOT
ATOM      1  C   UNL     1       1.711   2.588   1.258  0.00  0.00    +0.047 C 
ATOM      2  C   UNL     1       1.389   1.782  -0.002  0.00  0.00    +0.135 C 
ATOM      3  C   UNL     1       2.170   0.482  -0.016  0.00  0.00    +0.251 C 
ATOM      4  O   UNL     1       3.375   0.352  -0.029  0.00  0.00    -0.272 OA
ATOM      5  N   UNL     1       1.245  -0.498  -0.013  0.00  0.00    -0.215 N 
ATOM      6  C   UNL     1       0.002  -0.004   0.002  0.00  0.00    +0.310 C 
ATOM      7  O   UNL     1      -0.999  -0.693   0.008  0.00  0.00    -0.252 OA
ATOM      8  N   UNL     1      -0.016   1.341   0.009  0.00  0.00    -0.281 N 
ATOM      9  H   UNL     1      -0.802   1.910   0.016  0.00  0.00    +0.152 HD
ENDROOT
BRANCH   2  10
ATOM     10  C   UNL     1       1.682   2.590  -1.240  0.00  0.00    -0.015 A 
ATOM     11  C   UNL     1       2.946   2.563  -1.800  0.00  0.00    +0.006 A 
ATOM     12  C   UNL     1       3.210   3.300  -2.938  0.00  0.00    +0.004 A 
ATOM     13  C   UNL     1       2.216   4.074  -3.514  0.00  0.00    -0.044 A 
ATOM     14  C   UNL     1       0.955   4.105  -2.950  0.00  0.00    -0.044 A 
ATOM     15  C   UNL     1       0.690   3.361  -1.812  0.00  0.00    +0.010 A 
ATOM     16  C   UNL     1       0.056   5.017  -3.757  0.00  0.00    +0.036 C 
ATOM     17  C   UNL     1       0.772   5.194  -5.112  0.00  0.00    +0.009 C 
ATOM     18  C   UNL     1       2.251   4.964  -4.738  0.00  0.00    +0.036 C 
ENDBRANCH   2  10
BRANCH   5  19
ATOM     19  C   UNL     1       1.562  -1.929  -0.022  0.00  0.00    +0.214 C 
BRANCH  19  20
ATOM     20  C   UNL     1       1.658  -2.412  -1.447  0.00  0.00    +0.238 C 
ATOM     21  O   UNL     1       1.479  -1.638  -2.363  0.00  0.00    -0.274 OA
ATOM     22  N   UNL     1       1.942  -3.704  -1.702  0.00  0.00    -0.239 N 
ATOM     23  C   UNL     1       2.027  -4.137  -2.975  0.00  0.00    +0.306 C 
ATOM     24  O   UNL     1       1.848  -3.361  -3.894  0.00  0.00    -0.252 OA
ATOM     25  N   UNL     1       2.312  -5.429  -3.231  0.00  0.00    -0.294 N 
ATOM     26  H   UNL     1       2.085  -4.323  -0.969  0.00  0.00    +0.159 HD
ATOM     27  H   UNL     1       2.455  -6.048  -2.498  0.00  0.00    +0.151 HD
BRANCH  25  28
ATOM     28  C   UNL     1       2.405  -5.899  -4.615  0.00  0.00    +0.028 C 
ATOM     29  C   UNL     1       3.507  -5.128  -5.343  0.00  0.00    +0.031 C 
ATOM     30  C   UNL     1       2.736  -7.393  -4.626  0.00  0.00    +0.031 C 
ATOM     31  C   UNL     1       1.068  -5.668  -5.323  0.00  0.00    +0.031 C 
ENDBRANCH  25  28
ENDBRANCH  19  20
ENDBRANCH   5  19
TORSDOF 4
