REMARK  Name = ZINC20467954
REMARK  8 active torsions:
REMARK  status: ('A' for Active; 'I' for Inactive)
REMARK    1  A    between atoms: C_1  and  C_2
REMARK    2  A    between atoms: C_2  and  C_3
REMARK    3  A    between atoms: C_2  and  C_4
REMARK    4  A    between atoms: C_2  and  N_5
REMARK    5  A    between atoms: C_6  and  C_8
REMARK    6  A    between atoms: C_8  and  S_9
REMARK    7  A    between atoms: S_9  and  C_10
REMARK    8  A    between atoms: N_20  and  C_21
REMARK                            x       y       z     vdW  Elec       q    Type
REMARK                         _______ _______ _______ _____ _____    ______ ____
ROOT
ATOM      1  C   UNL     1       0.774  -2.895  -1.023  0.00  0.00    +0.176 A 
ATOM      2  N   UNL     1       0.957  -4.149  -0.689  0.00  0.00    -0.214 NA
ATOM      3  C   UNL     1       1.541  -4.207   0.534  0.00  0.00    +0.173 A 
ATOM      4  C   UNL     1       1.962  -5.265   1.375  0.00  0.00    +0.279 A 
ATOM      5  O   UNL     1       1.822  -6.428   1.036  0.00  0.00    -0.265 OA
ATOM      6  N   UNL     1       2.538  -4.952   2.557  0.00  0.00    -0.312 N 
ATOM      7  H   UNL     1       2.885  -5.751   3.229  0.00  0.00    +0.170 HD
ATOM      8  C   UNL     1       2.691  -3.654   2.923  0.00  0.00    +0.201 A 
ATOM      9  N   UNL     1       2.304  -2.668   2.161  0.00  0.00    -0.217 NA
ATOM     10  C   UNL     1       1.732  -2.894   0.971  0.00  0.00    +0.173 A 
ATOM     11  N   UNL     1       1.237  -2.082  -0.021  0.00  0.00    -0.272 N 
ENDROOT
BRANCH  11  12
ATOM     12  C   UNL     1       1.214  -0.680  -0.013  0.00  0.00    +0.050 A 
ATOM     13  C   UNL     1       0.002  -0.004   0.002  0.00  0.00    +0.026 A 
ATOM     14  C   UNL     1      -0.017   1.377   0.010  0.00  0.00    +0.002 A 
ATOM     15  C   UNL     1       1.171   2.086   0.002  0.00  0.00    +0.000 A 
ATOM     16  C   UNL     1       2.380   1.415  -0.013  0.00  0.00    +0.002 A 
ATOM     17  C   UNL     1       2.405   0.034  -0.021  0.00  0.00    +0.026 A 
ENDBRANCH  11  12
BRANCH   1  18
ATOM     18  S   UNL     1       0.045  -2.339  -2.528  0.00  0.00    -0.078 S 
BRANCH  18  19
ATOM     19  C   UNL     1      -0.301  -3.932  -3.316  0.00  0.00    +0.173 C 
BRANCH  19  21
ATOM     20  N   UNL     1      -1.294  -4.747  -5.429  0.00  0.00    -0.310 N 
ATOM     21  C   UNL     1      -0.946  -3.699  -4.658  0.00  0.00    +0.224 C 
ATOM     22  O   UNL     1      -1.151  -2.567  -5.043  0.00  0.00    -0.275 OA
ATOM     23  H   UNL     1      -1.108  -5.774  -5.079  0.00  0.00    +0.149 HD
BRANCH  20  25
ATOM     24  C   UNL     1      -0.975  -3.708  -7.620  0.00  0.00    +0.031 C 
ATOM     25  C   UNL     1      -1.921  -4.521  -6.734  0.00  0.00    +0.026 C 
ATOM     26  C   UNL     1      -2.214  -5.867  -7.400  0.00  0.00    +0.031 C 
ATOM     27  C   UNL     1      -3.229  -3.750  -6.544  0.00  0.00    +0.031 C 
ENDBRANCH  20  25
ENDBRANCH  19  21
ENDBRANCH  18  19
ENDBRANCH   1  18
TORSDOF 5
