REMARK  Name = ZINC08748671
REMARK  5 active torsions:
REMARK  status: ('A' for Active; 'I' for Inactive)
REMARK    1  A    between atoms: C_12  and  C_20
REMARK    2  A    between atoms: C_14  and  C_18
REMARK    3  A    between atoms: C_15  and  N_17
REMARK    4  A    between atoms: C_23  and  O_26
REMARK    5  A    between atoms: O_26  and  C_27
REMARK                            x       y       z     vdW  Elec       q    Type
REMARK                         _______ _______ _______ _____ _____    ______ ____
ROOT
ATOM      1  C   UNL     1       0.821   2.176  -0.021  0.00  0.00    +0.001 A 
ATOM      2  C   UNL     1       0.616   0.807  -0.127  0.00  0.00    +0.001 A 
ATOM      3  C   UNL     1      -0.672   0.306  -0.182  0.00  0.00    +0.016 A 
ATOM      4  C   UNL     1      -1.732   1.187  -0.137  0.00  0.00    +0.026 A 
ATOM      5  C   UNL     1      -1.546   2.575  -0.025  0.00  0.00    +0.032 A 
ATOM      6  C   UNL     1      -0.223   3.052   0.030  0.00  0.00    +0.012 A 
ATOM      7  C   UNL     1      -2.652   3.541   0.033  0.00  0.00    +0.147 A 
ATOM      8  C   UNL     1      -3.980   3.298  -0.011  0.00  0.00    +0.062 A 
ATOM      9  C   UNL     1      -4.569   2.007  -0.115  0.00  0.00    +0.225 A 
ATOM     10  O   UNL     1      -5.778   1.843  -0.146  0.00  0.00    -0.280 OA
ATOM     11  S   UNL     1      -3.421   0.647  -0.196  0.00  0.00    -0.047 S 
ATOM     12  C   UNL     1      -4.976   4.440   0.049  0.00  0.00    +0.102 C 
ATOM     13  C   UNL     1      -4.326   5.726  -0.373  0.00  0.00    +0.098 C 
ATOM     14  C   UNL     1      -2.977   5.850  -0.301  0.00  0.00    +0.199 C 
ATOM     15  O   UNL     1      -2.226   4.838   0.151  0.00  0.00    -0.440 OA
ENDROOT
BRANCH  12  16
ATOM     16  C   UNL     1      -5.488   4.580   1.459  0.00  0.00    -0.034 A 
ATOM     17  C   UNL     1      -4.609   4.862   2.488  0.00  0.00    +0.008 A 
ATOM     18  C   UNL     1      -5.077   4.997   3.781  0.00  0.00    +0.046 A 
ATOM     19  C   UNL     1      -6.429   4.838   4.048  0.00  0.00    +0.121 A 
ATOM     20  C   UNL     1      -7.308   4.550   3.015  0.00  0.00    +0.046 A 
ATOM     21  C   UNL     1      -6.836   4.421   1.723  0.00  0.00    +0.008 A 
BRANCH  19  22
ATOM     22  O   UNL     1      -6.891   4.965   5.320  0.00  0.00    -0.489 OA
BRANCH  22  23
ATOM     23  C   UNL     1      -8.271   4.667   5.541  0.00  0.00    +0.173 C 
ATOM     24  C   UNL     1      -9.130   5.922   5.281  0.00  0.00    +0.044 C 
ATOM     25  C   UNL     1     -10.242   5.850   6.359  0.00  0.00    +0.004 C 
ATOM     26  C   UNL     1      -9.485   5.307   7.596  0.00  0.00    +0.004 C 
ATOM     27  C   UNL     1      -8.496   4.276   7.012  0.00  0.00    +0.044 C 
ENDBRANCH  22  23
ENDBRANCH  19  22
ENDBRANCH  12  16
BRANCH  14  28
ATOM     28  N   UNL     1      -2.378   7.021  -0.694  0.00  0.00    -0.328 N 
ATOM     29  H   UNL     1      -1.414   7.114  -0.643  0.00  0.00    +0.145 HD
ATOM     30  H   UNL     1      -2.919   7.756  -1.022  0.00  0.00    +0.145 HD
ENDBRANCH  14  28
BRANCH  13  31
ATOM     31  C   UNL     1      -5.125   6.814  -0.850  0.00  0.00    +0.101 C 
ATOM     32  N   UNL     1      -5.760   7.678  -1.228  0.00  0.00    -0.191 NA
ENDBRANCH  13  31
TORSDOF 5
