REMARK  Name = ZINC62813894
REMARK  3 active torsions:
REMARK  status: ('A' for Active; 'I' for Inactive)
REMARK    1  A    between atoms: C_1  and  C_2
REMARK    2  A    between atoms: C_6  and  C_10
REMARK    3  A    between atoms: N_12  and  C_13
REMARK                            x       y       z     vdW  Elec       q    Type
REMARK                         _______ _______ _______ _____ _____    ______ ____
ROOT
ATOM      1  C   UNL     1      -0.647  -4.011   1.161  0.00  0.00    +0.232 C 
ATOM      2  O   UNL     1      -0.845  -4.597   0.118  0.00  0.00    -0.274 OA
ATOM      3  N   UNL     1      -0.402  -4.707   2.289  0.00  0.00    -0.284 N 
ATOM      4  H   UNL     1      -0.177  -4.239   3.108  0.00  0.00    +0.155 HD
ENDROOT
BRANCH   3   5
ATOM      5  C   UNL     1      -0.472  -6.106   2.278  0.00  0.00    +0.037 A 
ATOM      6  C   UNL     1      -0.947  -6.786   3.392  0.00  0.00    +0.027 A 
ATOM      7  C   UNL     1      -1.017  -8.166   3.382  0.00  0.00    +0.051 A 
ATOM      8  C   UNL     1      -0.613  -8.875   2.262  0.00  0.00    +0.173 A 
ATOM      9  C   UNL     1      -0.136  -8.195   1.144  0.00  0.00    +0.174 A 
ATOM     10  C   UNL     1      -0.071  -6.812   1.152  0.00  0.00    +0.073 A 
ATOM     11  O   UNL     1       0.195  -9.110   0.186  0.00  0.00    -0.395 OA
ATOM     12  C   UNL     1       0.300 -10.369   0.876  0.00  0.00    +0.589 C 
ATOM     13  O   UNL     1      -0.582 -10.216   2.004  0.00  0.00    -0.395 OA
ATOM     14  F   UNL     1      -0.130 -11.417   0.055  0.00  0.00    -0.125 F 
ATOM     15  F   UNL     1       1.614 -10.586   1.305  0.00  0.00    -0.125 F 
ENDBRANCH   3   5
BRANCH   1  20
ATOM     16  C   UNL     1       0.004   1.521   0.001  0.00  0.00    -0.012 C 
ATOM     17  C   UNL     1       0.017  -0.009  -0.005  0.00  0.00    -0.061 C 
ATOM     18  C   UNL     1      -1.422  -0.531   0.013  0.00  0.00    +0.065 C 
ATOM     19  N   UNL     1      -1.407  -2.000   0.026  0.00  0.00    -0.309 NA
ATOM     20  C   UNL     1      -0.674  -2.505   1.196  0.00  0.00    +0.123 C 
ATOM     21  C   UNL     1       0.758  -1.967   1.168  0.00  0.00    -0.054 C 
ATOM     22  N   UNL     1       0.730  -0.498   1.182  0.00  0.00    +0.383 N 
ATOM     23  H   UNL     1      -2.345  -2.372  -0.001  0.00  0.00    +0.123 HD
ATOM     24  H   UNL     1       1.675  -0.144   1.175  0.00  0.00    -0.085 HD
ATOM     25  H   UNL     1       0.257  -0.179   2.014  0.00  0.00    -0.085 HD
ENDBRANCH   1  20
TORSDOF 2
