REMARK  Name = ZINC57159215
REMARK  6 active torsions:
REMARK  status: ('A' for Active; 'I' for Inactive)
REMARK    1  A    between atoms: C_1  and  C_2
REMARK    2  A    between atoms: C_2  and  C_3
REMARK    3  A    between atoms: C_2  and  N_4
REMARK    4  A    between atoms: C_5  and  C_7
REMARK    5  A    between atoms: C_7  and  N_8
REMARK    6  A    between atoms: N_16  and  C_17
REMARK                            x       y       z     vdW  Elec       q    Type
REMARK                         _______ _______ _______ _____ _____    ______ ____
ROOT
ATOM      1  N   UNL     1      -3.088  -3.600  -1.065  0.00  0.00    -0.291 NA
ATOM      2  C   UNL     1      -2.348  -4.559  -0.234  0.00  0.00    +0.104 C 
ATOM      3  C   UNL     1      -2.248  -5.898  -0.971  0.00  0.00    +0.124 C 
ATOM      4  N   UNL     1      -3.604  -6.323  -1.353  0.00  0.00    -0.283 N 
ATOM      5  C   UNL     1      -4.458  -5.364  -2.070  0.00  0.00    +0.124 C 
ATOM      6  C   UNL     1      -4.470  -4.045  -1.290  0.00  0.00    +0.104 C 
ATOM      7  C   UNL     1      -4.052  -7.558  -1.054  0.00  0.00    +0.303 C 
ATOM      8  O   UNL     1      -3.304  -8.369  -0.543  0.00  0.00    -0.253 OA
ATOM      9  N   UNL     1      -5.329  -7.895  -1.322  0.00  0.00    -0.294 N 
ATOM     10  H   UNL     1      -5.905  -7.275  -1.795  0.00  0.00    +0.151 HD
ENDROOT
BRANCH   9  11
ATOM     11  C   UNL     1      -5.847  -9.198  -0.898  0.00  0.00    +0.037 C 
ATOM     12  C   UNL     1      -5.026 -10.311  -1.553  0.00  0.00    +0.029 C 
ATOM     13  C   UNL     1      -5.567 -11.672  -1.110  0.00  0.00    -0.008 C 
ATOM     14  C   UNL     1      -7.032 -11.801  -1.535  0.00  0.00    +0.007 C 
ATOM     15  C   UNL     1      -7.852 -10.689  -0.880  0.00  0.00    -0.008 C 
ATOM     16  C   UNL     1      -7.311  -9.328  -1.322  0.00  0.00    +0.029 C 
ATOM     17  C   UNL     1      -7.750 -10.808   0.642  0.00  0.00    +0.007 C 
ATOM     18  C   UNL     1      -6.286 -10.679   1.067  0.00  0.00    -0.008 C 
ATOM     19  C   UNL     1      -5.465 -11.791   0.411  0.00  0.00    +0.007 C 
ATOM     20  C   UNL     1      -5.745  -9.318   0.624  0.00  0.00    +0.029 C 
ENDBRANCH   9  11
BRANCH   1  21
ATOM     21  C   UNL     1      -3.057  -2.256  -0.472  0.00  0.00    +0.180 C 
BRANCH  21  23
ATOM     22  N   UNL     1      -1.373  -0.511   0.015  0.00  0.00    -0.312 N 
ATOM     23  C   UNL     1      -1.643  -1.734  -0.483  0.00  0.00    +0.227 C 
ATOM     24  O   UNL     1      -0.749  -2.415  -0.940  0.00  0.00    -0.274 OA
ATOM     25  H   UNL     1      -2.088   0.033   0.380  0.00  0.00    +0.149 HD
BRANCH  22  27
ATOM     26  C   UNL     1      -0.019   1.526   0.013  0.00  0.00    +0.027 C 
ATOM     27  C   UNL     1       0.002  -0.004   0.004  0.00  0.00    +0.067 C 
ATOM     28  C   UNL     1       0.742  -0.511   1.243  0.00  0.00    +0.027 C 
ENDBRANCH  22  27
ENDBRANCH  21  23
ENDBRANCH   1  21
TORSDOF 4
