REMARK  Name = ZINC39938630
REMARK  8 active torsions:
REMARK  status: ('A' for Active; 'I' for Inactive)
REMARK    1  A    between atoms: C_1  and  C_2
REMARK    2  A    between atoms: C_6  and  N_12
REMARK    3  A    between atoms: C_9  and  C_11
REMARK    4  A    between atoms: C_13  and  C_15
REMARK    5  A    between atoms: C_15  and  S_16
REMARK    6  A    between atoms: S_16  and  C_17
REMARK    7  A    between atoms: N_22  and  C_23
REMARK    8  A    between atoms: C_23  and  C_24
REMARK                            x       y       z     vdW  Elec       q    Type
REMARK                         _______ _______ _______ _____ _____    ______ ____
ROOT
ATOM      1  S   UNL     1      -6.565  -5.381   2.800  0.00  0.00    -0.109 S 
ENDROOT
BRANCH   1   2
ATOM      2  C   UNL     1      -7.206  -5.563   4.488  0.00  0.00    +0.236 C 
ATOM      3  N   UNL     1      -7.629  -4.258   5.024  0.00  0.00    -0.259 N 
ATOM      4  N   UNL     1      -6.829  -4.021   6.148  0.00  0.00    -0.283 N 
ATOM      5  C   UNL     1      -6.003  -4.989   6.352  0.00  0.00    +0.179 C 
ATOM      6  N   UNL     1      -6.136  -5.995   5.403  0.00  0.00    -0.271 N 
ATOM      7  N   UNL     1      -5.088  -5.023   7.396  0.00  0.00    -0.299 N 
ATOM      8  C   UNL     1      -3.735  -5.568   7.200  0.00  0.00    +0.136 C 
ATOM      9  C   UNL     1      -2.721  -4.548   7.730  0.00  0.00    +0.179 C 
ATOM     10  O   UNL     1      -3.072  -4.186   9.067  0.00  0.00    -0.377 OA
ATOM     11  C   UNL     1      -4.345  -3.545   9.185  0.00  0.00    +0.179 C 
ATOM     12  C   UNL     1      -5.440  -4.509   8.729  0.00  0.00    +0.136 C 
ATOM     13  H   UNL     1      -8.322  -3.679   4.669  0.00  0.00    +0.169 HD
ATOM     14  H   UNL     1      -6.890  -3.228   6.704  0.00  0.00    +0.187 HD
BRANCH   6  15
ATOM     15  C   UNL     1      -5.367  -7.239   5.326  0.00  0.00    +0.145 C 
BRANCH  15  16
ATOM     16  C   UNL     1      -6.133  -8.346   6.004  0.00  0.00    -0.030 A 
ATOM     17  C   UNL     1      -6.033  -8.518   7.372  0.00  0.00    +0.005 A 
ATOM     18  C   UNL     1      -6.736  -9.534   7.994  0.00  0.00    +0.000 A 
ATOM     19  C   UNL     1      -7.538 -10.376   7.247  0.00  0.00    +0.000 A 
ATOM     20  C   UNL     1      -7.638 -10.204   5.879  0.00  0.00    +0.000 A 
ATOM     21  C   UNL     1      -6.939  -9.185   5.258  0.00  0.00    +0.005 A 
ENDBRANCH  15  16
ENDBRANCH   6  15
ENDBRANCH   1   2
BRANCH   1  22
ATOM     22  C   UNL     1      -5.228  -4.166   2.968  0.00  0.00    +0.168 C 
BRANCH  22  24
ATOM     23  N   UNL     1      -3.580  -3.049   1.500  0.00  0.00    -0.285 N 
ATOM     24  C   UNL     1      -4.601  -3.920   1.620  0.00  0.00    +0.225 C 
ATOM     25  O   UNL     1      -5.016  -4.507   0.642  0.00  0.00    -0.275 OA
ATOM     26  H   UNL     1      -3.249  -2.580   2.282  0.00  0.00    +0.151 HD
BRANCH  23  31
ATOM     27  C   UNL     1       0.518   0.240  -0.635  0.00  0.00    +0.030 C 
ATOM     28  C   UNL     1       0.383  -1.278  -0.494  0.00  0.00    +0.099 C 
ATOM     29  C   UNL     1      -1.073  -1.649  -0.418  0.00  0.00    -0.011 C 
ATOM     30  C   UNL     1      -1.487  -2.692   0.324  0.00  0.00    +0.065 C 
ATOM     31  C   UNL     1      -2.971  -2.810   0.189  0.00  0.00    +0.243 C 
ATOM     32  O   UNL     1      -3.417  -1.544  -0.346  0.00  0.00    -0.347 OA
ATOM     33  C   UNL     1      -2.275  -1.034  -1.067  0.00  0.00    +0.146 C 
ATOM     34  C   UNL     1      -2.350  -1.447  -2.538  0.00  0.00    +0.043 C 
ATOM     35  C   UNL     1      -0.511  -3.479   1.094  0.00  0.00    +0.258 C 
ATOM     36  O   UNL     1      -0.817  -4.512   1.659  0.00  0.00    -0.269 OA
ATOM     37  N   UNL     1       0.750  -2.982   1.135  0.00  0.00    -0.247 N 
ATOM     38  N   UNL     1       1.053  -1.720   0.736  0.00  0.00    -0.233 NA
ATOM     39  H   UNL     1       1.465  -3.551   1.461  0.00  0.00    +0.169 HD
ATOM     40  H   UNL     1       0.905  -1.060   1.485  0.00  0.00    +0.145 HD
ENDBRANCH  23  31
ENDBRANCH  22  24
ENDBRANCH   1  22
TORSDOF 6
