REMARK  Name = ZINC63856489
REMARK  4 active torsions:
REMARK  status: ('A' for Active; 'I' for Inactive)
REMARK    1  A    between atoms: C_3  and  C_7
REMARK    2  A    between atoms: N_10  and  C_13
REMARK    3  A    between atoms: C_13  and  C_14
REMARK    4  A    between atoms: C_20  and  C_22
REMARK                            x       y       z     vdW  Elec       q    Type
REMARK                         _______ _______ _______ _____ _____    ______ ____
ROOT
ATOM      1  C   UNL     1       8.083   1.716   1.805  0.00  0.00    +0.005 C 
ATOM      2  C   UNL     1       8.357   0.936   0.518  0.00  0.00    +0.024 C 
ATOM      3  C   UNL     1       9.826   1.114   0.121  0.00  0.00    +0.108 C 
ATOM      4  N   UNL     1      10.674   0.723   1.255  0.00  0.00    -0.298 N 
ATOM      5  C   UNL     1      10.434   1.347   2.564  0.00  0.00    +0.108 C 
ATOM      6  C   UNL     1       8.958   1.167   2.933  0.00  0.00    +0.024 C 
ATOM      7  C   UNL     1      11.652  -0.191   1.099  0.00  0.00    +0.247 C 
ATOM      8  O   UNL     1      12.279  -0.581   2.065  0.00  0.00    -0.270 OA
ENDROOT
BRANCH   7   9
ATOM      9  C   UNL     1      11.961  -0.718  -0.243  0.00  0.00    +0.037 C 
ATOM     10  C   UNL     1      12.665   0.062  -1.155  0.00  0.00    +0.019 C 
ATOM     11  C   UNL     1      12.950  -0.568  -2.379  0.00  0.00    -0.017 C 
ATOM     12  C   UNL     1      13.108  -0.097  -3.627  0.00  0.00    +0.025 C 
ATOM     13  C   UNL     1      13.103  -1.226  -4.556  0.00  0.00    +0.106 C 
ATOM     14  N   UNL     1      13.068  -2.359  -3.918  0.00  0.00    -0.279 NA
ATOM     15  C   UNL     1      13.104  -2.074  -2.494  0.00  0.00    +0.158 C 
ATOM     16  C   UNL     1      12.022  -2.716  -1.681  0.00  0.00    +0.005 C 
ATOM     17  C   UNL     1      11.533  -2.072  -0.622  0.00  0.00    +0.011 C 
ENDBRANCH   7   9
BRANCH   1  18
ATOM     18  C   UNL     1       6.608   1.569   2.186  0.00  0.00    +0.072 C 
BRANCH  18  21
ATOM     19  C   UNL     1       4.469   4.034   0.517  0.00  0.00    +0.085 C 
ATOM     20  C   UNL     1       5.798   3.653   1.216  0.00  0.00    +0.091 C 
ATOM     21  N   UNL     1       5.770   2.167   1.139  0.00  0.00    -0.334 NA
ATOM     22  N   UNL     1       4.363   1.812   1.327  0.00  0.00    +0.400 N 
ATOM     23  N   UNL     1       3.541   2.956   0.933  0.00  0.00    -0.342 NA
ATOM     24  H   UNL     1       4.133   1.017   0.750  0.00  0.00    -0.033 HD
ATOM     25  H   UNL     1       2.954   3.258   1.696  0.00  0.00    +0.104 HD
ATOM     26  H   UNL     1       4.195   1.588   2.296  0.00  0.00    -0.033 HD
BRANCH  19  29
ATOM     27  C   UNL     1       3.679   7.719   0.708  0.00  0.00    +0.020 A 
ATOM     28  C   UNL     1       4.147   6.507   0.222  0.00  0.00    +0.008 A 
ATOM     29  C   UNL     1       3.978   5.374   1.002  0.00  0.00    -0.013 A 
ATOM     30  C   UNL     1       3.354   5.488   2.230  0.00  0.00    +0.115 A 
ATOM     31  N   UNL     1       2.921   6.657   2.660  0.00  0.00    -0.263 NA
ATOM     32  C   UNL     1       3.065   7.756   1.945  0.00  0.00    +0.111 A 
ENDBRANCH  19  29
ENDBRANCH  18  21
ENDBRANCH   1  18
TORSDOF 4
