REMARK  Name = ZINC08947092
REMARK  9 active torsions:
REMARK  status: ('A' for Active; 'I' for Inactive)
REMARK    1  A    between atoms: C_1  and  C_2
REMARK    2  A    between atoms: C_2  and  C_26
REMARK    3  A    between atoms: N_5  and  C_9
REMARK    4  A    between atoms: C_9  and  C_10
REMARK    5  A    between atoms: N_15  and  C_16
REMARK    6  A    between atoms: C_29  and  C_32
REMARK    7  A    between atoms: C_32  and  C_33
REMARK    8  A    between atoms: C_32  and  C_34
REMARK    9  A    between atoms: C_32  and  C_35
REMARK                            x       y       z     vdW  Elec       q    Type
REMARK                         _______ _______ _______ _____ _____    ______ ____
ROOT
ATOM      1  C   UNL     1       1.283  -4.791  -0.782  0.00  0.00    +0.047 C 
ATOM      2  C   UNL     1       0.060  -4.275  -0.021  0.00  0.00    +0.135 C 
ATOM      3  C   UNL     1      -1.218  -4.823  -0.626  0.00  0.00    +0.251 C 
ATOM      4  O   UNL     1      -1.629  -4.647  -1.753  0.00  0.00    -0.272 OA
ATOM      5  N   UNL     1      -1.803  -5.544   0.350  0.00  0.00    -0.215 N 
ATOM      6  C   UNL     1      -1.080  -5.529   1.476  0.00  0.00    +0.310 C 
ATOM      7  O   UNL     1      -1.403  -6.108   2.495  0.00  0.00    -0.252 OA
ATOM      8  N   UNL     1       0.045  -4.801   1.355  0.00  0.00    -0.281 N 
ATOM      9  H   UNL     1       0.715  -4.652   2.039  0.00  0.00    +0.152 HD
ENDROOT
BRANCH   2  10
ATOM     10  C   UNL     1       0.039  -2.768  -0.013  0.00  0.00    -0.015 A 
ATOM     11  C   UNL     1       0.638  -2.075   1.022  0.00  0.00    +0.006 A 
ATOM     12  C   UNL     1       0.620  -0.693   1.029  0.00  0.00    +0.004 A 
ATOM     13  C   UNL     1       0.002  -0.004   0.002  0.00  0.00    -0.042 A 
ATOM     14  C   UNL     1      -0.602  -0.698  -1.030  0.00  0.00    +0.004 A 
ATOM     15  C   UNL     1      -0.579  -2.080  -1.040  0.00  0.00    +0.006 A 
BRANCH  13  16
ATOM     16  C   UNL     1      -0.018   1.503   0.010  0.00  0.00    -0.013 C 
ATOM     17  C   UNL     1       1.417   2.032  -0.001  0.00  0.00    +0.015 C 
ATOM     18  C   UNL     1      -0.758   2.010  -1.229  0.00  0.00    +0.015 C 
ATOM     19  C   UNL     1      -0.735   1.996   1.269  0.00  0.00    +0.015 C 
ENDBRANCH  13  16
ENDBRANCH   2  10
BRANCH   5  20
ATOM     20  C   UNL     1      -3.074  -6.257   0.198  0.00  0.00    +0.214 C 
BRANCH  20  21
ATOM     21  C   UNL     1      -4.210  -5.344   0.581  0.00  0.00    +0.238 C 
ATOM     22  O   UNL     1      -3.981  -4.210   0.945  0.00  0.00    -0.274 OA
ATOM     23  N   UNL     1      -5.481  -5.788   0.519  0.00  0.00    -0.239 N 
ATOM     24  C   UNL     1      -6.498  -4.971   0.861  0.00  0.00    +0.306 C 
ATOM     25  O   UNL     1      -6.268  -3.835   1.226  0.00  0.00    -0.252 OA
ATOM     26  N   UNL     1      -7.769  -5.415   0.799  0.00  0.00    -0.294 N 
ATOM     27  H   UNL     1      -5.665  -6.695   0.228  0.00  0.00    +0.159 HD
ATOM     28  H   UNL     1      -7.952  -6.322   0.508  0.00  0.00    +0.151 HD
BRANCH  26  29
ATOM     29  C   UNL     1      -8.874  -4.528   1.171  0.00  0.00    +0.037 C 
ATOM     30  C   UNL     1      -8.867  -3.297   0.263  0.00  0.00    +0.029 C 
ATOM     31  C   UNL     1     -10.021  -2.370   0.651  0.00  0.00    -0.008 C 
ATOM     32  C   UNL     1     -11.348  -3.114   0.493  0.00  0.00    +0.007 C 
ATOM     33  C   UNL     1     -11.355  -4.345   1.401  0.00  0.00    -0.008 C 
ATOM     34  C   UNL     1     -10.201  -5.272   1.012  0.00  0.00    +0.029 C 
ATOM     35  C   UNL     1     -11.188  -3.906   2.857  0.00  0.00    +0.007 C 
ATOM     36  C   UNL     1      -9.860  -3.162   3.016  0.00  0.00    -0.008 C 
ATOM     37  C   UNL     1      -9.854  -1.931   2.107  0.00  0.00    +0.007 C 
ATOM     38  C   UNL     1      -8.707  -4.088   2.627  0.00  0.00    +0.029 C 
ENDBRANCH  26  29
ENDBRANCH  20  21
ENDBRANCH   5  20
TORSDOF 5
