REMARK  Name = ZINC39560911
REMARK  11 active torsions:
REMARK  status: ('A' for Active; 'I' for Inactive)
REMARK    1  A    between atoms: C_1  and  C_2
REMARK    2  A    between atoms: C_2  and  C_3
REMARK    3  A    between atoms: C_2  and  C_4
REMARK    4  A    between atoms: C_7  and  C_10
REMARK    5  A    between atoms: C_13  and  N_35
REMARK    6  A    between atoms: C_19  and  C_31
REMARK    7  A    between atoms: C_31  and  O_33
REMARK    8  A    between atoms: O_33  and  C_34
REMARK    9  A    between atoms: N_35  and  C_36
REMARK   10  A    between atoms: C_36  and  C_37
REMARK   11  A    between atoms: C_37  and  O_38
REMARK                            x       y       z     vdW  Elec       q    Type
REMARK                         _______ _______ _______ _____ _____    ______ ____
ROOT
ATOM      1  C   UNL     1      -5.918  -2.387  -0.250  0.00  0.00    +0.087 C 
ATOM      2  C   UNL     1      -6.145  -3.892  -0.080  0.00  0.00    +0.008 C 
ATOM      3  C   UNL     1      -7.593  -4.233  -0.443  0.00  0.00    -0.068 C 
ATOM      4  C   UNL     1      -7.879  -3.771  -1.875  0.00  0.00    +0.009 C 
ATOM      5  C   UNL     1      -7.608  -2.269  -1.979  0.00  0.00    +0.106 C 
ATOM      6  N   UNL     1      -6.201  -2.006  -1.639  0.00  0.00    -0.274 NA
ATOM      7  C   UNL     1      -5.820  -0.616  -1.907  0.00  0.00    +0.172 C 
ATOM      8  C   UNL     1      -5.711  -0.387  -3.422  0.00  0.00    +0.067 C 
ATOM      9  C   UNL     1      -6.965  -0.928  -4.063  0.00  0.00    -0.017 C 
ATOM     10  C   UNL     1      -7.466  -0.716  -5.289  0.00  0.00    -0.013 C 
ATOM     11  C   UNL     1      -6.959   0.121  -6.429  0.00  0.00    +0.064 C 
ATOM     12  C   UNL     1      -7.904   0.021  -7.593  0.00  0.00    -0.022 C 
ATOM     13  C   UNL     1      -9.018  -0.703  -7.607  0.00  0.00    -0.002 C 
ATOM     14  C   UNL     1      -9.460  -1.478  -6.514  0.00  0.00    +0.028 C 
ATOM     15  C   UNL     1      -8.674  -1.474  -5.363  0.00  0.00    +0.068 C 
ATOM     16  N   UNL     1      -8.842  -2.103  -4.191  0.00  0.00    -0.250 NA
ATOM     17  C   UNL     1      -7.865  -1.801  -3.389  0.00  0.00    +0.063 C 
ENDROOT
BRANCH   1  21
ATOM     18  C   UNL     1      -1.858  -1.447   0.689  0.00  0.00    -0.045 A 
ATOM     19  C   UNL     1      -2.853  -1.224   1.622  0.00  0.00    +0.004 A 
ATOM     20  C   UNL     1      -4.167  -1.528   1.319  0.00  0.00    +0.005 A 
ATOM     21  C   UNL     1      -4.486  -2.055   0.081  0.00  0.00    -0.030 A 
ATOM     22  C   UNL     1      -3.491  -2.277  -0.853  0.00  0.00    +0.005 A 
ATOM     23  C   UNL     1      -2.178  -1.969  -0.551  0.00  0.00    +0.004 A 
BRANCH  18  25
ATOM     24  C   UNL     1      -0.309   0.376   1.343  0.00  0.00    +0.012 C 
ATOM     25  C   UNL     1      -0.426  -1.115   1.020  0.00  0.00    +0.013 C 
ATOM     26  C   UNL     1       0.021  -1.936   2.231  0.00  0.00    +0.012 C 
ENDBRANCH  18  25
ENDBRANCH   1  21
BRANCH   3  27
ATOM     27  N   UNL     1      -7.793  -5.685  -0.345  0.00  0.00    +0.382 N 
ATOM     28  H   UNL     1      -8.722  -5.918  -0.663  0.00  0.00    -0.085 HD
ATOM     29  H   UNL     1      -7.113  -6.158  -0.921  0.00  0.00    -0.085 HD
BRANCH  27  30
ATOM     30  C   UNL     1      -7.633  -6.109   1.052  0.00  0.00    -0.054 C 
BRANCH  30  31
ATOM     31  C   UNL     1      -7.841  -7.621   1.153  0.00  0.00    +0.137 C 
BRANCH  31  32
ATOM     32  O   UNL     1      -6.807  -8.294   0.432  0.00  0.00    -0.397 OA
ATOM     33  H   UNL     1      -6.877  -9.259   0.454  0.00  0.00    +0.209 HD
ENDBRANCH  31  32
ENDBRANCH  30  31
ENDBRANCH  27  30
ENDBRANCH   3  27
BRANCH   7  34
ATOM     34  C   UNL     1      -6.865   0.309  -1.337  0.00  0.00    +0.325 C 
ATOM     35  O   UNL     1      -8.035   0.107  -1.558  0.00  0.00    -0.249 OA
BRANCH  34  36
ATOM     36  O   UNL     1      -6.495   1.356  -0.584  0.00  0.00    -0.467 OA
ATOM     37  C   UNL     1      -7.538   2.191  -0.076  0.00  0.00    +0.280 C 
ENDBRANCH  34  36
ENDBRANCH   7  34
TORSDOF 8
