REMARK  Name = ZINC06193149
REMARK  14 active torsions:
REMARK  status: ('A' for Active; 'I' for Inactive)
REMARK    1  A    between atoms: C_1  and  C_2
REMARK    2  A    between atoms: C_2  and  N_70
REMARK    3  A    between atoms: C_3  and  C_4
REMARK    4  A    between atoms: C_3  and  N_70
REMARK    5  A    between atoms: C_5  and  C_6
REMARK    6  A    between atoms: C_5  and  N_70
REMARK    7  A    between atoms: C_6  and  C_7
REMARK    8  A    between atoms: C_7  and  N_8
REMARK    9  A    between atoms: N_8  and  C_9
REMARK   10  A    between atoms: C_9  and  N_11
REMARK   11  A    between atoms: N_11  and  C_12
REMARK   12  A    between atoms: N_11  and  C_29
REMARK   13  A    between atoms: C_12  and  C_13
REMARK   14  A    between atoms: C_29  and  C_30
REMARK                            x       y       z     vdW  Elec       q    Type
REMARK                         _______ _______ _______ _____ _____    ______ ____
ROOT
ATOM      1  N   UNL     1      -7.873   1.607  -2.257  0.00  0.00    -0.306 N 
ENDROOT
BRANCH   1   2
ATOM      2  C   UNL     1      -8.380   0.857  -3.256  0.00  0.00    +0.133 C 
ATOM      3  S   UNL     1      -9.263  -0.564  -2.896  0.00  0.00    -0.019 S 
BRANCH   2   4
ATOM      4  N   UNL     1      -8.190   1.226  -4.538  0.00  0.00    -0.326 N 
ATOM      5  H   UNL     1      -7.690   2.031  -4.742  0.00  0.00    +0.148 HD
BRANCH   4   6
ATOM      6  C   UNL     1      -8.741   0.411  -5.624  0.00  0.00    +0.101 C 
BRANCH   6   7
ATOM      7  C   UNL     1      -8.386   1.047  -6.969  0.00  0.00    +0.000 C 
BRANCH   7   8
ATOM      8  C   UNL     1      -8.961   0.196  -8.103  0.00  0.00    -0.077 C 
BRANCH   8   9
ATOM      9  N   UNL     1      -8.628   0.834  -9.394  0.00  0.00    +0.379 N 
ATOM     10  H   UNL     1      -8.916   1.819  -9.364  0.00  0.00    -0.082 HD
BRANCH   9  12
ATOM     11  C   UNL     1      -6.707  -0.688  -9.715  0.00  0.00    -0.017 C 
ATOM     12  C   UNL     1      -7.170   0.768  -9.629  0.00  0.00    -0.082 C 
ENDBRANCH   9  12
BRANCH   9  13
ATOM     13  C   UNL     1      -9.348   0.157 -10.493  0.00  0.00    -0.082 C 
ATOM     14  C   UNL     1      -9.211   0.997 -11.764  0.00  0.00    -0.017 C 
ENDBRANCH   9  13
ENDBRANCH   8   9
ENDBRANCH   7   8
ENDBRANCH   6   7
ENDBRANCH   4   6
ENDBRANCH   2   4
ENDBRANCH   1   2
BRANCH   1  15
ATOM     15  C   UNL     1      -7.989   1.153  -0.869  0.00  0.00    +0.147 C 
BRANCH  15  16
ATOM     16  C   UNL     1      -9.214   1.767  -0.240  0.00  0.00    +0.035 A 
ATOM     17  C   UNL     1     -10.379   1.071  -0.210  0.00  0.00    +0.020 A 
ATOM     18  C   UNL     1     -11.550   1.695   0.405  0.00  0.00    +0.003 A 
ATOM     19  C   UNL     1     -12.780   1.027   0.460  0.00  0.00    +0.059 A 
ATOM     20  C   UNL     1     -13.866   1.640   1.047  0.00  0.00    +0.163 A 
ATOM     21  C   UNL     1     -13.745   2.925   1.583  0.00  0.00    +0.164 A 
ATOM     22  C   UNL     1     -12.534   3.594   1.530  0.00  0.00    +0.075 A 
ATOM     23  C   UNL     1     -11.430   2.990   0.944  0.00  0.00    +0.053 A 
ATOM     24  N   UNL     1     -10.215   3.643   0.882  0.00  0.00    -0.322 N 
ATOM     25  H   UNL     1     -10.130   4.562   1.266  0.00  0.00    +0.169 HD
ATOM     26  C   UNL     1      -9.145   3.061   0.313  0.00  0.00    +0.254 A 
ATOM     27  O   UNL     1      -8.088   3.668   0.275  0.00  0.00    -0.268 OA
ATOM     28  O   UNL     1     -14.812   3.537   2.165  0.00  0.00    -0.485 OA
ATOM     29  C   UNL     1     -16.104   2.997   1.869  0.00  0.00    +0.270 C 
ATOM     30  C   UNL     1     -16.032   1.471   2.015  0.00  0.00    +0.270 C 
ATOM     31  O   UNL     1     -15.056   0.977   1.092  0.00  0.00    -0.485 OA
ENDBRANCH  15  16
ENDBRANCH   1  15
BRANCH   1  32
ATOM     32  C   UNL     1      -7.206   2.876  -2.559  0.00  0.00    +0.138 C 
BRANCH  32  33
ATOM     33  C   UNL     1      -5.744   2.609  -2.922  0.00  0.00    +0.136 C 
ATOM     34  C   UNL     1      -5.042   3.934  -3.275  0.00  0.00    +0.035 C 
ATOM     35  C   UNL     1      -3.870   4.023  -2.268  0.00  0.00    +0.031 C 
ATOM     36  C   UNL     1      -3.699   2.544  -1.837  0.00  0.00    +0.160 C 
ATOM     37  O   UNL     1      -5.054   2.048  -1.792  0.00  0.00    -0.375 OA
ENDBRANCH  32  33
ENDBRANCH   1  32
TORSDOF 12
