REMARK  Name = ZINC32960887
REMARK  11 active torsions:
REMARK  status: ('A' for Active; 'I' for Inactive)
REMARK    1  A    between atoms: C_1  and  N_2
REMARK    2  A    between atoms: N_2  and  C_3
REMARK    3  A    between atoms: N_2  and  C_4
REMARK    4  A    between atoms: C_4  and  C_6
REMARK    5  A    between atoms: C_4  and  C_31
REMARK    6  A    between atoms: C_6  and  N_7
REMARK    7  A    between atoms: C_8  and  C_10
REMARK    8  A    between atoms: N_20  and  S_21
REMARK    9  A    between atoms: S_21  and  C_24
REMARK   10  A    between atoms: C_34  and  O_37
REMARK   11  A    between atoms: O_37  and  C_38
REMARK                            x       y       z     vdW  Elec       q    Type
REMARK                         _______ _______ _______ _____ _____    ______ ____
ROOT
ATOM      1  C   UNL     1       2.334  -6.849  -0.974  0.00  0.00    +0.170 C 
ATOM      2  C   UNL     1       3.262  -6.573   0.208  0.00  0.00    +0.065 C 
ATOM      3  C   UNL     1       4.222  -7.715   0.414  0.00  0.00    -0.041 A 
ATOM      4  C   UNL     1       4.835  -7.825   1.656  0.00  0.00    +0.004 A 
ATOM      5  C   UNL     1       5.733  -8.841   1.907  0.00  0.00    +0.000 A 
ATOM      6  C   UNL     1       6.028  -9.760   0.917  0.00  0.00    +0.000 A 
ATOM      7  C   UNL     1       5.417  -9.655  -0.316  0.00  0.00    +0.005 A 
ATOM      8  C   UNL     1       4.511  -8.635  -0.569  0.00  0.00    -0.028 A 
ATOM      9  C   UNL     1       3.872  -8.584  -1.935  0.00  0.00    +0.145 C 
ATOM     10  N   UNL     1       3.161  -7.312  -2.100  0.00  0.00    -0.160 NA
ENDROOT
BRANCH   1  12
ATOM     11  N   UNL     1       0.284  -5.615  -1.602  0.00  0.00    -0.315 N 
ATOM     12  C   UNL     1       1.609  -5.585  -1.359  0.00  0.00    +0.232 C 
ATOM     13  O   UNL     1       2.219  -4.540  -1.450  0.00  0.00    -0.274 OA
ATOM     14  H   UNL     1      -0.269  -6.563  -1.519  0.00  0.00    +0.149 HD
BRANCH  11  15
ATOM     15  C   UNL     1      -0.421  -4.387  -1.976  0.00  0.00    +0.093 C 
BRANCH  15  16
ATOM     16  C   UNL     1      -1.921  -4.669  -2.075  0.00  0.00    -0.021 C 
BRANCH  16  17
ATOM     17  C   UNL     1      -2.651  -3.395  -2.415  0.00  0.00    -0.059 A 
ATOM     18  C   UNL     1      -3.163  -3.210  -3.686  0.00  0.00    +0.005 A 
ATOM     19  C   UNL     1      -3.832  -2.043  -3.999  0.00  0.00    +0.046 A 
ATOM     20  C   UNL     1      -3.990  -1.056  -3.038  0.00  0.00    +0.120 A 
ATOM     21  C   UNL     1      -3.470  -1.241  -1.765  0.00  0.00    +0.046 A 
ATOM     22  C   UNL     1      -2.807  -2.412  -1.454  0.00  0.00    +0.005 A 
BRANCH  20  23
ATOM     23  O   UNL     1      -4.648   0.093  -3.344  0.00  0.00    -0.495 OA
ATOM     24  C   UNL     1      -4.773   1.066  -2.304  0.00  0.00    +0.277 C 
ENDBRANCH  20  23
ENDBRANCH  16  17
BRANCH  16  26
ATOM     25  C   UNL     1      -1.621  -4.644   0.327  0.00  0.00    -0.096 C 
ATOM     26  N   UNL     1      -2.408  -5.184  -0.789  0.00  0.00    +0.382 N 
ATOM     27  C   UNL     1      -3.838  -4.895  -0.614  0.00  0.00    -0.096 C 
ATOM     28  H   UNL     1      -2.283  -6.277  -0.793  0.00  0.00    -0.082 HD
ENDBRANCH  16  26
ENDBRANCH  15  16
ENDBRANCH  11  15
ENDBRANCH   1  12
BRANCH  10  29
ATOM     29  S   UNL     1       3.282  -6.433  -3.498  0.00  0.00    +0.062 S 
ATOM     30  O   UNL     1       3.550  -7.362  -4.540  0.00  0.00    -0.153 OA
ATOM     31  O   UNL     1       2.163  -5.559  -3.527  0.00  0.00    -0.153 OA
BRANCH  29  32
ATOM     32  C   UNL     1       4.713  -5.415  -3.351  0.00  0.00    +0.106 A 
ATOM     33  C   UNL     1       4.606  -4.147  -2.811  0.00  0.00    +0.030 A 
ATOM     34  C   UNL     1       5.728  -3.350  -2.690  0.00  0.00    +0.022 A 
ATOM     35  C   UNL     1       6.958  -3.817  -3.119  0.00  0.00    +0.041 A 
ATOM     36  C   UNL     1       7.063  -5.084  -3.665  0.00  0.00    +0.022 A 
ATOM     37  C   UNL     1       5.941  -5.883  -3.780  0.00  0.00    +0.030 A 
ATOM     38 CL   UNL     1       8.367  -2.814  -2.973  0.00  0.00    -0.084 Cl
ENDBRANCH  29  32
ENDBRANCH  10  29
TORSDOF 8
