REMARK  Name = ZINC00747191
REMARK  5 active torsions:
REMARK  status: ('A' for Active; 'I' for Inactive)
REMARK    1  A    between atoms: N_9  and  C_11
REMARK    2  A    between atoms: C_14  and  N_25
REMARK    3  A    between atoms: C_16  and  C_17
REMARK    4  A    between atoms: C_26  and  C_28
REMARK    5  A    between atoms: C_32  and  N_34
REMARK                            x       y       z     vdW  Elec       q    Type
REMARK                         _______ _______ _______ _____ _____    ______ ____
ROOT
ATOM      1  C   UNL     1       5.849  -0.626   1.730  0.00  0.00    +0.042 A 
ATOM      2  C   UNL     1       7.011   0.100   1.500  0.00  0.00    +0.026 A 
ATOM      3  C   UNL     1       6.959   1.473   1.386  0.00  0.00    +0.025 A 
ATOM      4  C   UNL     1       5.743   2.142   1.495  0.00  0.00    +0.035 A 
ATOM      5  C   UNL     1       4.576   1.433   1.719  0.00  0.00    +0.038 A 
ATOM      6  C   UNL     1       4.620   0.042   1.836  0.00  0.00    +0.060 A 
ENDROOT
BRANCH   1  15
ATOM      7  C   UNL     1       7.526  -6.742   2.077  0.00  0.00    +0.000 A 
ATOM      8  C   UNL     1       8.431  -6.080   1.268  0.00  0.00    +0.000 A 
ATOM      9  C   UNL     1       8.320  -4.717   1.084  0.00  0.00    +0.005 A 
ATOM     10  C   UNL     1       7.305  -4.005   1.706  0.00  0.00    -0.027 A 
ATOM     11  C   UNL     1       6.401  -4.666   2.510  0.00  0.00    -0.041 A 
ATOM     12  C   UNL     1       6.514  -6.036   2.696  0.00  0.00    +0.004 A 
ATOM     13  C   UNL     1       5.277  -3.937   3.202  0.00  0.00    +0.054 C 
ATOM     14  C   UNL     1       5.561  -2.435   3.217  0.00  0.00    +0.110 C 
ATOM     15  N   UNL     1       5.904  -2.010   1.851  0.00  0.00    -0.325 N 
ATOM     16  C   UNL     1       7.228  -2.518   1.479  0.00  0.00    +0.140 C 
ENDBRANCH   1  15
BRANCH   6  17
ATOM     17  C   UNL     1       3.380  -0.721   2.075  0.00  0.00    +0.248 C 
ATOM     18  O   UNL     1       3.091  -1.654   1.351  0.00  0.00    -0.270 OA
ATOM     19  N   UNL     1       2.568  -0.384   3.096  0.00  0.00    -0.297 N 
ATOM     20  C   UNL     1       1.274  -1.055   3.276  0.00  0.00    +0.108 C 
ATOM     21  C   UNL     1       0.174   0.008   3.360  0.00  0.00    +0.019 C 
ATOM     22  C   UNL     1       0.522   1.010   4.464  0.00  0.00    +0.003 C 
ATOM     23  C   UNL     1       1.842   1.706   4.126  0.00  0.00    +0.019 C 
ATOM     24  C   UNL     1       2.961   0.662   4.051  0.00  0.00    +0.108 C 
ENDBRANCH   6  17
BRANCH   4  25
ATOM     25  N   UNL     1       5.701   3.537   1.378  0.00  0.00    -0.281 N 
ATOM     26  C   UNL     1       4.652   4.132   0.776  0.00  0.00    +0.248 C 
ATOM     27  O   UNL     1       3.703   3.465   0.411  0.00  0.00    -0.270 OA
ATOM     28  H   UNL     1       6.525   4.148   1.776  0.00  0.00    +0.155 HD
BRANCH  26  29
ATOM     29  C   UNL     1       4.655   5.594   0.559  0.00  0.00    +0.039 A 
ATOM     30  C   UNL     1       5.743   6.362   0.977  0.00  0.00    +0.013 A 
ATOM     31  C   UNL     1       5.740   7.726   0.771  0.00  0.00    +0.003 A 
ATOM     32  C   UNL     1       4.661   8.333   0.152  0.00  0.00    +0.033 A 
ATOM     33  C   UNL     1       3.580   7.577  -0.264  0.00  0.00    +0.127 A 
ATOM     34  C   UNL     1       3.572   6.212  -0.069  0.00  0.00    +0.045 A 
BRANCH  33  35
ATOM     35  N   UNL     1       2.430   8.235  -0.926  0.00  0.00    +0.056 N 
ATOM     36  O   UNL     1       2.438   9.440  -1.103  0.00  0.00    -0.126 OA
ATOM     37  O   UNL     1       1.477   7.571  -1.292  0.00  0.00    -0.126 OA
ENDBRANCH  33  35
ENDBRANCH  26  29
ENDBRANCH   4  25
TORSDOF 5
