REMARK  Name = ZINC37562781
REMARK  6 active torsions:
REMARK  status: ('A' for Active; 'I' for Inactive)
REMARK    1  A    between atoms: C_1  and  C_2
REMARK    2  A    between atoms: C_2  and  C_4
REMARK    3  A    between atoms: C_2  and  N_11
REMARK    4  A    between atoms: N_11  and  C_12
REMARK    5  A    between atoms: C_12  and  C_13
REMARK    6  A    between atoms: C_15  and  N_18
REMARK                            x       y       z     vdW  Elec       q    Type
REMARK                         _______ _______ _______ _____ _____    ______ ____
ROOT
ATOM      1  N   UNL     1       0.713  -0.491   1.192  0.00  0.00    +0.386 N 
ATOM      2  H   UNL     1       0.290  -0.099   2.020  0.00  0.00    -0.085 HD
ATOM      3  H   UNL     1       0.655  -1.497   1.230  0.00  0.00    -0.085 HD
ENDROOT
BRANCH   1   5
ATOM      4  C   UNL     1      -0.019   1.526   0.010  0.00  0.00    -0.009 C 
ATOM      5  C   UNL     1       0.002  -0.004   0.002  0.00  0.00    -0.043 C 
BRANCH   5   6
ATOM      6  C   UNL     1      -1.412  -0.526   0.013  0.00  0.00    -0.048 A 
ATOM      7  C   UNL     1      -2.015  -0.864   1.210  0.00  0.00    +0.003 A 
ATOM      8  C   UNL     1      -3.312  -1.342   1.220  0.00  0.00    +0.000 A 
ATOM      9  C   UNL     1      -4.006  -1.482   0.033  0.00  0.00    +0.001 A 
ATOM     10  C   UNL     1      -3.404  -1.144  -1.165  0.00  0.00    +0.015 A 
ATOM     11  C   UNL     1      -2.108  -0.661  -1.175  0.00  0.00    +0.019 A 
ATOM     12 BR   UNL     1      -1.286  -0.192  -2.812  0.00  0.00    -0.050 Br
ENDBRANCH   5   6
ENDBRANCH   1   5
BRANCH   1  13
ATOM     13  C   UNL     1       2.122  -0.083   1.122  0.00  0.00    -0.045 C 
BRANCH  13  14
ATOM     14  C   UNL     1       2.851  -0.582   2.343  0.00  0.00    -0.055 A 
ATOM     15  C   UNL     1       2.921   0.195   3.484  0.00  0.00    +0.042 A 
ATOM     16  C   UNL     1       3.584  -0.284   4.565  0.00  0.00    +0.164 A 
ATOM     17  S   UNL     1       4.137  -1.879   3.983  0.00  0.00    -0.073 S 
ATOM     18  C   UNL     1       3.442  -1.801   2.340  0.00  0.00    +0.049 A 
BRANCH  16  19
ATOM     19  N   UNL     1       3.796   0.351   5.886  0.00  0.00    +0.063 N 
ATOM     20  O   UNL     1       3.344   1.450   6.107  0.00  0.00    -0.126 OA
ATOM     21  O   UNL     1       4.420  -0.230   6.743  0.00  0.00    -0.126 OA
ENDBRANCH  16  19
ENDBRANCH  13  14
ENDBRANCH   1  13
TORSDOF 5
