REMARK  Name = ZINC03251707
REMARK  5 active torsions:
REMARK  status: ('A' for Active; 'I' for Inactive)
REMARK    1  A    between atoms: C_3  and  C_20
REMARK    2  A    between atoms: C_5  and  C_11
REMARK    3  A    between atoms: C_16  and  N_17
REMARK    4  A    between atoms: N_22  and  C_23
REMARK    5  A    between atoms: C_28  and  C_29
REMARK                            x       y       z     vdW  Elec       q    Type
REMARK                         _______ _______ _______ _____ _____    ______ ____
ROOT
ATOM      1  C   UNL     1       2.925   2.778   3.419  0.00  0.00    +0.029 C 
ATOM      2  C   UNL     1       3.369   3.147   2.233  0.00  0.00    +0.016 C 
ATOM      3  C   UNL     1       4.248   2.236   1.399  0.00  0.00    +0.143 C 
ATOM      4  C   UNL     1       3.665   2.202  -0.020  0.00  0.00    +0.122 C 
ATOM      5  N   UNL     1       3.427   3.569  -0.481  0.00  0.00    -0.318 N 
ATOM      6  C   UNL     1       3.104   4.564   0.356  0.00  0.00    +0.135 C 
ATOM      7  S   UNL     1       2.747   6.107  -0.295  0.00  0.00    -0.019 S 
ATOM      8  N   UNL     1       3.049   4.396   1.690  0.00  0.00    -0.300 N 
ATOM      9  H   UNL     1       3.506   3.763  -1.428  0.00  0.00    +0.148 HD
ATOM     10  H   UNL     1       2.791   5.131   2.268  0.00  0.00    +0.154 HD
ENDROOT
BRANCH   4  11
ATOM     11  C   UNL     1       2.365   1.441  -0.011  0.00  0.00    +0.004 A 
ATOM     12  C   UNL     1       1.163   2.125   0.005  0.00  0.00    +0.008 A 
ATOM     13  C   UNL     1      -0.029   1.426   0.014  0.00  0.00    +0.000 A 
ATOM     14  C   UNL     1      -0.021   0.044   0.006  0.00  0.00    +0.002 A 
ATOM     15  C   UNL     1       1.180  -0.640  -0.010  0.00  0.00    +0.033 A 
ATOM     16  C   UNL     1       2.373   0.059  -0.019  0.00  0.00    +0.131 A 
BRANCH  16  17
ATOM     17  N   UNL     1       3.659  -0.674  -0.037  0.00  0.00    +0.057 N 
ATOM     18  O   UNL     1       3.667  -1.892  -0.043  0.00  0.00    -0.126 OA
ATOM     19  O   UNL     1       4.710  -0.058  -0.044  0.00  0.00    -0.126 OA
ENDBRANCH  16  17
ENDBRANCH   4  11
BRANCH   3  20
ATOM     20  C   UNL     1       5.655   2.774   1.362  0.00  0.00    +0.228 C 
ATOM     21  O   UNL     1       6.151   3.101   0.305  0.00  0.00    -0.275 OA
ATOM     22  N   UNL     1       6.362   2.891   2.503  0.00  0.00    -0.284 N 
ATOM     23  H   UNL     1       5.944   2.691   3.356  0.00  0.00    +0.155 HD
BRANCH  22  24
ATOM     24  C   UNL     1       7.699   3.301   2.459  0.00  0.00    +0.045 A 
ATOM     25  C   UNL     1       8.112   4.226   1.509  0.00  0.00    +0.024 A 
ATOM     26  C   UNL     1       9.431   4.633   1.472  0.00  0.00    +0.002 A 
ATOM     27  C   UNL     1      10.343   4.113   2.372  0.00  0.00    +0.001 A 
ATOM     28  C   UNL     1       9.936   3.187   3.315  0.00  0.00    +0.014 A 
ATOM     29  C   UNL     1       8.617   2.780   3.361  0.00  0.00    +0.076 A 
BRANCH  29  30
ATOM     30  C   UNL     1       8.174   1.772   4.390  0.00  0.00    +0.419 C 
ATOM     31  F   UNL     1       9.268   1.399   5.178  0.00  0.00    -0.166 F 
ATOM     32  F   UNL     1       7.186   2.339   5.203  0.00  0.00    -0.166 F 
ATOM     33  F   UNL     1       7.657   0.644   3.745  0.00  0.00    -0.166 F 
ENDBRANCH  29  30
ENDBRANCH  22  24
ENDBRANCH   3  20
TORSDOF 5
