REMARK  Name = ZINC18200229
REMARK  11 active torsions:
REMARK  status: ('A' for Active; 'I' for Inactive)
REMARK    1  A    between atoms: C_1  and  O_2
REMARK    2  A    between atoms: O_2  and  C_3
REMARK    3  A    between atoms: C_5  and  C_13
REMARK    4  A    between atoms: C_7  and  O_11
REMARK    5  A    between atoms: C_8  and  O_9
REMARK    6  A    between atoms: O_9  and  C_10
REMARK    7  A    between atoms: O_11  and  C_12
REMARK    8  A    between atoms: C_18  and  O_28
REMARK    9  A    between atoms: C_19  and  O_27
REMARK   10  A    between atoms: C_22  and  N_26
REMARK   11  A    between atoms: C_23  and  C_24
REMARK                            x       y       z     vdW  Elec       q    Type
REMARK                         _______ _______ _______ _____ _____    ______ ____
ROOT
ATOM      1  C   UNL     1      -0.074   5.636   0.034  0.00  0.00    +0.098 C 
ATOM      2  C   UNL     1      -0.797   6.132  -1.190  0.00  0.00    +0.011 A 
ATOM      3  C   UNL     1      -0.154   6.107  -2.416  0.00  0.00    +0.012 A 
ATOM      4  C   UNL     1      -0.799   6.557  -3.552  0.00  0.00    +0.050 A 
ATOM      5  C   UNL     1      -2.098   7.037  -3.468  0.00  0.00    +0.162 A 
ATOM      6  C   UNL     1      -2.747   7.065  -2.240  0.00  0.00    +0.202 A 
ATOM      7  C   UNL     1      -2.093   6.611  -1.097  0.00  0.00    +0.179 A 
ATOM      8  O   UNL     1      -2.740   6.643   0.095  0.00  0.00    -0.437 OA
ATOM      9  C   UNL     1      -2.038   6.585   1.239  0.00  0.00    +0.199 C 
ATOM     10  C   UNL     1      -0.771   6.117   1.276  0.00  0.00    +0.098 C 
ENDROOT
BRANCH   1  13
ATOM     11  C   UNL     1      -1.228   2.037   0.019  0.00  0.00    +0.165 A 
ATOM     12  C   UNL     1      -1.243   3.424   0.032  0.00  0.00    +0.054 A 
ATOM     13  C   UNL     1      -0.054   4.129   0.025  0.00  0.00    -0.028 A 
ATOM     14  C   UNL     1       1.153   3.456   0.010  0.00  0.00    +0.054 A 
ATOM     15  C   UNL     1       1.177   2.070   0.002  0.00  0.00    +0.165 A 
ATOM     16  C   UNL     1      -0.016   1.357   0.009  0.00  0.00    +0.204 A 
BRANCH  11  18
ATOM     17  C   UNL     1      -3.605   2.109   0.030  0.00  0.00    +0.277 C 
ATOM     18  O   UNL     1      -2.398   1.344   0.020  0.00  0.00    -0.491 OA
ENDBRANCH  11  18
BRANCH  16  19
ATOM     19  O   UNL     1       0.002  -0.004   0.002  0.00  0.00    -0.488 OA
ATOM     20  C   UNL     1       0.023  -0.660   1.272  0.00  0.00    +0.277 C 
ENDBRANCH  16  19
BRANCH  15  21
ATOM     21  O   UNL     1       2.365   1.409  -0.013  0.00  0.00    -0.491 OA
ATOM     22  C   UNL     1       3.551   2.206  -0.020  0.00  0.00    +0.277 C 
ENDBRANCH  15  21
ENDBRANCH   1  13
BRANCH   9  23
ATOM     23  N   UNL     1      -2.627   7.011   2.404  0.00  0.00    -0.328 N 
ATOM     24  H   UNL     1      -3.537   7.348   2.392  0.00  0.00    +0.145 HD
ATOM     25  H   UNL     1      -2.133   6.975   3.238  0.00  0.00    +0.145 HD
ENDBRANCH   9  23
BRANCH  10  26
ATOM     26  C   UNL     1      -0.078   6.080   2.528  0.00  0.00    +0.101 C 
ATOM     27  N   UNL     1       0.471   6.050   3.522  0.00  0.00    -0.191 NA
ENDBRANCH  10  26
BRANCH   6  28
ATOM     28  O   UNL     1      -4.020   7.536  -2.154  0.00  0.00    -0.501 OA
ATOM     29  H   UNL     1      -4.078   8.486  -1.983  0.00  0.00    +0.292 HD
ENDBRANCH   6  28
BRANCH   5  30
ATOM     30  O   UNL     1      -2.734   7.480  -4.585  0.00  0.00    -0.503 OA
ATOM     31  H   UNL     1      -2.608   8.422  -4.762  0.00  0.00    +0.292 HD
ENDBRANCH   5  30
TORSDOF 8
