REMARK  Name = ZINC06785685
REMARK  5 active torsions:
REMARK  status: ('A' for Active; 'I' for Inactive)
REMARK    1  A    between atoms: C_1  and  C_2
REMARK    2  A    between atoms: C_9  and  N_26
REMARK    3  A    between atoms: C_10  and  C_24
REMARK    4  A    between atoms: N_18  and  C_21
REMARK    5  A    between atoms: C_21  and  C_22
REMARK                            x       y       z     vdW  Elec       q    Type
REMARK                         _______ _______ _______ _____ _____    ______ ____
ROOT
ATOM      1  C   UNL     1      -0.018   1.503   0.010  0.00  0.00    +0.065 C 
ATOM      2  C   UNL     1       0.002  -0.004   0.002  0.00  0.00    +0.042 A 
ATOM      3  C   UNL     1       0.008  -0.789  -1.085  0.00  0.00    +0.061 A 
ATOM      4  C   UNL     1       0.027  -2.136  -0.653  0.00  0.00    +0.245 A 
ATOM      5  N   UNL     1       0.034  -2.140   0.648  0.00  0.00    -0.135 NA
ATOM      6  N   UNL     1       0.024  -0.808   1.090  0.00  0.00    -0.278 N 
ATOM      7  H   UNL     1       0.030  -0.515   2.015  0.00  0.00    +0.189 HD
ATOM      8  O   UNL     1       0.035  -3.173  -1.533  0.00  0.00    -0.421 OA
ATOM      9  C   UNL     1      -0.239  -2.903  -2.825  0.00  0.00    +0.201 C 
ATOM     10  C   UNL     1      -0.274  -1.660  -3.355  0.00  0.00    +0.110 C 
ATOM     11  C   UNL     1      -0.003  -0.424  -2.543  0.00  0.00    +0.145 C 
ATOM     12  C   UNL     1       1.281   0.224  -2.950  0.00  0.00    -0.001 A 
ATOM     13  C   UNL     1       2.581  -0.234  -2.940  0.00  0.00    +0.007 A 
ATOM     14  C   UNL     1       3.562   0.641  -3.394  0.00  0.00    +0.000 A 
ATOM     15  C   UNL     1       3.245   1.909  -3.836  0.00  0.00    +0.002 A 
ATOM     16  C   UNL     1       1.941   2.377  -3.850  0.00  0.00    +0.024 A 
ATOM     17  C   UNL     1       0.946   1.508  -3.397  0.00  0.00    +0.042 A 
ATOM     18  N   UNL     1      -0.420   1.709  -3.304  0.00  0.00    -0.258 N 
ATOM     19  C   UNL     1      -1.058   0.625  -2.814  0.00  0.00    +0.241 C 
ATOM     20  O   UNL     1      -2.252   0.514  -2.627  0.00  0.00    -0.273 OA
ENDROOT
BRANCH   9  21
ATOM     21  N   UNL     1      -0.500  -3.962  -3.658  0.00  0.00    -0.328 N 
ATOM     22  H   UNL     1      -0.483  -4.868  -3.312  0.00  0.00    +0.145 HD
ATOM     23  H   UNL     1      -0.701  -3.804  -4.594  0.00  0.00    +0.145 HD
ENDBRANCH   9  21
BRANCH  10  24
ATOM     24  C   UNL     1      -0.581  -1.515  -4.746  0.00  0.00    +0.102 C 
ATOM     25  N   UNL     1      -0.825  -1.399  -5.849  0.00  0.00    -0.191 NA
ENDBRANCH  10  24
BRANCH  18  26
ATOM     26  C   UNL     1      -1.094   2.950  -3.692  0.00  0.00    +0.202 C 
BRANCH  26  27
ATOM     27  C   UNL     1      -1.478   2.877  -5.111  0.00  0.00    -0.086 C 
ATOM     28  C   UNL     1      -1.785   2.819  -6.243  0.00  0.00    +0.005 C 
ENDBRANCH  26  27
ENDBRANCH  18  26
TORSDOF 4
