REMARK  Name = ZINC64839424
REMARK  10 active torsions:
REMARK  status: ('A' for Active; 'I' for Inactive)
REMARK    1  A    between atoms: C_1  and  C_2
REMARK    2  A    between atoms: C_2  and  C_3
REMARK    3  A    between atoms: C_3  and  C_5
REMARK    4  A    between atoms: C_3  and  N_21
REMARK    5  A    between atoms: N_7  and  C_8
REMARK    6  A    between atoms: C_8  and  C_9
REMARK    7  A    between atoms: C_9  and  C_10
REMARK    8  A    between atoms: C_13  and  O_19
REMARK    9  A    between atoms: O_19  and  C_20
REMARK   10  A    between atoms: N_31  and  C_36
REMARK                            x       y       z     vdW  Elec       q    Type
REMARK                         _______ _______ _______ _____ _____    ______ ____
ROOT
ATOM      1  C   UNL     1       0.742  -0.511   1.242  0.00  0.00    +0.160 C 
ENDROOT
BRANCH   1   2
ATOM      2  N   UNL     1       2.148  -0.104   1.172  0.00  0.00    -0.303 N 
ATOM      3  C   UNL     1       3.050  -0.453   0.158  0.00  0.00    +0.039 A 
ATOM      4  C   UNL     1       2.825  -1.099  -1.052  0.00  0.00    +0.024 A 
ATOM      5  C   UNL     1       3.869  -1.332  -1.925  0.00  0.00    +0.002 A 
ATOM      6  C   UNL     1       5.153  -0.926  -1.605  0.00  0.00    +0.001 A 
ATOM      7  C   UNL     1       5.400  -0.291  -0.406  0.00  0.00    +0.010 A 
ATOM      8  C   UNL     1       4.356  -0.054   0.490  0.00  0.00    +0.003 A 
ATOM      9  C   UNL     1       4.316   0.549   1.821  0.00  0.00    +0.006 C 
ATOM     10  C   UNL     1       5.270   0.885   2.696  0.00  0.00    +0.094 C 
ATOM     11  N   UNL     1       4.758   1.347   3.924  0.00  0.00    -0.269 N 
ATOM     12  N   UNL     1       3.647   0.641   4.443  0.00  0.00    -0.224 N 
ATOM     13  C   UNL     1       2.656   0.281   3.573  0.00  0.00    +0.256 C 
ATOM     14  O   UNL     1       1.690  -0.362   3.927  0.00  0.00    -0.272 OA
ATOM     15  C   UNL     1       2.837   0.736   2.141  0.00  0.00    +0.194 C 
ATOM     16  C   UNL     1       3.561   0.307   5.866  0.00  0.00    +0.156 C 
ATOM     17  H   UNL     1       5.145   2.106   4.388  0.00  0.00    +0.170 HD
ENDBRANCH   1   2
BRANCH   1  18
ATOM     18  C   UNL     1       0.657  -2.014   1.298  0.00  0.00    +0.234 C 
ATOM     19  O   UNL     1       1.670  -2.680   1.281  0.00  0.00    -0.274 OA
ATOM     20  N   UNL     1      -0.546  -2.619   1.367  0.00  0.00    -0.313 N 
ATOM     21  H   UNL     1      -1.356  -2.086   1.380  0.00  0.00    +0.149 HD
BRANCH  20  22
ATOM     22  C   UNL     1      -0.629  -4.081   1.421  0.00  0.00    +0.108 C 
BRANCH  22  23
ATOM     23  C   UNL     1      -2.097  -4.506   1.494  0.00  0.00    +0.052 C 
BRANCH  23  24
ATOM     24  C   UNL     1      -2.182  -6.009   1.550  0.00  0.00    -0.040 C 
ATOM     25  C   UNL     1      -2.285  -6.777   2.659  0.00  0.00    +0.002 A 
ATOM     26  C   UNL     1      -2.345  -6.457   4.089  0.00  0.00    +0.055 A 
ATOM     27  C   UNL     1      -2.449  -7.460   4.994  0.00  0.00    +0.121 A 
ATOM     28  C   UNL     1      -2.502  -8.812   4.612  0.00  0.00    +0.047 A 
ATOM     29  C   UNL     1      -2.453  -9.205   3.322  0.00  0.00    +0.029 A 
ATOM     30  C   UNL     1      -2.341  -8.202   2.258  0.00  0.00    +0.043 A 
ATOM     31  N   UNL     1      -2.275  -8.310   0.955  0.00  0.00    -0.380 N 
ATOM     32  C   UNL     1      -2.177  -6.965   0.378  0.00  0.00    +0.144 C 
ATOM     33  H   UNL     1      -2.293  -9.141   0.454  0.00  0.00    +0.160 HD
BRANCH  27  34
ATOM     34  O   UNL     1      -2.504  -7.148   6.316  0.00  0.00    -0.495 OA
ATOM     35  C   UNL     1      -2.613  -8.237   7.235  0.00  0.00    +0.277 C 
ENDBRANCH  27  34
ENDBRANCH  23  24
ENDBRANCH  22  23
ENDBRANCH  20  22
ENDBRANCH   1  18
BRANCH   1  37
ATOM     36  C   UNL     1      -0.019   1.526   0.010  0.00  0.00    +0.006 C 
ATOM     37  C   UNL     1       0.002  -0.004   0.002  0.00  0.00    +0.028 C 
ENDBRANCH   1  37
TORSDOF 7
