REMARK  Name = ZINC63058935
REMARK  7 active torsions:
REMARK  status: ('A' for Active; 'I' for Inactive)
REMARK    1  A    between atoms: C_1  and  C_2
REMARK    2  A    between atoms: C_5  and  C_20
REMARK    3  A    between atoms: C_7  and  N_8
REMARK    4  A    between atoms: C_9  and  C_11
REMARK    5  A    between atoms: C_14  and  N_18
REMARK    6  A    between atoms: C_15  and  C_17
REMARK    7  A    between atoms: N_18  and  N_19
REMARK                            x       y       z     vdW  Elec       q    Type
REMARK                         _______ _______ _______ _____ _____    ______ ____
ROOT
ATOM      1  N   UNL     1       0.025  -0.007   2.417  0.00  0.00    -0.281 N 
ATOM      2  C   UNL     1      -0.057  -0.683   3.580  0.00  0.00    +0.248 C 
ATOM      3  O   UNL     1      -0.040  -1.899   3.580  0.00  0.00    -0.270 OA
ATOM      4  H   UNL     1       0.077   0.961   2.421  0.00  0.00    +0.155 HD
ENDROOT
BRANCH   1  11
ATOM      5  C   UNL     1      -1.266   1.184   0.183  0.00  0.00    +0.045 C 
ATOM      6  C   UNL     1      -0.586  -0.158   0.085  0.00  0.00    -0.029 A 
ATOM      7  C   UNL     1      -0.576  -0.839  -1.118  0.00  0.00    +0.006 A 
ATOM      8  C   UNL     1       0.043  -2.068  -1.215  0.00  0.00    +0.019 A 
ATOM      9  C   UNL     1       0.664  -2.627  -0.096  0.00  0.00    +0.054 A 
ATOM     10  C   UNL     1       0.654  -1.940   1.118  0.00  0.00    +0.042 A 
ATOM     11  C   UNL     1       0.033  -0.703   1.204  0.00  0.00    +0.038 A 
BRANCH   9  12
ATOM     12  C   UNL     1       1.308  -3.903  -0.194  0.00  0.00    +0.099 C 
ATOM     13  N   UNL     1       1.819  -4.915  -0.272  0.00  0.00    -0.191 NA
ENDBRANCH   9  12
ENDBRANCH   1  11
BRANCH   2  14
ATOM     14  C   UNL     1      -0.167   0.053   4.854  0.00  0.00    +0.037 A 
ATOM     15  C   UNL     1      -0.192   1.451   4.855  0.00  0.00    +0.015 A 
ATOM     16  C   UNL     1      -0.294   2.135   6.045  0.00  0.00    +0.025 A 
ATOM     17  C   UNL     1      -0.372   1.436   7.247  0.00  0.00    +0.044 A 
ATOM     18  C   UNL     1      -0.347   0.044   7.249  0.00  0.00    -0.028 A 
ATOM     19  C   UNL     1      -0.251  -0.646   6.062  0.00  0.00    +0.018 A 
ATOM     20  C   UNL     1      -0.431  -0.709   8.552  0.00  0.00    +0.046 C 
BRANCH  17  21
ATOM     21  N   UNL     1      -0.474   2.129   8.447  0.00  0.00    -0.283 N 
ATOM     22  H   UNL     1      -0.528   1.643   9.285  0.00  0.00    +0.166 HD
BRANCH  21  23
ATOM     23  N   UNL     1      -0.498   3.495   8.447  0.00  0.00    -0.257 NA
ATOM     24  H   UNL     1      -1.244   3.844   7.864  0.00  0.00    +0.140 HD
ATOM     25  H   UNL     1      -0.575   3.856   9.387  0.00  0.00    +0.140 HD
ENDBRANCH  21  23
ENDBRANCH  17  21
ENDBRANCH   2  14
TORSDOF 5
