REMARK  Name = ZINC05322858
REMARK  4 active torsions:
REMARK  status: ('A' for Active; 'I' for Inactive)
REMARK    1  A    between atoms: C_1  and  C_2
REMARK    2  A    between atoms: C_11  and  O_26
REMARK    3  A    between atoms: C_17  and  C_18
REMARK    4  A    between atoms: C_18  and  C_19
REMARK                            x       y       z     vdW  Elec       q    Type
REMARK                         _______ _______ _______ _____ _____    ______ ____
ROOT
ATOM      1  C   UNL     1      11.323   1.362   1.456  0.00  0.00    +0.044 C 
ATOM      2  C   UNL     1       9.900   1.637   1.043  0.00  0.00    -0.047 A 
ATOM      3  C   UNL     1       9.570   2.860   0.488  0.00  0.00    +0.005 A 
ATOM      4  C   UNL     1       8.264   3.118   0.112  0.00  0.00    +0.027 A 
ATOM      5  C   UNL     1       7.294   2.151   0.293  0.00  0.00    +0.083 A 
ATOM      6  C   UNL     1       7.621   0.908   0.845  0.00  0.00    +0.153 A 
ATOM      7  C   UNL     1       8.934   0.665   1.222  0.00  0.00    +0.051 A 
ATOM      8  O   UNL     1       6.683  -0.061   1.010  0.00  0.00    -0.420 OA
ATOM      9  C   UNL     1       5.379   0.258   0.855  0.00  0.00    +0.369 C 
ATOM     10  O   UNL     1       4.524  -0.205   1.573  0.00  0.00    -0.245 OA
ATOM     11  C   UNL     1       5.043   1.222  -0.256  0.00  0.00    +0.274 C 
ATOM     12  N   UNL     1       5.961   2.369  -0.063  0.00  0.00    -0.219 N 
ATOM     13  C   UNL     1       5.265   3.493  -0.225  0.00  0.00    +0.294 C 
ATOM     14  O   UNL     1       5.742   4.593  -0.416  0.00  0.00    -0.266 OA
ATOM     15  C   UNL     1       3.808   3.188  -0.136  0.00  0.00    +0.253 C 
ATOM     16  O   UNL     1       2.907   4.006  -0.082  0.00  0.00    -0.282 OA
ATOM     17  C   UNL     1       3.656   1.787  -0.126  0.00  0.00    +0.113 C 
ENDROOT
BRANCH  17  18
ATOM     18  C   UNL     1       2.477   1.080  -0.015  0.00  0.00    +0.198 C 
ATOM     19  O   UNL     1       2.478  -0.262  -0.164  0.00  0.00    -0.287 OA
BRANCH  18  20
ATOM     20  C   UNL     1       1.216   1.788   0.268  0.00  0.00    +0.022 A 
ATOM     21  C   UNL     1       1.144   2.699   1.326  0.00  0.00    +0.012 A 
ATOM     22  C   UNL     1      -0.041   3.354   1.587  0.00  0.00    +0.001 A 
ATOM     23  C   UNL     1      -1.154   3.120   0.798  0.00  0.00    +0.000 A 
ATOM     24  C   UNL     1      -1.090   2.221  -0.252  0.00  0.00    +0.001 A 
ATOM     25  C   UNL     1       0.086   1.554  -0.522  0.00  0.00    +0.012 A 
ENDBRANCH  18  20
ENDBRANCH  17  18
BRANCH  11  26
ATOM     26  O   UNL     1       5.235   0.622  -1.538  0.00  0.00    -0.359 OA
ATOM     27  H   UNL     1       5.032   1.199  -2.452  0.00  0.00    +0.213 HD
ENDBRANCH  11  26
TORSDOF 3
