REMARK  Name = ZINC45630197
REMARK  6 active torsions:
REMARK  status: ('A' for Active; 'I' for Inactive)
REMARK    1  A    between atoms: C_1  and  C_2
REMARK    2  A    between atoms: C_2  and  C_3
REMARK    3  A    between atoms: C_7  and  C_25
REMARK    4  A    between atoms: C_8  and  N_9
REMARK    5  A    between atoms: C_10  and  C_12
REMARK    6  A    between atoms: C_14  and  C_24
REMARK                            x       y       z     vdW  Elec       q    Type
REMARK                         _______ _______ _______ _____ _____    ______ ____
ROOT
ATOM      1  N   UNL     1       2.639   0.108   0.071  0.00  0.00    -0.282 N 
ATOM      2  C   UNL     1       3.927  -0.266   0.203  0.00  0.00    +0.262 C 
ATOM      3  O   UNL     1       4.504  -0.792  -0.725  0.00  0.00    -0.271 OA
ATOM      4  H   UNL     1       2.192   0.573   0.796  0.00  0.00    +0.155 HD
ENDROOT
BRANCH   2   5
ATOM      5  C   UNL     1       4.650  -0.029   1.504  0.00  0.00    +0.299 C 
ATOM      6  C   UNL     1       4.095  -0.968   2.583  0.00  0.00    +0.220 C 
ATOM      7  O   UNL     1       4.295  -2.318   2.150  0.00  0.00    -0.481 OA
ATOM      8  C   UNL     1       5.525  -2.624   1.653  0.00  0.00    +0.163 A 
ATOM      9  C   UNL     1       5.908  -3.954   1.556  0.00  0.00    +0.049 A 
ATOM     10  C   UNL     1       7.152  -4.281   1.052  0.00  0.00    +0.004 A 
ATOM     11  C   UNL     1       8.018  -3.284   0.641  0.00  0.00    +0.004 A 
ATOM     12  C   UNL     1       7.643  -1.958   0.736  0.00  0.00    +0.049 A 
ATOM     13  C   UNL     1       6.397  -1.623   1.244  0.00  0.00    +0.163 A 
ATOM     14  O   UNL     1       6.045  -0.310   1.339  0.00  0.00    -0.472 OA
ATOM     15  C   UNL     1       2.600  -0.705   2.776  0.00  0.00    +0.056 C 
ENDBRANCH   2   5
BRANCH   1  21
ATOM     16  C   UNL     1       1.164   0.805  -1.710  0.00  0.00    -0.026 A 
ATOM     17  C   UNL     1       0.486   0.525  -2.881  0.00  0.00    +0.005 A 
ATOM     18  C   UNL     1       0.581  -0.730  -3.453  0.00  0.00    +0.001 A 
ATOM     19  C   UNL     1       1.355  -1.709  -2.857  0.00  0.00    +0.005 A 
ATOM     20  C   UNL     1       2.036  -1.435  -1.687  0.00  0.00    -0.029 A 
ATOM     21  C   UNL     1       1.946  -0.174  -1.112  0.00  0.00    +0.040 A 
ATOM     22  C   UNL     1       2.879  -2.502  -1.037  0.00  0.00    +0.045 C 
BRANCH  16  24
ATOM     23  C   UNL     1       2.235   3.036  -1.552  0.00  0.00    +0.009 C 
ATOM     24  C   UNL     1       1.060   2.173  -1.087  0.00  0.00    +0.033 C 
ENDBRANCH  16  24
ENDBRANCH   1  21
TORSDOF 3
