REMARK  Name = ZINC18599747
REMARK  6 active torsions:
REMARK  status: ('A' for Active; 'I' for Inactive)
REMARK    1  A    between atoms: C_1  and  C_2
REMARK    2  A    between atoms: C_2  and  C_4
REMARK    3  A    between atoms: C_2  and  S_15
REMARK    4  A    between atoms: N_9  and  C_10
REMARK    5  A    between atoms: S_15  and  C_16
REMARK    6  A    between atoms: C_22  and  C_27
REMARK                            x       y       z     vdW  Elec       q    Type
REMARK                         _______ _______ _______ _____ _____    ______ ____
ROOT
ATOM      1  C   UNL     1      10.657   3.338   0.816  0.00  0.00    +0.171 A 
ATOM      2  N   UNL     1      11.651   4.210   1.157  0.00  0.00    -0.301 N 
ATOM      3  H   UNL     1      11.484   4.879   1.839  0.00  0.00    +0.171 HD
ATOM      4  C   UNL     1      12.859   4.155   0.567  0.00  0.00    +0.261 A 
ATOM      5  O   UNL     1      13.737   4.938   0.886  0.00  0.00    -0.267 OA
ATOM      6  C   UNL     1      13.098   3.171  -0.441  0.00  0.00    +0.080 A 
ATOM      7  C   UNL     1      14.309   2.922  -1.217  0.00  0.00    +0.004 A 
ATOM      8  C   UNL     1      14.304   1.922  -2.129  0.00  0.00    +0.056 A 
ATOM      9  S   UNL     1      12.658   1.250  -1.998  0.00  0.00    -0.076 S 
ATOM     10  C   UNL     1      12.019   2.318  -0.733  0.00  0.00    +0.117 A 
ATOM     11  N   UNL     1      10.851   2.421  -0.110  0.00  0.00    -0.216 NA
ENDROOT
BRANCH   7  12
ATOM     12  C   UNL     1      15.522   3.749  -1.010  0.00  0.00    -0.016 A 
ATOM     13  C   UNL     1      15.430   5.140  -1.022  0.00  0.00    +0.011 A 
ATOM     14  C   UNL     1      16.560   5.906  -0.823  0.00  0.00    +0.039 A 
ATOM     15  C   UNL     1      17.787   5.294  -0.624  0.00  0.00    +0.123 A 
ATOM     16  C   UNL     1      17.884   3.912  -0.616  0.00  0.00    +0.039 A 
ATOM     17  C   UNL     1      16.759   3.138  -0.808  0.00  0.00    +0.011 A 
ATOM     18  F   UNL     1      18.893   6.048  -0.435  0.00  0.00    -0.205 F 
ENDBRANCH   7  12
BRANCH   1  19
ATOM     19  S   UNL     1       9.093   3.444   1.621  0.00  0.00    -0.075 S 
BRANCH  19  21
ATOM     20  C   UNL     1       8.883   0.764   1.132  0.00  0.00    +0.029 C 
ATOM     21  C   UNL     1       8.218   2.098   0.785  0.00  0.00    +0.137 C 
BRANCH  21  22
ATOM     22  C   UNL     1       6.781   2.076   1.238  0.00  0.00    +0.233 C 
ATOM     23  O   UNL     1       6.464   2.617   2.276  0.00  0.00    -0.274 OA
ATOM     24  N   UNL     1       5.848   1.455   0.490  0.00  0.00    -0.239 N 
ATOM     25  C   UNL     1       4.563   1.435   0.895  0.00  0.00    +0.306 C 
ATOM     26  O   UNL     1       4.245   1.978   1.935  0.00  0.00    -0.252 OA
ATOM     27  N   UNL     1       3.630   0.814   0.146  0.00  0.00    -0.296 N 
ATOM     28  H   UNL     1       6.101   1.022  -0.341  0.00  0.00    +0.159 HD
ATOM     29  H   UNL     1       3.883   0.381  -0.684  0.00  0.00    +0.151 HD
BRANCH  27  30
ATOM     30  C   UNL     1       2.232   0.792   0.586  0.00  0.00    +0.074 C 
ATOM     31  C   UNL     1       1.453   1.995  -0.001  0.00  0.00    +0.022 C 
ATOM     32  C   UNL     1      -0.019   1.534   0.011  0.00  0.00    +0.002 C 
ATOM     33  C   UNL     1       0.002  -0.004   0.002  0.00  0.00    +0.002 C 
ATOM     34  C   UNL     1       1.486  -0.425  -0.014  0.00  0.00    +0.022 C 
ENDBRANCH  27  30
ENDBRANCH  21  22
ENDBRANCH  19  21
ENDBRANCH   1  19
TORSDOF 5
