REMARK  Name = ZINC57699814
REMARK  9 active torsions:
REMARK  status: ('A' for Active; 'I' for Inactive)
REMARK    1  A    between atoms: C_1  and  C_2
REMARK    2  A    between atoms: C_8  and  N_10
REMARK    3  A    between atoms: N_10  and  C_11
REMARK    4  A    between atoms: C_11  and  N_13
REMARK    5  A    between atoms: N_13  and  N_14
REMARK    6  A    between atoms: C_15  and  C_17
REMARK    7  A    between atoms: C_17  and  C_18
REMARK    8  A    between atoms: C_18  and  C_19
REMARK    9  A    between atoms: C_19  and  N_20
REMARK                            x       y       z     vdW  Elec       q    Type
REMARK                         _______ _______ _______ _____ _____    ______ ____
ROOT
ATOM      1  N   UNL     1       4.668   0.942   1.166  0.00  0.00    -0.235 N 
ATOM      2  C   UNL     1       5.933   1.409   1.156  0.00  0.00    +0.229 C 
ATOM      3  O   UNL     1       6.543   1.527   2.198  0.00  0.00    -0.274 OA
ATOM      4  H   UNL     1       4.180   0.848   0.333  0.00  0.00    +0.173 HD
ENDROOT
BRANCH   1   5
ATOM      5  N   UNL     1       4.059   0.594   2.379  0.00  0.00    -0.246 N 
ATOM      6  H   UNL     1       4.548   0.689   3.211  0.00  0.00    +0.172 HD
BRANCH   5   7
ATOM      7  C   UNL     1       2.795   0.128   2.388  0.00  0.00    +0.147 C 
ATOM      8  S   UNL     1       2.051  -0.298   3.870  0.00  0.00    -0.017 S 
BRANCH   7   9
ATOM      9  N   UNL     1       2.116  -0.004   1.231  0.00  0.00    -0.322 N 
ATOM     10  H   UNL     1       2.538   0.237   0.392  0.00  0.00    +0.148 HD
BRANCH   9  17
ATOM     11  C   UNL     1      -0.019   1.526   0.010  0.00  0.00    +0.009 C 
ATOM     12  C   UNL     1       0.002  -0.004   0.002  0.00  0.00    +0.006 C 
ATOM     13  C   UNL     1      -1.433  -0.534   0.013  0.00  0.00    +0.005 C 
ATOM     14  C   UNL     1      -1.413  -2.063   0.004  0.00  0.00    +0.000 C 
ATOM     15  C   UNL     1      -0.673  -2.570   1.244  0.00  0.00    +0.002 C 
ATOM     16  C   UNL     1       0.763  -2.041   1.233  0.00  0.00    +0.022 C 
ATOM     17  C   UNL     1       0.742  -0.511   1.242  0.00  0.00    +0.075 C 
ENDBRANCH   9  17
ENDBRANCH   7   9
ENDBRANCH   5   7
ENDBRANCH   1   5
BRANCH   2  18
ATOM     18  C   UNL     1       6.588   1.783  -0.148  0.00  0.00    +0.099 C 
BRANCH  18  19
ATOM     19  C   UNL     1       8.010   2.280   0.119  0.00  0.00    +0.029 C 
BRANCH  19  20
ATOM     20  C   UNL     1       8.675   2.660  -1.205  0.00  0.00    +0.118 C 
BRANCH  20  21
ATOM     21  N   UNL     1      10.037   3.135  -0.949  0.00  0.00    -0.224 N 
ATOM     22  C   UNL     1      10.358   4.424  -0.704  0.00  0.00    +0.246 C 
ATOM     23  O   UNL     1       9.606   5.373  -0.656  0.00  0.00    -0.273 OA
ATOM     24  C   UNL     1      11.852   4.430  -0.503  0.00  0.00    +0.113 C 
ATOM     25  C   UNL     1      12.543   5.330  -1.536  0.00  0.00    +0.035 C 
ATOM     26  C   UNL     1      12.788   6.657  -0.773  0.00  0.00    +0.003 C 
ATOM     27  C   UNL     1      13.146   6.174   0.654  0.00  0.00    +0.003 C 
ATOM     28  C   UNL     1      12.223   4.957   0.886  0.00  0.00    +0.035 C 
ATOM     29  N   UNL     1      12.250   3.031  -0.668  0.00  0.00    -0.285 N 
ATOM     30  C   UNL     1      11.118   2.345  -0.922  0.00  0.00    +0.309 C 
ATOM     31  O   UNL     1      11.083   1.144  -1.109  0.00  0.00    -0.252 OA
ATOM     32  H   UNL     1      13.148   2.670  -0.604  0.00  0.00    +0.151 HD
ENDBRANCH  20  21
ENDBRANCH  19  20
ENDBRANCH  18  19
ENDBRANCH   2  18
TORSDOF 8
