REMARK  Name = ZINC14183496
REMARK  5 active torsions:
REMARK  status: ('A' for Active; 'I' for Inactive)
REMARK    1  A    between atoms: C_1  and  C_2
REMARK    2  A    between atoms: C_7  and  N_12
REMARK    3  A    between atoms: C_9  and  C_11
REMARK    4  A    between atoms: C_16  and  C_18
REMARK    5  A    between atoms: C_18  and  N_19
REMARK                            x       y       z     vdW  Elec       q    Type
REMARK                         _______ _______ _______ _____ _____    ______ ____
ROOT
ATOM      1  N   UNL     1       1.471  -2.526   2.420  0.00  0.00    -0.296 N 
ATOM      2  C   UNL     1       1.207  -3.754   2.907  0.00  0.00    +0.306 C 
ATOM      3  O   UNL     1       0.381  -4.460   2.362  0.00  0.00    -0.252 OA
ATOM      4  N   UNL     1       1.859  -4.201   3.999  0.00  0.00    -0.239 N 
ATOM      5  C   UNL     1       1.594  -5.429   4.487  0.00  0.00    +0.234 C 
ATOM      6  O   UNL     1       0.770  -6.133   3.943  0.00  0.00    -0.274 OA
ATOM      7  H   UNL     1       2.131  -1.963   2.855  0.00  0.00    +0.151 HD
ATOM      8  H   UNL     1       2.518  -3.638   4.434  0.00  0.00    +0.159 HD
ENDROOT
BRANCH   1  14
ATOM      9  C   UNL     1      -0.019   1.526   0.010  0.00  0.00    +0.008 C 
ATOM     10  C   UNL     1       0.002  -0.004   0.002  0.00  0.00    -0.009 C 
ATOM     11  C   UNL     1       0.718  -0.497  -1.257  0.00  0.00    +0.003 C 
ATOM     12  C   UNL     1       0.739  -2.027  -1.265  0.00  0.00    +0.002 C 
ATOM     13  C   UNL     1       1.479  -2.534  -0.026  0.00  0.00    +0.022 C 
ATOM     14  C   UNL     1       0.763  -2.041   1.233  0.00  0.00    +0.078 C 
ATOM     15  C   UNL     1       0.742  -0.511   1.242  0.00  0.00    +0.009 C 
ATOM     16  C   UNL     1       0.026  -0.018   2.500  0.00  0.00    +0.009 C 
ENDBRANCH   1  14
BRANCH   5  17
ATOM     17  C   UNL     1       2.323  -5.928   5.708  0.00  0.00    +0.181 C 
BRANCH  17  18
ATOM     18  N   UNL     1       1.859  -7.283   6.035  0.00  0.00    -0.284 NA
ATOM     19  C   UNL     1       2.388  -7.722   7.337  0.00  0.00    +0.104 C 
ATOM     20  C   UNL     1       1.642  -8.985   7.770  0.00  0.00    +0.119 C 
ATOM     21  N   UNL     1       1.640  -9.962   6.685  0.00  0.00    -0.313 N 
ATOM     22  C   UNL     1       1.893  -9.636   5.413  0.00  0.00    +0.227 C 
ATOM     23  O   UNL     1       1.841 -10.505   4.569  0.00  0.00    -0.274 OA
ATOM     24  C   UNL     1       2.240  -8.238   4.986  0.00  0.00    +0.181 C 
ATOM     25  H   UNL     1       1.447 -10.889   6.896  0.00  0.00    +0.149 HD
ENDBRANCH  17  18
ENDBRANCH   5  17
TORSDOF 3
