REMARK  Name = ZINC66122336
REMARK  11 active torsions:
REMARK  status: ('A' for Active; 'I' for Inactive)
REMARK    1  A    between atoms: C_1  and  C_2
REMARK    2  A    between atoms: C_2  and  C_3
REMARK    3  A    between atoms: C_3  and  C_4
REMARK    4  A    between atoms: N_6  and  C_7
REMARK    5  A    between atoms: C_7  and  C_8
REMARK    6  A    between atoms: N_10  and  N_11
REMARK    7  A    between atoms: N_11  and  C_12
REMARK    8  A    between atoms: C_12  and  N_14
REMARK    9  A    between atoms: N_14  and  C_15
REMARK   10  A    between atoms: C_15  and  C_17
REMARK   11  A    between atoms: C_15  and  C_18
REMARK                            x       y       z     vdW  Elec       q    Type
REMARK                         _______ _______ _______ _____ _____    ______ ____
ROOT
ATOM      1  N   UNL     1      -5.779  -6.656   0.716  0.00  0.00    -0.246 N 
ATOM      2  H   UNL     1      -6.569  -6.110   0.854  0.00  0.00    +0.172 HD
ENDROOT
BRANCH   1   5
ATOM      3  C   UNL     1      -4.379  -4.757   1.034  0.00  0.00    +0.246 C 
ATOM      4  O   UNL     1      -5.367  -4.074   1.207  0.00  0.00    -0.273 OA
ATOM      5  N   UNL     1      -4.506  -6.074   0.780  0.00  0.00    -0.234 N 
ATOM      6  H   UNL     1      -3.716  -6.620   0.642  0.00  0.00    +0.173 HD
BRANCH   3   7
ATOM      7  C   UNL     1      -3.010  -4.132   1.103  0.00  0.00    +0.201 C 
BRANCH   7  10
ATOM      8  C   UNL     1      -2.038  -1.932   1.497  0.00  0.00    +0.213 C 
ATOM      9  O   UNL     1      -0.939  -2.425   1.357  0.00  0.00    -0.276 OA
ATOM     10  N   UNL     1      -3.140  -2.701   1.389  0.00  0.00    -0.307 N 
ATOM     11  H   UNL     1      -4.019  -2.307   1.501  0.00  0.00    +0.149 HD
BRANCH   8  12
ATOM     12  C   UNL     1      -2.172  -0.460   1.791  0.00  0.00    +0.095 C 
BRANCH  12  14
ATOM     13  C   UNL     1      -0.918   1.669   2.160  0.00  0.00    +0.004 C 
ATOM     14  C   UNL     1      -0.782   0.174   1.861  0.00  0.00    +0.006 C 
ENDBRANCH  12  14
ENDBRANCH   8  12
ENDBRANCH   7  10
ENDBRANCH   3   7
ENDBRANCH   1   5
BRANCH   1  15
ATOM     15  C   UNL     1      -5.907  -7.973   0.462  0.00  0.00    +0.147 C 
ATOM     16  S   UNL     1      -7.463  -8.683   0.384  0.00  0.00    -0.017 S 
BRANCH  15  17
ATOM     17  N   UNL     1      -4.809  -8.732   0.271  0.00  0.00    -0.319 N 
ATOM     18  H   UNL     1      -3.928  -8.329   0.315  0.00  0.00    +0.148 HD
BRANCH  17  19
ATOM     19  C   UNL     1      -4.948 -10.164  -0.005  0.00  0.00    +0.101 C 
ATOM     20  C   UNL     1      -5.123 -10.379  -1.510  0.00  0.00    +0.033 C 
BRANCH  19  21
ATOM     21  C   UNL     1      -3.712 -10.887   0.465  0.00  0.00    -0.009 A 
ATOM     22  C   UNL     1      -2.501 -10.223   0.520  0.00  0.00    +0.008 A 
ATOM     23  C   UNL     1      -1.368 -10.886   0.952  0.00  0.00    +0.020 A 
ATOM     24  C   UNL     1      -1.445 -12.216   1.329  0.00  0.00    +0.042 A 
ATOM     25  C   UNL     1      -2.656 -12.880   1.274  0.00  0.00    +0.040 A 
ATOM     26  C   UNL     1      -3.792 -12.215   0.847  0.00  0.00    +0.047 A 
ATOM     27 CL   UNL     1      -5.314 -13.047   0.783  0.00  0.00    -0.083 Cl
ATOM     28 CL   UNL     1      -0.021 -13.048   1.870  0.00  0.00    -0.083 Cl
ENDBRANCH  19  21
ENDBRANCH  17  19
ENDBRANCH  15  17
ENDBRANCH   1  15
TORSDOF 9
