REMARK  Name = ZINC57479250
REMARK  6 active torsions:
REMARK  status: ('A' for Active; 'I' for Inactive)
REMARK    1  A    between atoms: C_1  and  C_2
REMARK    2  A    between atoms: C_2  and  C_4
REMARK    3  A    between atoms: C_2  and  N_13
REMARK    4  A    between atoms: N_16  and  C_17
REMARK    5  A    between atoms: N_16  and  C_18
REMARK    6  A    between atoms: C_18  and  C_19
REMARK                            x       y       z     vdW  Elec       q    Type
REMARK                         _______ _______ _______ _____ _____    ______ ____
ROOT
ATOM      1  N   UNL     1       0.711  -0.489   1.189  0.00  0.00    -0.290 N 
ATOM      2  C   UNL     1       2.054  -0.600   1.174  0.00  0.00    +0.303 C 
ATOM      3  O   UNL     1       2.677  -0.297   0.175  0.00  0.00    -0.253 OA
ATOM      4  N   UNL     1       2.706  -1.046   2.266  0.00  0.00    -0.283 N 
ATOM      5  C   UNL     1       1.954  -1.411   3.469  0.00  0.00    +0.134 C 
ATOM      6  H   UNL     1       0.213  -0.731   1.986  0.00  0.00    +0.151 HD
ENDROOT
BRANCH   1   8
ATOM      7  C   UNL     1      -0.019   1.526   0.010  0.00  0.00    +0.036 C 
ATOM      8  C   UNL     1       0.002  -0.004   0.002  0.00  0.00    +0.137 C 
BRANCH   8   9
ATOM      9  C   UNL     1      -1.412  -0.526   0.013  0.00  0.00    +0.126 A 
ATOM     10  C   UNL     1      -2.074  -0.969  -1.064  0.00  0.00    +0.055 A 
ATOM     11  C   UNL     1      -3.402  -1.375  -0.590  0.00  0.00    +0.020 A 
ATOM     12  C   UNL     1      -4.536  -1.907  -1.202  0.00  0.00    +0.011 A 
ATOM     13  C   UNL     1      -5.646  -2.180  -0.453  0.00  0.00    +0.001 A 
ATOM     14  C   UNL     1      -5.651  -1.931   0.912  0.00  0.00    +0.004 A 
ATOM     15  C   UNL     1      -4.540  -1.404   1.535  0.00  0.00    +0.047 A 
ATOM     16  C   UNL     1      -3.401  -1.120   0.792  0.00  0.00    +0.135 A 
ATOM     17  O   UNL     1      -2.189  -0.619   1.105  0.00  0.00    -0.458 OA
ENDBRANCH   8   9
ENDBRANCH   1   8
BRANCH   4  18
ATOM     18  C   UNL     1       4.166  -1.166   2.249  0.00  0.00    +0.164 C 
BRANCH  18  19
ATOM     19  C   UNL     1       4.781   0.126   2.720  0.00  0.00    +0.059 A 
ATOM     20  C   UNL     1       5.141   0.268   4.047  0.00  0.00    +0.025 A 
ATOM     21  C   UNL     1       5.706   1.461   4.470  0.00  0.00    +0.003 A 
ATOM     22  C   UNL     1       5.890   2.471   3.538  0.00  0.00    +0.020 A 
ATOM     23  C   UNL     1       5.506   2.257   2.228  0.00  0.00    +0.111 A 
ATOM     24  N   UNL     1       4.976   1.107   1.860  0.00  0.00    -0.258 NA
ENDBRANCH  18  19
ENDBRANCH   4  18
TORSDOF 4
