REMARK  Name = ZINC35934671
REMARK  7 active torsions:
REMARK  status: ('A' for Active; 'I' for Inactive)
REMARK    1  A    between atoms: C_1  and  N_2
REMARK    2  A    between atoms: C_5  and  C_10
REMARK    3  A    between atoms: N_19  and  C_21
REMARK    4  A    between atoms: C_21  and  C_22
REMARK    5  A    between atoms: N_24  and  C_25
REMARK    6  A    between atoms: C_25  and  C_26
REMARK    7  A    between atoms: C_31  and  C_32
REMARK                            x       y       z     vdW  Elec       q    Type
REMARK                         _______ _______ _______ _____ _____    ______ ____
ROOT
ATOM      1  C   UNL     1      -1.234   0.476  -1.175  0.00  0.00    +0.139 C 
ATOM      2  N   UNL     1      -0.963  -0.923  -0.835  0.00  0.00    -0.260 N 
ATOM      3  C   UNL     1      -2.021  -1.726  -0.515  0.00  0.00    +0.042 C 
ATOM      4  C   UNL     1      -1.841  -3.023  -0.193  0.00  0.00    +0.058 C 
ATOM      5  C   UNL     1      -0.424  -3.560  -0.198  0.00  0.00    +0.143 C 
ATOM      6  N   UNL     1       0.647  -2.615  -0.557  0.00  0.00    -0.288 N 
ATOM      7  C   UNL     1       0.307  -1.346  -0.860  0.00  0.00    +0.307 C 
ATOM      8  O   UNL     1       1.183  -0.559  -1.162  0.00  0.00    -0.252 OA
ATOM      9  C   UNL     1      -3.079  -3.633   0.096  0.00  0.00    +0.247 C 
ATOM     10  O   UNL     1      -3.212  -4.800   0.416  0.00  0.00    -0.270 OA
ATOM     11  N   UNL     1      -4.092  -2.758  -0.029  0.00  0.00    -0.283 N 
ATOM     12  C   UNL     1      -3.508  -1.469  -0.428  0.00  0.00    +0.160 C 
ATOM     13  H   UNL     1       1.574  -2.899  -0.578  0.00  0.00    +0.151 HD
ENDROOT
BRANCH   5  14
ATOM     14  C   UNL     1      -0.367  -4.714  -1.166  0.00  0.00    -0.004 A 
ATOM     15  C   UNL     1      -1.366  -4.874  -2.109  0.00  0.00    +0.007 A 
ATOM     16  C   UNL     1      -1.314  -5.932  -2.997  0.00  0.00    +0.000 A 
ATOM     17  C   UNL     1      -0.264  -6.830  -2.944  0.00  0.00    +0.001 A 
ATOM     18  C   UNL     1       0.734  -6.671  -2.002  0.00  0.00    +0.020 A 
ATOM     19  C   UNL     1       0.686  -5.609  -1.116  0.00  0.00    +0.046 A 
ATOM     20 CL   UNL     1       1.944  -5.404   0.063  0.00  0.00    -0.083 Cl
ENDBRANCH   5  14
BRANCH  11  21
ATOM     21  C   UNL     1      -5.514  -3.037   0.191  0.00  0.00    +0.204 C 
BRANCH  21  22
ATOM     22  C   UNL     1      -5.860  -2.773   1.634  0.00  0.00    +0.231 C 
ATOM     23  O   UNL     1      -5.004  -2.390   2.402  0.00  0.00    -0.274 OA
ATOM     24  N   UNL     1      -7.121  -2.964   2.070  0.00  0.00    -0.310 N 
ATOM     25  H   UNL     1      -7.806  -3.270   1.455  0.00  0.00    +0.149 HD
BRANCH  24  26
ATOM     26  C   UNL     1      -7.457  -2.707   3.472  0.00  0.00    +0.140 C 
BRANCH  26  27
ATOM     27  C   UNL     1      -8.887  -3.110   3.727  0.00  0.00    -0.023 A 
ATOM     28  C   UNL     1      -9.867  -2.145   3.846  0.00  0.00    +0.006 A 
ATOM     29  C   UNL     1     -11.179  -2.513   4.080  0.00  0.00    +0.000 A 
ATOM     30  C   UNL     1     -11.518  -3.849   4.196  0.00  0.00    +0.001 A 
ATOM     31  C   UNL     1     -10.547  -4.822   4.079  0.00  0.00    +0.009 A 
ATOM     32  C   UNL     1      -9.223  -4.457   3.838  0.00  0.00    -0.013 A 
BRANCH  32  33
ATOM     33  C   UNL     1      -8.176  -5.500   3.705  0.00  0.00    -0.018 A 
ATOM     34  C   UNL     1      -8.306  -6.505   2.749  0.00  0.00    +0.008 A 
ATOM     35  C   UNL     1      -7.329  -7.471   2.630  0.00  0.00    +0.001 A 
ATOM     36  C   UNL     1      -6.221  -7.444   3.458  0.00  0.00    +0.000 A 
ATOM     37  C   UNL     1      -6.086  -6.449   4.409  0.00  0.00    +0.001 A 
ATOM     38  C   UNL     1      -7.055  -5.474   4.533  0.00  0.00    +0.008 A 
ENDBRANCH  32  33
ENDBRANCH  26  27
ENDBRANCH  24  26
ENDBRANCH  21  22
ENDBRANCH  11  21
TORSDOF 6
