REMARK  Name = ZINC39545944
REMARK  7 active torsions:
REMARK  status: ('A' for Active; 'I' for Inactive)
REMARK    1  A    between atoms: C_1  and  C_2
REMARK    2  A    between atoms: C_2  and  C_3
REMARK    3  A    between atoms: C_2  and  S_4
REMARK    4  A    between atoms: S_4  and  N_7
REMARK    5  A    between atoms: C_8  and  C_10
REMARK    6  A    between atoms: C_13  and  C_24
REMARK    7  A    between atoms: C_29  and  O_30
REMARK                            x       y       z     vdW  Elec       q    Type
REMARK                         _______ _______ _______ _____ _____    ______ ____
ROOT
ATOM      1  C   UNL     1      -1.712  -0.232   4.510  0.00  0.00    +0.153 C 
ATOM      2  C   UNL     1      -2.545   0.990   4.079  0.00  0.00    +0.069 C 
ATOM      3  C   UNL     1      -3.974   0.584   4.360  0.00  0.00    -0.000 C 
ATOM      4  C   UNL     1      -3.988  -0.646   4.852  0.00  0.00    +0.079 C 
ATOM      5  N   UNL     1      -5.122  -1.357   5.268  0.00  0.00    -0.303 N 
ATOM      6  C   UNL     1      -4.928  -2.172   6.397  0.00  0.00    +0.037 A 
ATOM      7  C   UNL     1      -6.009  -2.831   6.966  0.00  0.00    +0.023 A 
ATOM      8  C   UNL     1      -5.816  -3.640   8.069  0.00  0.00    +0.002 A 
ATOM      9  C   UNL     1      -4.548  -3.788   8.600  0.00  0.00    +0.000 A 
ATOM     10  C   UNL     1      -3.473  -3.128   8.037  0.00  0.00    +0.007 A 
ATOM     11  C   UNL     1      -3.656  -2.311   6.933  0.00  0.00    -0.010 A 
ATOM     12  C   UNL     1      -2.470  -1.585   6.356  0.00  0.00    +0.124 C 
ATOM     13  N   UNL     1      -2.709  -1.216   4.958  0.00  0.00    -0.369 NA
ATOM     14  H   UNL     1      -5.976  -1.292   4.812  0.00  0.00    +0.153 HD
ATOM     15  H   UNL     1      -2.656  -2.041   4.381  0.00  0.00    +0.128 HD
ENDROOT
BRANCH   3  16
ATOM     16  C   UNL     1      -5.163   1.425   4.124  0.00  0.00    +0.023 A 
ATOM     17  C   UNL     1      -5.819   2.030   5.197  0.00  0.00    +0.012 A 
ATOM     18  C   UNL     1      -6.931   2.815   4.970  0.00  0.00    +0.001 A 
ATOM     19  C   UNL     1      -7.399   3.004   3.682  0.00  0.00    +0.004 A 
ATOM     20  C   UNL     1      -6.758   2.409   2.610  0.00  0.00    +0.046 A 
ATOM     21  C   UNL     1      -5.637   1.624   2.821  0.00  0.00    +0.124 A 
BRANCH  21  22
ATOM     22  O   UNL     1      -5.003   1.043   1.768  0.00  0.00    -0.506 OA
ATOM     23  H   UNL     1      -5.338   0.164   1.543  0.00  0.00    +0.292 HD
ENDBRANCH  21  22
ENDBRANCH   3  16
BRANCH   1  25
ATOM     24  N   UNL     1       0.017  -0.011   2.755  0.00  0.00    -0.003 N 
ATOM     25  C   UNL     1      -0.927  -0.772   3.342  0.00  0.00    +0.283 C 
ATOM     26  O   UNL     1      -1.145  -1.893   2.931  0.00  0.00    -0.269 OA
ATOM     27  F   UNL     1       0.251   1.190   3.195  0.00  0.00    -0.083 F 
BRANCH  24  28
ATOM     28  S   UNL     1       0.879  -0.605   1.472  0.00  0.00    +0.076 S 
ATOM     29  O   UNL     1       0.754  -2.017   1.573  0.00  0.00    -0.153 OA
ATOM     30  O   UNL     1       2.152   0.018   1.571  0.00  0.00    -0.153 OA
BRANCH  28  32
ATOM     31  C   UNL     1      -0.019   1.526   0.010  0.00  0.00    +0.033 C 
ATOM     32  C   UNL     1       0.002  -0.004   0.002  0.00  0.00    +0.148 C 
ATOM     33  C   UNL     1       0.718  -0.497  -1.257  0.00  0.00    +0.033 C 
ENDBRANCH  28  32
ENDBRANCH  24  28
ENDBRANCH   1  25
TORSDOF 5
