REMARK  Name = ZINC13015347
REMARK  9 active torsions:
REMARK  status: ('A' for Active; 'I' for Inactive)
REMARK    1  A    between atoms: C_1  and  C_2
REMARK    2  A    between atoms: C_2  and  C_3
REMARK    3  A    between atoms: C_2  and  C_4
REMARK    4  A    between atoms: C_4  and  N_5
REMARK    5  A    between atoms: C_6  and  N_35
REMARK    6  A    between atoms: C_7  and  C_14
REMARK    7  A    between atoms: N_10  and  C_13
REMARK    8  A    between atoms: C_20  and  C_30
REMARK    9  A    between atoms: C_23  and  C_25
REMARK                            x       y       z     vdW  Elec       q    Type
REMARK                         _______ _______ _______ _____ _____    ______ ____
ROOT
ATOM      1  C   UNL     1       0.010   1.367  -0.016  0.00  0.00    +0.089 A 
ATOM      2  C   UNL     1       1.178   2.076   0.024  0.00  0.00    +0.077 A 
ATOM      3  S   UNL     1       2.374   0.749  -0.037  0.00  0.00    -0.058 S 
ATOM      4  C   UNL     1       1.206  -0.602  -0.109  0.00  0.00    +0.182 A 
ATOM      5  N   UNL     1       0.053   0.046  -0.082  0.00  0.00    -0.223 NA
ATOM      6  N   UNL     1       1.444  -1.964  -0.176  0.00  0.00    -0.190 N 
ATOM      7  C   UNL     1       2.770  -2.600  -0.202  0.00  0.00    +0.172 C 
ATOM      8  C   UNL     1       2.449  -4.106  -0.279  0.00  0.00    +0.090 C 
ATOM      9  C   UNL     1       0.938  -4.157  -0.288  0.00  0.00    +0.075 C 
ATOM     10  N   UNL     1       0.467  -2.956  -0.224  0.00  0.00    -0.181 NA
ENDROOT
BRANCH   1  13
ATOM     11  N   UNL     1      -3.378   2.628  -1.003  0.00  0.00    -0.281 N 
ATOM     12  C   UNL     1      -2.177   1.966  -1.059  0.00  0.00    +0.115 A 
ATOM     13  C   UNL     1      -1.295   2.073   0.007  0.00  0.00    +0.103 A 
ATOM     14  C   UNL     1      -1.662   2.874   1.113  0.00  0.00    +0.267 A 
ATOM     15  O   UNL     1      -0.907   2.993   2.063  0.00  0.00    -0.267 OA
ATOM     16  N   UNL     1      -2.853   3.504   1.109  0.00  0.00    -0.263 N 
ATOM     17  C   UNL     1      -3.693   3.381   0.067  0.00  0.00    +0.333 A 
ATOM     18  O   UNL     1      -4.761   3.962   0.091  0.00  0.00    -0.246 OA
ATOM     19  C   UNL     1      -3.237   4.334   2.253  0.00  0.00    +0.157 C 
BRANCH  12  20
ATOM     20  N   UNL     1      -1.855   1.204  -2.153  0.00  0.00    -0.344 N 
ATOM     21  H   UNL     1      -1.050   0.663  -2.147  0.00  0.00    +0.144 HD
ATOM     22  H   UNL     1      -2.432   1.207  -2.932  0.00  0.00    +0.144 HD
ENDBRANCH  12  20
BRANCH  11  23
ATOM     23  C   UNL     1      -4.322   2.519  -2.118  0.00  0.00    +0.131 C 
BRANCH  23  25
ATOM     24  C   UNL     1      -4.942   3.441  -4.356  0.00  0.00    +0.009 C 
ATOM     25  C   UNL     1      -4.041   3.628  -3.134  0.00  0.00    +0.003 C 
ATOM     26  C   UNL     1      -4.325   4.989  -2.495  0.00  0.00    +0.009 C 
ENDBRANCH  23  25
ENDBRANCH  11  23
ENDBRANCH   1  13
BRANCH   9  27
ATOM     27  C   UNL     1       0.132  -5.380  -0.353  0.00  0.00    +0.035 A 
ATOM     28  C   UNL     1      -1.245  -5.519  -0.361  0.00  0.00    +0.017 A 
ATOM     29  C   UNL     1      -1.773  -6.788  -0.431  0.00  0.00    +0.008 A 
ATOM     30  C   UNL     1      -0.935  -7.856  -0.481  0.00  0.00    +0.046 A 
ATOM     31  S   UNL     1       0.672  -7.080  -0.436  0.00  0.00    -0.095 S 
ENDBRANCH   9  27
BRANCH   7  32
ATOM     32  C   UNL     1       3.545  -2.161  -1.417  0.00  0.00    +0.127 A 
ATOM     33  C   UNL     1       4.863  -1.892  -1.456  0.00  0.00    +0.046 A 
ATOM     34  C   UNL     1       5.167  -1.521  -2.785  0.00  0.00    +0.041 A 
ATOM     35  C   UNL     1       4.016  -1.577  -3.479  0.00  0.00    +0.195 A 
ATOM     36  O   UNL     1       3.037  -1.965  -2.645  0.00  0.00    -0.466 OA
ENDBRANCH   7  32
TORSDOF 6
