REMARK  Name = ZINC13057484
REMARK  12 active torsions:
REMARK  status: ('A' for Active; 'I' for Inactive)
REMARK    1  A    between atoms: C_1  and  C_2
REMARK    2  A    between atoms: C_7  and  N_12
REMARK    3  A    between atoms: C_9  and  C_11
REMARK    4  A    between atoms: C_13  and  C_15
REMARK    5  A    between atoms: C_15  and  S_16
REMARK    6  A    between atoms: S_16  and  C_17
REMARK    7  A    between atoms: C_20  and  C_23
REMARK    8  A    between atoms: N_21  and  N_22
REMARK    9  A    between atoms: C_26  and  C_29
REMARK   10  A    between atoms: C_29  and  C_30
REMARK   11  A    between atoms: C_29  and  C_31
REMARK   12  A    between atoms: C_29  and  C_32
REMARK                            x       y       z     vdW  Elec       q    Type
REMARK                         _______ _______ _______ _____ _____    ______ ____
ROOT
ATOM      1  C   UNL     1       1.222   1.571   7.489  0.00  0.00    +0.209 A 
ATOM      2  N   UNL     1       1.939   0.478   7.349  0.00  0.00    -0.121 NA
ATOM      3  N   UNL     1       2.500   0.172   8.463  0.00  0.00    -0.127 NA
ATOM      4  C   UNL     1       2.176   1.051   9.384  0.00  0.00    +0.182 A 
ATOM      5  N   UNL     1       1.353   1.977   8.787  0.00  0.00    -0.224 N 
ENDROOT
BRANCH   4   6
ATOM      6  C   UNL     1       2.618   1.048  10.795  0.00  0.00    +0.021 A 
ATOM      7  C   UNL     1       1.968   1.850  11.734  0.00  0.00    +0.012 A 
ATOM      8  C   UNL     1       2.382   1.839  13.050  0.00  0.00    +0.005 A 
ATOM      9  C   UNL     1       3.446   1.044  13.437  0.00  0.00    -0.042 A 
ATOM     10  C   UNL     1       4.099   0.251  12.510  0.00  0.00    +0.005 A 
ATOM     11  C   UNL     1       3.691   0.249  11.192  0.00  0.00    +0.012 A 
BRANCH   9  12
ATOM     12  C   UNL     1       3.897   1.042  14.875  0.00  0.00    -0.013 C 
ATOM     13  C   UNL     1       5.355   1.501  14.954  0.00  0.00    +0.015 C 
ATOM     14  C   UNL     1       3.018   1.996  15.687  0.00  0.00    +0.015 C 
ATOM     15  C   UNL     1       3.776  -0.372  15.445  0.00  0.00    +0.015 C 
ENDBRANCH   9  12
ENDBRANCH   4   6
BRANCH   5  16
ATOM     16  N   UNL     1       0.782   3.072   9.370  0.00  0.00    -0.295 N 
ATOM     17  H   UNL     1      -0.119   2.844   9.762  0.00  0.00    +0.163 HD
ATOM     18  H   UNL     1       1.391   3.467  10.070  0.00  0.00    +0.163 HD
ENDBRANCH   5  16
BRANCH   1  19
ATOM     19  S   UNL     1       0.276   2.369   6.235  0.00  0.00    -0.075 S 
BRANCH  19  20
ATOM     20  C   UNL     1       0.608   1.264   4.840  0.00  0.00    +0.173 C 
BRANCH  20  22
ATOM     21  N   UNL     1      -0.020   1.094   2.454  0.00  0.00    -0.312 N 
ATOM     22  C   UNL     1      -0.121   1.763   3.619  0.00  0.00    +0.224 C 
ATOM     23  O   UNL     1      -0.798   2.767   3.686  0.00  0.00    -0.275 OA
ATOM     24  H   UNL     1       0.521   0.291   2.401  0.00  0.00    +0.149 HD
BRANCH  21  30
ATOM     25  C   UNL     1      -0.037   1.099  -2.490  0.00  0.00    +0.008 C 
ATOM     26  C   UNL     1      -0.753   1.593  -1.232  0.00  0.00    -0.009 C 
ATOM     27  C   UNL     1      -2.188   1.063  -1.221  0.00  0.00    +0.003 C 
ATOM     28  C   UNL     1      -2.904   1.556   0.038  0.00  0.00    +0.002 C 
ATOM     29  C   UNL     1      -2.164   1.050   1.278  0.00  0.00    +0.022 C 
ATOM     30  C   UNL     1      -0.729   1.579   1.267  0.00  0.00    +0.076 C 
ATOM     31  C   UNL     1      -0.013   1.086   0.008  0.00  0.00    +0.009 C 
ATOM     32  C   UNL     1       1.423   1.615  -0.003  0.00  0.00    +0.009 C 
ENDBRANCH  21  30
ENDBRANCH  20  22
ENDBRANCH  19  20
ENDBRANCH   1  19
TORSDOF 7
