REMARK  Name = ZINC39653324
REMARK  6 active torsions:
REMARK  status: ('A' for Active; 'I' for Inactive)
REMARK    1  A    between atoms: C_1  and  C_2
REMARK    2  A    between atoms: C_5  and  N_9
REMARK    3  A    between atoms: C_10  and  S_21
REMARK    4  A    between atoms: S_21  and  C_22
REMARK    5  A    between atoms: C_22  and  C_23
REMARK    6  A    between atoms: C_31  and  C_35
REMARK                            x       y       z     vdW  Elec       q    Type
REMARK                         _______ _______ _______ _____ _____    ______ ____
ROOT
ATOM      1  N   UNL     1       0.059  -4.171  -0.023  0.00  0.00    -0.239 N 
ATOM      2  C   UNL     1       0.180  -4.896   1.241  0.00  0.00    +0.227 C 
ATOM      3  N   UNL     1       0.926  -6.144   1.043  0.00  0.00    -0.317 N 
ATOM      4  C   UNL     1       0.640  -6.925  -0.071  0.00  0.00    +0.041 A 
ATOM      5  C   UNL     1       0.814  -8.299  -0.063  0.00  0.00    +0.024 A 
ATOM      6  C   UNL     1       0.527  -9.032  -1.198  0.00  0.00    +0.002 A 
ATOM      7  C   UNL     1       0.069  -8.403  -2.345  0.00  0.00    +0.001 A 
ATOM      8  C   UNL     1      -0.114  -7.036  -2.370  0.00  0.00    +0.015 A 
ATOM      9  C   UNL     1       0.166  -6.285  -1.230  0.00  0.00    +0.058 A 
ATOM     10  C   UNL     1      -0.041  -4.826  -1.197  0.00  0.00    +0.255 C 
ATOM     11  O   UNL     1      -0.295  -4.218  -2.219  0.00  0.00    -0.269 OA
ATOM     12  H   UNL     1       1.606  -6.419   1.677  0.00  0.00    +0.149 HD
ENDROOT
BRANCH   1  17
ATOM     13  C   UNL     1      -0.021   1.503   0.018  0.00  0.00    +0.047 C 
ATOM     14  C   UNL     1       0.000  -0.004   0.007  0.00  0.00    -0.015 A 
ATOM     15  C   UNL     1      -1.185  -0.712   0.089  0.00  0.00    +0.008 A 
ATOM     16  C   UNL     1      -1.168  -2.093   0.079  0.00  0.00    +0.024 A 
ATOM     17  C   UNL     1       0.040  -2.772  -0.014  0.00  0.00    +0.042 A 
ATOM     18  C   UNL     1       1.229  -2.061  -0.097  0.00  0.00    +0.062 A 
ATOM     19  C   UNL     1       1.207  -0.677  -0.091  0.00  0.00    +0.128 A 
ATOM     20  F   UNL     1       2.362   0.017  -0.177  0.00  0.00    -0.205 F 
ENDBRANCH   1  17
BRANCH   2  21
ATOM     21  S   UNL     1      -1.476  -5.285   1.872  0.00  0.00    -0.111 S 
BRANCH  21  22
ATOM     22  C   UNL     1      -2.215  -6.304   0.565  0.00  0.00    +0.146 C 
BRANCH  22  23
ATOM     23  C   UNL     1      -3.612  -6.702   0.967  0.00  0.00    +0.120 A 
ATOM     24  N   UNL     1      -4.332  -7.477   0.115  0.00  0.00    -0.310 N 
ATOM     25  H   UNL     1      -3.939  -7.758  -0.726  0.00  0.00    +0.170 HD
ATOM     26  C   UNL     1      -5.590  -7.861   0.430  0.00  0.00    +0.259 A 
ATOM     27  O   UNL     1      -6.246  -8.556  -0.324  0.00  0.00    -0.267 OA
ATOM     28  C   UNL     1      -6.136  -7.406   1.721  0.00  0.00    +0.065 A 
ATOM     29  C   UNL     1      -7.421  -7.748   2.136  0.00  0.00    +0.016 A 
ATOM     30  C   UNL     1      -7.887  -7.305   3.341  0.00  0.00    +0.016 A 
ATOM     31  C   UNL     1      -7.083  -6.507   4.166  0.00  0.00    +0.065 A 
ATOM     32  C   UNL     1      -5.798  -6.154   3.770  0.00  0.00    +0.043 A 
ATOM     33  C   UNL     1      -5.312  -6.603   2.540  0.00  0.00    +0.079 A 
ATOM     34  N   UNL     1      -4.063  -6.290   2.113  0.00  0.00    -0.233 NA
BRANCH  31  35
ATOM     35  C   UNL     1      -7.606  -6.037   5.467  0.00  0.00    +0.387 C 
ATOM     36  O   UNL     1      -8.735  -6.345   5.819  0.00  0.00    -0.241 OA
ATOM     37  O   UNL     1      -6.908  -5.341   6.190  0.00  0.00    -0.241 OA
ENDBRANCH  31  35
ENDBRANCH  22  23
ENDBRANCH  21  22
ENDBRANCH   2  21
TORSDOF 5
