REMARK  Name = ZINC03838396
REMARK  10 active torsions:
REMARK  status: ('A' for Active; 'I' for Inactive)
REMARK    1  A    between atoms: C_1  and  C_2
REMARK    2  A    between atoms: C_2  and  C_3
REMARK    3  A    between atoms: C_2  and  C_4
REMARK    4  A    between atoms: C_4  and  C_5
REMARK    5  A    between atoms: C_5  and  C_7
REMARK    6  A    between atoms: C_5  and  N_10
REMARK    7  A    between atoms: C_11  and  C_13
REMARK    8  A    between atoms: C_16  and  N_27
REMARK    9  A    between atoms: C_20  and  C_22
REMARK   10  A    between atoms: C_28  and  C_30
REMARK                            x       y       z     vdW  Elec       q    Type
REMARK                         _______ _______ _______ _____ _____    ______ ____
ROOT
ATOM      1  C   UNL     1       3.655   1.816  -0.560  0.00  0.00    +0.164 C 
ATOM      2  C   UNL     1       3.705   3.000  -1.548  0.00  0.00    +0.055 C 
ATOM      3  C   UNL     1       5.143   2.911  -2.125  0.00  0.00    +0.093 C 
ATOM      4  C   UNL     1       5.362   1.379  -2.180  0.00  0.00    +0.131 C 
ATOM      5  N   UNL     1       4.692   0.858  -0.974  0.00  0.00    -0.282 N 
ATOM      6  C   UNL     1       4.981  -0.303  -0.353  0.00  0.00    +0.283 C 
ATOM      7  O   UNL     1       4.360  -0.633   0.639  0.00  0.00    -0.267 OA
ENDROOT
BRANCH   6   8
ATOM      8  C   UNL     1       6.045  -1.167  -0.875  0.00  0.00    +0.189 A 
ATOM      9  C   UNL     1       6.438  -2.363  -0.346  0.00  0.00    +0.054 A 
ATOM     10  C   UNL     1       7.478  -2.841  -1.159  0.00  0.00    +0.042 A 
ATOM     11  C   UNL     1       7.671  -1.928  -2.136  0.00  0.00    +0.196 A 
ATOM     12  O   UNL     1       6.803  -0.923  -1.964  0.00  0.00    -0.458 OA
ENDBRANCH   6   8
BRANCH   1  14
ATOM     13  N   UNL     1       1.263   1.696   0.058  0.00  0.00    -0.302 N 
ATOM     14  C   UNL     1       2.300   1.159  -0.616  0.00  0.00    +0.234 C 
ATOM     15  O   UNL     1       2.142   0.148  -1.266  0.00  0.00    -0.274 OA
ATOM     16  H   UNL     1       1.389   2.505   0.578  0.00  0.00    +0.150 HD
BRANCH  13  17
ATOM     17  C   UNL     1      -0.054   1.058   0.004  0.00  0.00    +0.159 C 
BRANCH  17  18
ATOM     18  C   UNL     1      -0.792   1.531  -1.222  0.00  0.00    +0.231 C 
ATOM     19  O   UNL     1      -0.269   2.324  -1.976  0.00  0.00    -0.274 OA
ATOM     20  N   UNL     1      -2.034   1.074  -1.480  0.00  0.00    -0.328 N 
ATOM     21  H   UNL     1      -2.452   0.440  -0.876  0.00  0.00    +0.145 HD
ATOM     22  H   UNL     1      -2.509   1.379  -2.269  0.00  0.00    +0.145 HD
ENDBRANCH  17  18
BRANCH  17  23
ATOM     23  C   UNL     1      -0.853   1.429   1.255  0.00  0.00    +0.034 C 
BRANCH  23  25
ATOM     24  C   UNL     1      -0.862   1.369   3.753  0.00  0.00    +0.007 C 
ATOM     25  C   UNL     1      -0.145   0.876   2.494  0.00  0.00    -0.015 C 
ATOM     26  C   UNL     1      -0.174  -0.653   2.457  0.00  0.00    +0.007 C 
ENDBRANCH  23  25
ENDBRANCH  17  23
ENDBRANCH  13  17
ENDBRANCH   1  14
BRANCH   3  27
ATOM     27  N   UNL     1       5.208   3.499  -3.465  0.00  0.00    -0.304 N 
ATOM     28  C   UNL     1       6.398   3.863  -3.984  0.00  0.00    +0.280 C 
ATOM     29  O   UNL     1       7.417   3.704  -3.339  0.00  0.00    -0.267 OA
ATOM     30  H   UNL     1       4.396   3.626  -3.979  0.00  0.00    +0.149 HD
BRANCH  28  31
ATOM     31  C   UNL     1       6.463   4.452  -5.326  0.00  0.00    +0.189 A 
ATOM     32  C   UNL     1       7.595   4.868  -5.965  0.00  0.00    +0.054 A 
ATOM     33  C   UNL     1       7.195   5.357  -7.218  0.00  0.00    +0.042 A 
ATOM     34  C   UNL     1       5.851   5.229  -7.284  0.00  0.00    +0.196 A 
ATOM     35  O   UNL     1       5.414   4.683  -6.142  0.00  0.00    -0.458 OA
ENDBRANCH  28  31
ENDBRANCH   3  27
TORSDOF 8
