REMARK  Name = ZINC14470698
REMARK  6 active torsions:
REMARK  status: ('A' for Active; 'I' for Inactive)
REMARK    1  A    between atoms: C_1  and  O_2
REMARK    2  A    between atoms: O_2  and  C_3
REMARK    3  A    between atoms: C_6  and  O_29
REMARK    4  A    between atoms: C_16  and  C_19
REMARK    5  A    between atoms: C_23  and  N_25
REMARK    6  A    between atoms: O_29  and  C_30
REMARK                            x       y       z     vdW  Elec       q    Type
REMARK                         _______ _______ _______ _____ _____    ______ ____
ROOT
ATOM      1  C   UNL     1      -2.312   0.088  -0.607  0.00  0.00    +0.126 A 
ATOM      2  C   UNL     1      -3.466  -0.437  -1.168  0.00  0.00    +0.049 A 
ATOM      3  C   UNL     1      -4.437   0.417  -1.659  0.00  0.00    +0.051 A 
ATOM      4  C   UNL     1      -4.256   1.784  -1.597  0.00  0.00    +0.141 A 
ATOM      5  C   UNL     1      -3.094   2.330  -1.039  0.00  0.00    +0.077 A 
ATOM      6  C   UNL     1      -2.128   1.458  -0.534  0.00  0.00    +0.026 A 
ATOM      7  C   UNL     1      -0.911   2.034   0.065  0.00  0.00    +0.052 C 
ATOM      8  C   UNL     1       0.409   1.358   0.068  0.00  0.00    -0.022 C 
ATOM      9  C   UNL     1       1.359   2.287   0.041  0.00  0.00    -0.030 C 
ATOM     10  C   UNL     1       0.725   3.679  -0.014  0.00  0.00    +0.033 C 
ATOM     11  C   UNL     1      -0.624   3.374  -0.675  0.00  0.00    +0.029 C 
ATOM     12  C   UNL     1      -1.794   4.279  -0.349  0.00  0.00    +0.105 C 
ATOM     13  N   UNL     1      -2.975   3.721  -1.028  0.00  0.00    -0.334 N 
ATOM     14  H   UNL     1      -3.069   4.099  -1.959  0.00  0.00    +0.147 HD
ENDROOT
BRANCH  12  15
ATOM     15  C   UNL     1      -2.024   4.305   1.140  0.00  0.00    -0.025 A 
ATOM     16  C   UNL     1      -1.336   5.208   1.929  0.00  0.00    +0.007 A 
ATOM     17  C   UNL     1      -1.546   5.233   3.295  0.00  0.00    +0.022 A 
ATOM     18  C   UNL     1      -2.444   4.354   3.873  0.00  0.00    +0.071 A 
ATOM     19  C   UNL     1      -3.132   3.451   3.083  0.00  0.00    +0.145 A 
ATOM     20  C   UNL     1      -2.926   3.430   1.716  0.00  0.00    +0.039 A 
ATOM     21 CL   UNL     1      -2.709   4.385   5.588  0.00  0.00    -0.081 Cl
BRANCH  19  22
ATOM     22  N   UNL     1      -4.094   2.510   3.700  0.00  0.00    +0.058 N 
ATOM     23  O   UNL     1      -4.699   1.714   3.004  0.00  0.00    -0.126 OA
ATOM     24  O   UNL     1      -4.279   2.530   4.904  0.00  0.00    -0.126 OA
ENDBRANCH  19  22
ENDBRANCH  12  15
BRANCH   1  26
ATOM     25  C   UNL     1      -1.607  -2.151  -0.228  0.00  0.00    +0.277 C 
ATOM     26  O   UNL     1      -1.355  -0.748  -0.124  0.00  0.00    -0.495 OA
ENDBRANCH   1  26
BRANCH   4  27
ATOM     27  O   UNL     1      -5.219   2.612  -2.086  0.00  0.00    -0.493 OA
ATOM     28  C   UNL     1      -6.382   1.996  -2.643  0.00  0.00    +0.277 C 
ENDBRANCH   4  27
TORSDOF 4
