REMARK  Name = ZINC44982806
REMARK  5 active torsions:
REMARK  status: ('A' for Active; 'I' for Inactive)
REMARK    1  A    between atoms: C_3  and  C_9
REMARK    2  A    between atoms: C_4  and  N_8
REMARK    3  A    between atoms: C_6  and  N_7
REMARK    4  A    between atoms: N_13  and  C_14
REMARK    5  A    between atoms: C_14  and  C_15
REMARK                            x       y       z     vdW  Elec       q    Type
REMARK                         _______ _______ _______ _____ _____    ______ ____
ROOT
ATOM      1  C   UNL     1       0.421   0.877   0.720  0.00  0.00    +0.023 A 
ATOM      2  C   UNL     1       1.538   1.683   0.760  0.00  0.00    +0.015 A 
ATOM      3  C   UNL     1       2.623   1.413  -0.075  0.00  0.00    +0.041 A 
ATOM      4  C   UNL     1       2.572   0.321  -0.954  0.00  0.00    +0.037 A 
ATOM      5  C   UNL     1       1.444  -0.484  -0.987  0.00  0.00    +0.046 A 
ATOM      6  C   UNL     1       0.370  -0.207  -0.152  0.00  0.00    +0.026 A 
ENDROOT
BRANCH   3   7
ATOM      7  C   UNL     1       3.821   2.276  -0.035  0.00  0.00    +0.184 A 
ATOM      8  N   UNL     1       5.074   1.876   0.049  0.00  0.00    -0.108 NA
ATOM      9  N   UNL     1       5.868   2.885   0.062  0.00  0.00    -0.023 NA
ATOM     10  N   UNL     1       5.203   3.986  -0.010  0.00  0.00    -0.044 NA
ATOM     11  N   UNL     1       3.842   3.638  -0.082  0.00  0.00    -0.225 N 
BRANCH  11  12
ATOM     12  C   UNL     1       2.695   4.543  -0.184  0.00  0.00    +0.153 C 
BRANCH  12  13
ATOM     13  C   UNL     1       2.301   4.705  -1.653  0.00  0.00    +0.036 C 
ATOM     14  C   UNL     1       1.025   5.546  -1.752  0.00  0.00    +0.010 C 
ATOM     15  C   UNL     1       0.684   5.766  -3.229  0.00  0.00    +0.028 C 
ATOM     16  C   UNL     1       1.874   6.431  -3.926  0.00  0.00    +0.160 C 
ATOM     17  O   UNL     1       3.035   5.612  -3.770  0.00  0.00    -0.379 OA
ATOM     18  C   UNL     1       3.429   5.410  -2.411  0.00  0.00    +0.165 C 
ENDBRANCH  12  13
ENDBRANCH  11  12
ENDBRANCH   3   7
BRANCH   6  19
ATOM     19  N   UNL     1      -0.764  -1.018  -0.187  0.00  0.00    -0.358 N 
ATOM     20  H   UNL     1      -1.516  -0.826   0.396  0.00  0.00    +0.142 HD
ATOM     21  H   UNL     1      -0.801  -1.773  -0.794  0.00  0.00    +0.142 HD
ENDBRANCH   6  19
BRANCH   4  22
ATOM     22  N   UNL     1       3.651   0.046  -1.791  0.00  0.00    -0.357 N 
ATOM     23  H   UNL     1       4.466   0.566  -1.717  0.00  0.00    +0.142 HD
ATOM     24  H   UNL     1       3.587  -0.665  -2.447  0.00  0.00    +0.142 HD
ENDBRANCH   4  22
TORSDOF 5
