REMARK  Name = ZINC13311064
REMARK  5 active torsions:
REMARK  status: ('A' for Active; 'I' for Inactive)
REMARK    1  A    between atoms: C_4  and  C_24
REMARK    2  A    between atoms: C_6  and  S_7
REMARK    3  A    between atoms: S_7  and  N_10
REMARK    4  A    between atoms: N_10  and  C_11
REMARK    5  A    between atoms: C_11  and  C_12
REMARK                            x       y       z     vdW  Elec       q    Type
REMARK                         _______ _______ _______ _____ _____    ______ ____
ROOT
ATOM      1  N   UNL     1      -0.422   7.293  -3.695  0.00  0.00    -0.186 NA
ATOM      2  H   UNL     1      -1.105   6.700  -4.047  0.00  0.00    +0.148 HD
ENDROOT
BRANCH   1   3
ATOM      3  S   UNL     1      -0.480   8.914  -4.027  0.00  0.00    +0.059 S 
ATOM      4  O   UNL     1      -1.614   9.117  -4.860  0.00  0.00    -0.153 OA
ATOM      5  O   UNL     1      -0.314   9.589  -2.788  0.00  0.00    -0.153 OA
BRANCH   3  11
ATOM      6  C   UNL     1       2.115   9.679  -4.388  0.00  0.00    +0.029 A 
ATOM      7  C   UNL     1       3.234   9.976  -5.145  0.00  0.00    +0.018 A 
ATOM      8  C   UNL     1       3.178   9.903  -6.522  0.00  0.00    +0.032 A 
ATOM      9  C   UNL     1       1.989   9.523  -7.150  0.00  0.00    +0.079 A 
ATOM     10  C   UNL     1       0.866   9.220  -6.378  0.00  0.00    +0.044 A 
ATOM     11  C   UNL     1       0.936   9.297  -5.003  0.00  0.00    +0.106 A 
ATOM     12 BR   UNL     1       4.706  10.316  -7.557  0.00  0.00    -0.049 Br
BRANCH   9  13
ATOM     13  C   UNL     1       1.920   9.442  -8.623  0.00  0.00    +0.388 C 
ATOM     14  O   UNL     1       2.899   9.707  -9.292  0.00  0.00    -0.241 OA
ATOM     15  O   UNL     1       0.772   9.075  -9.225  0.00  0.00    -0.241 OA
ENDBRANCH   9  13
ENDBRANCH   3  11
ENDBRANCH   1   3
BRANCH   1  16
ATOM     16  C   UNL     1       0.661   6.753  -2.869  0.00  0.00    +0.141 C 
BRANCH  16  17
ATOM     17  C   UNL     1       0.299   5.363  -2.412  0.00  0.00    -0.027 A 
ATOM     18  C   UNL     1      -0.386   5.184  -1.223  0.00  0.00    +0.054 A 
ATOM     19  C   UNL     1      -0.717   3.906  -0.807  0.00  0.00    +0.164 A 
ATOM     20  C   UNL     1      -0.361   2.809  -1.579  0.00  0.00    +0.180 A 
ATOM     21  C   UNL     1       0.324   2.991  -2.769  0.00  0.00    +0.086 A 
ATOM     22  C   UNL     1       0.653   4.271  -3.182  0.00  0.00    +0.029 A 
ATOM     23 CL   UNL     1       0.769   1.621  -3.737  0.00  0.00    -0.080 Cl
ATOM     24  O   UNL     1      -0.692   1.553  -1.159  0.00  0.00    -0.487 OA
ATOM     25  C   UNL     1      -0.013   1.086   0.008  0.00  0.00    +0.232 C 
ATOM     26  C   UNL     1      -0.712   1.570   1.269  0.00  0.00    +0.082 C 
ATOM     27  C   UNL     1      -0.662   3.083   1.413  0.00  0.00    +0.232 C 
ATOM     28  O   UNL     1      -1.394   3.716   0.363  0.00  0.00    -0.488 OA
ENDBRANCH  16  17
ENDBRANCH   1  16
TORSDOF 5
