REMARK  Name = ZINC19821395
REMARK  5 active torsions:
REMARK  status: ('A' for Active; 'I' for Inactive)
REMARK    1  A    between atoms: C_1  and  C_2
REMARK    2  A    between atoms: C_2  and  N_3
REMARK    3  A    between atoms: C_4  and  C_6
REMARK    4  A    between atoms: C_23  and  C_26
REMARK    5  A    between atoms: C_26  and  C_27
REMARK                            x       y       z     vdW  Elec       q    Type
REMARK                         _______ _______ _______ _____ _____    ______ ____
ROOT
ATOM      1  C   UNL     1      -4.342   0.859   2.308  0.00  0.00    +0.122 C 
ATOM      2  C   UNL     1      -4.324  -0.664   2.173  0.00  0.00    +0.114 C 
ATOM      3  C   UNL     1      -5.688  -1.218   2.489  0.00  0.00    +0.219 C 
ATOM      4  O   UNL     1      -6.114  -2.161   1.856  0.00  0.00    -0.275 OA
ATOM      5  N   UNL     1      -6.439  -0.678   3.463  0.00  0.00    -0.270 N 
ATOM      6  C   UNL     1      -6.033   0.471   4.119  0.00  0.00    +0.138 A 
ATOM      7  C   UNL     1      -5.007   1.243   3.603  0.00  0.00    +0.069 A 
ATOM      8  C   UNL     1      -4.598   2.384   4.299  0.00  0.00    +0.258 A 
ATOM      9  O   UNL     1      -3.691   3.082   3.873  0.00  0.00    -0.267 OA
ATOM     10  N   UNL     1      -5.226   2.699   5.452  0.00  0.00    -0.295 N 
ATOM     11  H   UNL     1      -4.916   3.587   6.022  0.00  0.00    +0.172 HD
ATOM     12  C   UNL     1      -6.242   1.918   5.909  0.00  0.00    +0.200 A 
ATOM     13  N   UNL     1      -6.629   0.842   5.259  0.00  0.00    -0.200 NA
ATOM     14  N   UNL     1      -6.878   2.261   7.073  0.00  0.00    -0.301 N 
ATOM     15  C   UNL     1      -5.909   2.501   8.150  0.00  0.00    +0.108 C 
ATOM     16  C   UNL     1      -6.641   3.021   9.390  0.00  0.00    +0.023 C 
ATOM     17  C   UNL     1      -7.681   1.988   9.833  0.00  0.00    -0.004 C 
ATOM     18  C   UNL     1      -8.648   1.720   8.677  0.00  0.00    +0.023 C 
ATOM     19  C   UNL     1      -7.858   1.238   7.458  0.00  0.00    +0.108 C 
ATOM     20  H   UNL     1      -7.391  -1.149   3.750  0.00  0.00    +0.156 HD
ENDROOT
BRANCH   1  22
ATOM     21  N   UNL     1      -2.567   2.331   1.413  0.00  0.00    -0.315 N 
ATOM     22  C   UNL     1      -2.928   1.381   2.298  0.00  0.00    +0.221 C 
ATOM     23  O   UNL     1      -2.115   0.946   3.085  0.00  0.00    -0.275 OA
ATOM     24  H   UNL     1      -3.304   2.726   0.698  0.00  0.00    +0.149 HD
BRANCH  21  26
ATOM     25  C   UNL     1      -1.049   3.901   0.311  0.00  0.00    +0.024 C 
ATOM     26  C   UNL     1      -1.192   2.838   1.402  0.00  0.00    +0.101 C 
ENDBRANCH  21  26
ENDBRANCH   1  22
BRANCH  17  27
ATOM     27  C   UNL     1      -8.458   2.526  11.036  0.00  0.00    +0.038 C 
BRANCH  27  28
ATOM     28  C   UNL     1      -7.526   2.674  12.211  0.00  0.00    -0.047 A 
ATOM     29  C   UNL     1      -7.354   1.623  13.093  0.00  0.00    +0.003 A 
ATOM     30  C   UNL     1      -6.496   1.756  14.168  0.00  0.00    +0.000 A 
ATOM     31  C   UNL     1      -5.817   2.944  14.368  0.00  0.00    +0.000 A 
ATOM     32  C   UNL     1      -5.993   3.996  13.489  0.00  0.00    +0.000 A 
ATOM     33  C   UNL     1      -6.848   3.861  12.411  0.00  0.00    +0.003 A 
ENDBRANCH  27  28
ENDBRANCH  17  27
TORSDOF 4
