REMARK  Name = ZINC13630196
REMARK  7 active torsions:
REMARK  status: ('A' for Active; 'I' for Inactive)
REMARK    1  A    between atoms: C_5  and  C_7
REMARK    2  A    between atoms: N_9  and  C_10
REMARK    3  A    between atoms: C_10  and  N_12
REMARK    4  A    between atoms: N_12  and  N_13
REMARK    5  A    between atoms: C_14  and  C_16
REMARK    6  A    between atoms: N_21  and  C_23
REMARK    7  A    between atoms: C_23  and  C_24
REMARK                            x       y       z     vdW  Elec       q    Type
REMARK                         _______ _______ _______ _____ _____    ______ ____
ROOT
ATOM      1  N   UNL     1       0.967   1.071   2.898  0.00  0.00    -0.235 N 
ATOM      2  C   UNL     1       0.158   1.998   2.346  0.00  0.00    +0.234 C 
ATOM      3  O   UNL     1       0.192   3.144   2.741  0.00  0.00    -0.274 OA
ATOM      4  H   UNL     1       0.940   0.154   2.583  0.00  0.00    +0.173 HD
ENDROOT
BRANCH   2   5
ATOM      5  C   UNL     1      -0.787   1.610   1.239  0.00  0.00    +0.102 C 
ATOM      6  C   UNL     1      -0.013   1.086   0.008  0.00  0.00    +0.110 C 
ATOM      7  C   UNL     1      -0.793   1.611  -1.176  0.00  0.00    +0.217 C 
ATOM      8  O   UNL     1      -0.688   1.204  -2.314  0.00  0.00    -0.276 OA
ATOM      9  N   UNL     1      -1.622   2.595  -0.785  0.00  0.00    -0.293 N 
ATOM     10  C   UNL     1      -1.500   2.852   0.655  0.00  0.00    +0.121 C 
BRANCH   9  11
ATOM     11  C   UNL     1      -2.529   3.317  -1.680  0.00  0.00    +0.182 C 
BRANCH  11  12
ATOM     12  C   UNL     1      -3.857   2.605  -1.730  0.00  0.00    +0.122 A 
ATOM     13  C   UNL     1      -4.902   2.833  -0.914  0.00  0.00    +0.046 A 
ATOM     14  C   UNL     1      -5.932   1.950  -1.312  0.00  0.00    +0.041 A 
ATOM     15  C   UNL     1      -5.454   1.235  -2.347  0.00  0.00    +0.195 A 
ATOM     16  O   UNL     1      -4.199   1.640  -2.599  0.00  0.00    -0.466 OA
ENDBRANCH  11  12
ENDBRANCH   9  11
ENDBRANCH   2   5
BRANCH   1  17
ATOM     17  N   UNL     1       1.846   1.432   3.927  0.00  0.00    -0.246 N 
ATOM     18  H   UNL     1       1.873   2.349   4.243  0.00  0.00    +0.172 HD
BRANCH  17  19
ATOM     19  C   UNL     1       2.654   0.505   4.479  0.00  0.00    +0.153 C 
ATOM     20  S   UNL     1       3.729   0.947   5.737  0.00  0.00    -0.017 S 
BRANCH  19  23
ATOM     21  C   UNL     1       3.425  -1.695   4.592  0.00  0.00    +0.251 C 
ATOM     22  O   UNL     1       4.188  -1.382   5.485  0.00  0.00    -0.270 OA
ATOM     23  N   UNL     1       2.617  -0.768   4.041  0.00  0.00    -0.263 N 
ATOM     24  H   UNL     1       2.008  -1.018   3.328  0.00  0.00    +0.157 HD
BRANCH  21  29
ATOM     25  C   UNL     1       2.474  -4.760   2.643  0.00  0.00    +0.001 A 
ATOM     26  C   UNL     1       3.305  -5.710   3.211  0.00  0.00    +0.001 A 
ATOM     27  C   UNL     1       4.176  -5.358   4.227  0.00  0.00    +0.016 A 
ATOM     28  C   UNL     1       4.220  -4.054   4.681  0.00  0.00    +0.030 A 
ATOM     29  C   UNL     1       3.384  -3.091   4.112  0.00  0.00    +0.051 A 
ATOM     30  C   UNL     1       2.504  -3.456   3.090  0.00  0.00    +0.014 A 
ATOM     31 BR   UNL     1       5.410  -3.575   6.071  0.00  0.00    -0.050 Br
ENDBRANCH  21  29
ENDBRANCH  19  23
ENDBRANCH  17  19
ENDBRANCH   1  17
TORSDOF 7
