REMARK  Name = ZINC04774206
REMARK  3 active torsions:
REMARK  status: ('A' for Active; 'I' for Inactive)
REMARK    1  A    between atoms: C_4  and  N_14
REMARK    2  A    between atoms: C_5  and  C_7
REMARK    3  A    between atoms: C_12  and  N_13
REMARK                            x       y       z     vdW  Elec       q    Type
REMARK                         _______ _______ _______ _____ _____    ______ ____
ROOT
ATOM      1  C   UNL     1      -2.996  -2.615  -1.086  0.00  0.00    +0.001 A 
ATOM      2  C   UNL     1      -2.493  -3.317  -0.005  0.00  0.00    +0.002 A 
ATOM      3  C   UNL     1      -1.971  -2.641   1.083  0.00  0.00    +0.033 A 
ATOM      4  C   UNL     1      -1.945  -1.261   1.094  0.00  0.00    +0.134 A 
ATOM      5  C   UNL     1      -2.455  -0.549   0.010  0.00  0.00    +0.017 A 
ATOM      6  C   UNL     1      -2.979  -1.235  -1.084  0.00  0.00    +0.011 A 
ENDROOT
BRANCH   5   7
ATOM      7  C   UNL     1      -2.435   0.934   0.019  0.00  0.00    +0.042 A 
ATOM      8  C   UNL     1      -3.620   1.667   0.028  0.00  0.00    +0.124 A 
ATOM      9  N   UNL     1      -3.557   2.989   0.035  0.00  0.00    -0.243 NA
ATOM     10  C   UNL     1      -2.398   3.617   0.033  0.00  0.00    +0.223 A 
ATOM     11  N   UNL     1      -1.251   2.970   0.030  0.00  0.00    -0.221 NA
ATOM     12  C   UNL     1      -1.218   1.641   0.017  0.00  0.00    +0.127 A 
BRANCH  12  13
ATOM     13  N   UNL     1      -0.011   0.966   0.007  0.00  0.00    -0.343 N 
ATOM     14  H   UNL     1       0.002  -0.004   0.002  0.00  0.00    +0.144 HD
ATOM     15  H   UNL     1       0.822   1.462   0.002  0.00  0.00    +0.144 HD
ENDBRANCH  12  13
ENDBRANCH   5   7
BRANCH   4  16
ATOM     16  N   UNL     1      -1.381  -0.540   2.256  0.00  0.00    +0.057 N 
ATOM     17  O   UNL     1      -0.935  -1.163   3.203  0.00  0.00    -0.126 OA
ATOM     18  O   UNL     1      -1.362   0.678   2.267  0.00  0.00    -0.126 OA
ENDBRANCH   4  16
TORSDOF 3
