REMARK  Name = ZINC12779351
REMARK  8 active torsions:
REMARK  status: ('A' for Active; 'I' for Inactive)
REMARK    1  A    between atoms: C_1  and  C_2
REMARK    2  A    between atoms: C_2  and  C_3
REMARK    3  A    between atoms: C_3  and  C_29
REMARK    4  A    between atoms: N_6  and  N_10
REMARK    5  A    between atoms: C_11  and  C_13
REMARK    6  A    between atoms: C_13  and  N_14
REMARK    7  A    between atoms: N_14  and  S_15
REMARK    8  A    between atoms: S_15  and  C_18
REMARK                            x       y       z     vdW  Elec       q    Type
REMARK                         _______ _______ _______ _____ _____    ______ ____
ROOT
ATOM      1  N   UNL     1      -3.773   1.696  -2.663  0.00  0.00    -0.223 N 
ATOM      2  C   UNL     1      -3.812   0.589  -3.430  0.00  0.00    +0.245 C 
ATOM      3  O   UNL     1      -3.167  -0.390  -3.116  0.00  0.00    -0.273 OA
ATOM      4  H   UNL     1      -4.289   2.478  -2.914  0.00  0.00    +0.174 HD
ENDROOT
BRANCH   1   8
ATOM      5  C   UNL     1      -1.332   2.114   0.020  0.00  0.00    +0.139 C 
ATOM      6  C   UNL     1      -1.812   2.367  -1.395  0.00  0.00    +0.268 C 
ATOM      7  O   UNL     1      -1.255   3.018  -2.253  0.00  0.00    -0.271 OA
ATOM      8  N   UNL     1      -2.988   1.717  -1.502  0.00  0.00    -0.137 N 
ATOM      9  C   UNL     1      -3.314   1.095  -0.363  0.00  0.00    +0.327 C 
ATOM     10  O   UNL     1      -4.329   0.444  -0.216  0.00  0.00    -0.251 OA
ATOM     11  N   UNL     1      -2.392   1.272   0.600  0.00  0.00    -0.280 N 
ATOM     12  H   UNL     1      -2.420   0.914   1.502  0.00  0.00    +0.152 HD
BRANCH   5  13
ATOM     13  C   UNL     1      -0.017   1.378   0.010  0.00  0.00    -0.015 A 
ATOM     14  C   UNL     1       1.171   2.086   0.002  0.00  0.00    +0.006 A 
ATOM     15  C   UNL     1       2.377   1.411  -0.015  0.00  0.00    +0.000 A 
ATOM     16  C   UNL     1       2.396   0.029  -0.022  0.00  0.00    +0.000 A 
ATOM     17  C   UNL     1       1.208  -0.679  -0.013  0.00  0.00    +0.000 A 
ATOM     18  C   UNL     1       0.002  -0.004   0.002  0.00  0.00    +0.006 A 
ENDBRANCH   5  13
BRANCH   5  20
ATOM     19  C   UNL     1      -2.578   4.096   0.891  0.00  0.00    +0.007 C 
ATOM     20  C   UNL     1      -1.204   3.431   0.788  0.00  0.00    +0.037 C 
ENDBRANCH   5  20
ENDBRANCH   1   8
BRANCH   2  21
ATOM     21  C   UNL     1      -4.656   0.566  -4.678  0.00  0.00    +0.203 C 
BRANCH  21  22
ATOM     22  N   UNL     1      -4.528  -0.740  -5.330  0.00  0.00    -0.181 NA
ATOM     23  H   UNL     1      -3.810  -1.341  -5.077  0.00  0.00    +0.149 HD
BRANCH  22  24
ATOM     24  S   UNL     1      -5.610  -1.190  -6.501  0.00  0.00    +0.059 S 
ATOM     25  O   UNL     1      -5.209  -2.477  -6.951  0.00  0.00    -0.153 OA
ATOM     26  O   UNL     1      -6.906  -0.936  -5.976  0.00  0.00    -0.153 OA
BRANCH  24  27
ATOM     27  C   UNL     1      -5.393  -0.091  -7.861  0.00  0.00    +0.109 A 
ATOM     28  C   UNL     1      -4.492  -0.402  -8.862  0.00  0.00    +0.032 A 
ATOM     29  C   UNL     1      -4.317   0.456  -9.933  0.00  0.00    +0.051 A 
ATOM     30  C   UNL     1      -5.049   1.629  -9.999  0.00  0.00    +0.162 A 
ATOM     31  C   UNL     1      -5.954   1.942  -8.994  0.00  0.00    +0.164 A 
ATOM     32  C   UNL     1      -6.130   1.079  -7.926  0.00  0.00    +0.078 A 
ATOM     33  O   UNL     1      -6.670   3.101  -9.069  0.00  0.00    -0.488 OA
ATOM     34  C   UNL     1      -5.921   4.309  -8.916  0.00  0.00    +0.232 C 
ATOM     35  C   UNL     1      -5.308   4.734 -10.241  0.00  0.00    +0.082 C 
ATOM     36  C   UNL     1      -4.275   3.739 -10.747  0.00  0.00    +0.232 C 
ATOM     37  O   UNL     1      -4.887   2.484 -11.051  0.00  0.00    -0.488 OA
ENDBRANCH  24  27
ENDBRANCH  22  24
ENDBRANCH  21  22
ENDBRANCH   2  21
TORSDOF 7
