REMARK  Name = ZINC19470014
REMARK  7 active torsions:
REMARK  status: ('A' for Active; 'I' for Inactive)
REMARK    1  A    between atoms: C_1  and  C_2
REMARK    2  A    between atoms: C_2  and  C_3
REMARK    3  A    between atoms: C_2  and  C_4
REMARK    4  A    between atoms: C_9  and  O_10
REMARK    5  A    between atoms: O_10  and  C_11
REMARK    6  A    between atoms: C_12  and  C_17
REMARK    7  A    between atoms: N_18  and  O_19
REMARK                            x       y       z     vdW  Elec       q    Type
REMARK                         _______ _______ _______ _____ _____    ______ ____
ROOT
ATOM      1  C   UNL     1      -2.034   4.142   1.229  0.00  0.00    +0.231 A 
ATOM      2  C   UNL     1      -1.033   5.123   1.251  0.00  0.00    +0.080 A 
ATOM      3  C   UNL     1      -0.614   5.630   2.484  0.00  0.00    +0.018 A 
ATOM      4  C   UNL     1      -1.210   5.139   3.634  0.00  0.00    +0.021 A 
ATOM      5  C   UNL     1      -2.191   4.171   3.531  0.00  0.00    +0.114 A 
ATOM      6  N   UNL     1      -2.567   3.703   2.356  0.00  0.00    -0.220 NA
ENDROOT
BRANCH   2   7
ATOM      7  C   UNL     1      -0.430   5.612  -0.007  0.00  0.00    +0.168 C 
ATOM      8  N   UNL     1      -0.828   5.131  -1.149  0.00  0.00    -0.071 NA
ATOM      9  N   UNL     1       0.559   6.581   0.029  0.00  0.00    -0.340 N 
ATOM     10  H   UNL     1       1.007   6.944  -0.907  0.00  0.00    +0.144 HD
ATOM     11  H   UNL     1       0.895   6.987   0.994  0.00  0.00    +0.144 HD
BRANCH   8  12
ATOM     12  O   UNL     1      -0.251   5.599  -2.355  0.00  0.00    -0.408 OA
ATOM     13  H   UNL     1      -0.588   5.193  -3.320  0.00  0.00    +0.328 HD
ENDBRANCH   8  12
ENDBRANCH   2   7
BRANCH   1  14
ATOM     14  O   UNL     1      -2.454   3.636   0.044  0.00  0.00    -0.437 OA
BRANCH  14  20
ATOM     15  C   UNL     1      -4.801   3.244   0.018  0.00  0.00    -0.002 A 
ATOM     16  C   UNL     1      -5.861   2.359   0.030  0.00  0.00    +0.007 A 
ATOM     17  C   UNL     1      -5.625   0.997   0.078  0.00  0.00    +0.001 A 
ATOM     18  C   UNL     1      -4.328   0.518   0.115  0.00  0.00    +0.004 A 
ATOM     19  C   UNL     1      -3.265   1.400   0.099  0.00  0.00    +0.046 A 
ATOM     20  C   UNL     1      -3.499   2.767   0.056  0.00  0.00    +0.134 A 
BRANCH  15  22
ATOM     21  C   UNL     1      -5.835   5.066  -1.309  0.00  0.00    +0.012 C 
ATOM     22  C   UNL     1      -5.058   4.728  -0.035  0.00  0.00    +0.016 C 
ATOM     23  C   UNL     1      -5.877   5.148   1.188  0.00  0.00    +0.012 C 
ENDBRANCH  15  22
ENDBRANCH  14  20
ENDBRANCH   1  14
TORSDOF 5
