REMARK  Name = ZINC19959922
REMARK  6 active torsions:
REMARK  status: ('A' for Active; 'I' for Inactive)
REMARK    1  A    between atoms: C_1  and  C_2
REMARK    2  A    between atoms: C_7  and  C_23
REMARK    3  A    between atoms: C_13  and  C_18
REMARK    4  A    between atoms: C_26  and  N_29
REMARK    5  A    between atoms: N_29  and  C_30
REMARK    6  A    between atoms: N_29  and  C_31
REMARK                            x       y       z     vdW  Elec       q    Type
REMARK                         _______ _______ _______ _____ _____    ______ ____
ROOT
ATOM      1  C   UNL     1      -0.034   1.522   0.065  0.00  0.00    +0.090 C 
ATOM      2  C   UNL     1      -0.008   0.015   0.040  0.00  0.00    +0.150 A 
ATOM      3  N   UNL     1       0.003  -0.741  -1.063  0.00  0.00    -0.198 NA
ATOM      4  C   UNL     1       0.024  -2.001  -0.728  0.00  0.00    +0.219 A 
ATOM      5  N   UNL     1       0.032  -2.074   0.627  0.00  0.00    -0.221 N 
ATOM      6  N   UNL     1       0.014  -0.761   1.095  0.00  0.00    -0.153 NA
ATOM      7  C   UNL     1       0.064  -3.332   1.362  0.00  0.00    +0.175 C 
ATOM      8  C   UNL     1      -0.257  -4.482   0.433  0.00  0.00    +0.041 C 
ATOM      9  C   UNL     1      -0.248  -4.344  -0.910  0.00  0.00    +0.020 C 
ATOM     10  N   UNL     1       0.034  -3.142  -1.513  0.00  0.00    -0.287 N 
ATOM     11  C   UNL     1      -0.549  -5.518  -1.812  0.00  0.00    +0.063 C 
ATOM     12  C   UNL     1      -1.539  -6.457  -1.121  0.00  0.00    +0.068 C 
ATOM     13  C   UNL     1      -0.919  -6.923   0.201  0.00  0.00    +0.091 C 
ATOM     14  C   UNL     1      -0.570  -5.718   1.029  0.00  0.00    +0.164 C 
ATOM     15  O   UNL     1      -0.558  -5.812   2.240  0.00  0.00    -0.292 OA
ATOM     16  H   UNL     1       0.235  -3.094  -2.461  0.00  0.00    +0.155 HD
ENDROOT
BRANCH   7  17
ATOM     17  C   UNL     1       1.438  -3.534   1.948  0.00  0.00    -0.018 A 
ATOM     18  C   UNL     1       2.541  -3.596   1.116  0.00  0.00    +0.008 A 
ATOM     19  C   UNL     1       3.801  -3.781   1.650  0.00  0.00    +0.023 A 
ATOM     20  C   UNL     1       3.960  -3.904   3.024  0.00  0.00    +0.029 A 
ATOM     21  C   UNL     1       2.850  -3.840   3.857  0.00  0.00    +0.023 A 
ATOM     22  C   UNL     1       1.594  -3.650   3.317  0.00  0.00    +0.008 A 
BRANCH  20  23
ATOM     23  N   UNL     1       5.233  -4.091   3.567  0.00  0.00    -0.336 N 
ATOM     24  C   UNL     1       6.386  -4.283   2.683  0.00  0.00    +0.129 C 
ATOM     25  C   UNL     1       5.416  -4.095   5.021  0.00  0.00    +0.129 C 
ENDBRANCH  20  23
ENDBRANCH   7  17
BRANCH  12  26
ATOM     26  C   UNL     1      -1.810  -7.649  -2.003  0.00  0.00    +0.109 A 
ATOM     27  C   UNL     1      -3.009  -8.007  -2.495  0.00  0.00    +0.045 A 
ATOM     28  C   UNL     1      -2.804  -9.175  -3.264  0.00  0.00    +0.041 A 
ATOM     29  C   UNL     1      -1.491  -9.460  -3.197  0.00  0.00    +0.195 A 
ATOM     30  O   UNL     1      -0.893  -8.529  -2.437  0.00  0.00    -0.468 OA
ENDBRANCH  12  26
TORSDOF 3
