REMARK  Name = ZINC21944649
REMARK  12 active torsions:
REMARK  status: ('A' for Active; 'I' for Inactive)
REMARK    1  A    between atoms: C_1  and  C_2
REMARK    2  A    between atoms: C_2  and  N_3
REMARK    3  A    between atoms: N_3  and  C_4
REMARK    4  A    between atoms: C_5  and  N_20
REMARK    5  A    between atoms: N_6  and  C_13
REMARK    6  A    between atoms: C_13  and  C_14
REMARK    7  A    between atoms: C_21  and  C_23
REMARK    8  A    between atoms: C_23  and  O_24
REMARK    9  A    between atoms: O_24  and  C_25
REMARK   10  A    between atoms: C_25  and  C_27
REMARK   11  A    between atoms: C_31  and  O_33
REMARK   12  A    between atoms: O_33  and  C_34
REMARK                            x       y       z     vdW  Elec       q    Type
REMARK                         _______ _______ _______ _____ _____    ______ ____
ROOT
ATOM      1  N   UNL     1       2.588   9.310  -0.028  0.00  0.00    -0.262 N 
ATOM      2  C   UNL     1       2.491   7.980  -0.230  0.00  0.00    +0.258 C 
ATOM      3  O   UNL     1       3.490   7.325  -0.444  0.00  0.00    -0.272 OA
ENDROOT
BRANCH   1   4
ATOM      4  C   UNL     1       3.856   9.925   0.031  0.00  0.00    +0.140 A 
ATOM      5  C   UNL     1       4.749   9.596   1.030  0.00  0.00    +0.128 A 
ATOM      6  N   UNL     1       5.981  10.209   1.059  0.00  0.00    -0.276 N 
ATOM      7  C   UNL     1       6.306  11.125   0.130  0.00  0.00    +0.331 A 
ATOM      8  O   UNL     1       7.398  11.659   0.174  0.00  0.00    -0.246 OA
ATOM      9  N   UNL     1       5.447  11.463  -0.848  0.00  0.00    -0.273 N 
ATOM     10  H   UNL     1       5.734  12.215  -1.597  0.00  0.00    +0.173 HD
ATOM     11  C   UNL     1       4.230  10.889  -0.924  0.00  0.00    +0.277 A 
ATOM     12  O   UNL     1       3.458  11.201  -1.815  0.00  0.00    -0.266 OA
BRANCH   5  13
ATOM     13  N   UNL     1       4.415   8.664   1.983  0.00  0.00    -0.343 N 
ATOM     14  H   UNL     1       5.131   8.407   2.777  0.00  0.00    +0.144 HD
ATOM     15  H   UNL     1       3.429   8.175   1.952  0.00  0.00    +0.144 HD
ENDBRANCH   5  13
BRANCH   6  16
ATOM     16  C   UNL     1       6.941   9.865   2.110  0.00  0.00    +0.163 C 
BRANCH  16  17
ATOM     17  C   UNL     1       6.734  10.773   3.295  0.00  0.00    -0.028 A 
ATOM     18  C   UNL     1       7.427  11.966   3.381  0.00  0.00    +0.005 A 
ATOM     19  C   UNL     1       7.234  12.801   4.466  0.00  0.00    +0.000 A 
ATOM     20  C   UNL     1       6.356  12.438   5.470  0.00  0.00    +0.000 A 
ATOM     21  C   UNL     1       5.667  11.242   5.386  0.00  0.00    +0.000 A 
ATOM     22  C   UNL     1       5.856  10.409   4.299  0.00  0.00    +0.005 A 
ENDBRANCH  16  17
ENDBRANCH   6  16
ENDBRANCH   1   4
BRANCH   1  24
ATOM     23  C   UNL     1       1.017  10.215   1.614  0.00  0.00    +0.025 C 
ATOM     24  C   UNL     1       1.375  10.117   0.130  0.00  0.00    +0.110 C 
ENDBRANCH   1  24
BRANCH   2  25
ATOM     25  C   UNL     1       1.143   7.307  -0.190  0.00  0.00    +0.328 C 
BRANCH  25  26
ATOM     26  O   UNL     1       1.305   5.885  -0.435  0.00  0.00    -0.452 OA
BRANCH  26  27
ATOM     27  C   UNL     1       0.187   5.133  -0.433  0.00  0.00    +0.340 C 
ATOM     28  O   UNL     1      -0.893   5.652  -0.232  0.00  0.00    -0.245 OA
BRANCH  27  29
ATOM     29  C   UNL     1       0.275   3.679  -0.675  0.00  0.00    +0.062 A 
ATOM     30  C   UNL     1       1.515   3.080  -0.906  0.00  0.00    +0.015 A 
ATOM     31  C   UNL     1       1.593   1.721  -1.131  0.00  0.00    +0.004 A 
ATOM     32  C   UNL     1       0.446   0.948  -1.129  0.00  0.00    +0.046 A 
ATOM     33  C   UNL     1      -0.792   1.535  -0.905  0.00  0.00    +0.128 A 
ATOM     34  C   UNL     1      -0.882   2.897  -0.672  0.00  0.00    +0.060 A 
BRANCH  33  35
ATOM     35  O   UNL     1      -1.916   0.771  -0.909  0.00  0.00    -0.434 OA
BRANCH  35  36
ATOM     36  C   UNL     1      -1.750  -0.627  -1.151  0.00  0.00    +0.541 C 
ATOM     37  F   UNL     1      -1.161  -0.817  -2.406  0.00  0.00    -0.166 F 
ATOM     38  F   UNL     1      -0.926  -1.176  -0.162  0.00  0.00    -0.166 F 
ENDBRANCH  35  36
ENDBRANCH  33  35
ENDBRANCH  27  29
ENDBRANCH  26  27
ENDBRANCH  25  26
ENDBRANCH   2  25
TORSDOF 11
