REMARK  Name = ZINC39246058
REMARK  5 active torsions:
REMARK  status: ('A' for Active; 'I' for Inactive)
REMARK    1  A    between atoms: C_1  and  C_2
REMARK    2  A    between atoms: C_2  and  C_4
REMARK    3  A    between atoms: C_2  and  N_10
REMARK    4  A    between atoms: C_11  and  C_18
REMARK    5  A    between atoms: C_21  and  C_24
REMARK                            x       y       z     vdW  Elec       q    Type
REMARK                         _______ _______ _______ _____ _____    ______ ____
ROOT
ATOM      1  N   UNL     1      -0.934  -0.745   0.192  0.00  0.00    +0.414 N 
ATOM      2  C   UNL     1      -0.581  -2.123   0.604  0.00  0.00    +0.050 C 
ATOM      3  N   UNL     1      -1.628  -2.487   1.594  0.00  0.00    -0.268 NA
ATOM      4  N   UNL     1      -1.844  -1.229   2.326  0.00  0.00    -0.261 NA
ATOM      5  C   UNL     1      -1.741  -0.176   1.291  0.00  0.00    +0.089 C 
ATOM      6  S   UNL     1      -3.393   0.266   0.685  0.00  0.00    -0.092 SA
ATOM      7  H   UNL     1      -2.474  -2.787   1.133  0.00  0.00    +0.139 HD
ATOM      8  H   UNL     1      -1.144  -1.103   3.042  0.00  0.00    +0.140 HD
ATOM      9  H   UNL     1      -1.474  -0.765  -0.660  0.00  0.00    -0.075 HD
ENDROOT
BRANCH   2  10
ATOM     10  C   UNL     1      -0.625  -3.069  -0.598  0.00  0.00    +0.154 C 
ATOM     11  C   UNL     1      -0.297  -4.490  -0.174  0.00  0.00    +0.031 C 
ATOM     12  C   UNL     1       0.821  -4.785  -0.871  0.00  0.00    +0.098 C 
ATOM     13  N   UNL     1       1.188  -3.728  -1.644  0.00  0.00    -0.153 NA
ATOM     14  N   UNL     1       0.445  -2.744  -1.555  0.00  0.00    -0.180 NA
BRANCH  12  15
ATOM     15  C   UNL     1       1.543  -6.073  -0.803  0.00  0.00    +0.039 A 
ATOM     16  C   UNL     1       2.678  -6.461  -1.463  0.00  0.00    +0.018 A 
ATOM     17  C   UNL     1       3.174  -7.727  -1.238  0.00  0.00    +0.008 A 
ATOM     18  C   UNL     1       2.525  -8.548  -0.373  0.00  0.00    +0.046 A 
ATOM     19  S   UNL     1       1.165  -7.524   0.165  0.00  0.00    -0.095 S 
ENDBRANCH  12  15
ENDBRANCH   2  10
BRANCH   1  21
ATOM     20  C   UNL     1      -0.088   1.525  -0.166  0.00  0.00    -0.008 C 
ATOM     21  C   UNL     1       0.286   0.051  -0.003  0.00  0.00    -0.035 C 
BRANCH  21  22
ATOM     22  C   UNL     1       1.004  -0.425  -1.239  0.00  0.00    -0.061 A 
ATOM     23  C   UNL     1       0.346  -0.451  -2.454  0.00  0.00    +0.002 A 
ATOM     24  C   UNL     1       1.006  -0.887  -3.588  0.00  0.00    +0.000 A 
ATOM     25  C   UNL     1       2.323  -1.298  -3.507  0.00  0.00    +0.000 A 
ATOM     26  C   UNL     1       2.981  -1.272  -2.292  0.00  0.00    +0.000 A 
ATOM     27  C   UNL     1       2.324  -0.831  -1.159  0.00  0.00    +0.002 A 
ENDBRANCH  21  22
ENDBRANCH   1  21
TORSDOF 4
