REMARK  Name = ZINC00132380
REMARK  7 active torsions:
REMARK  status: ('A' for Active; 'I' for Inactive)
REMARK    1  A    between atoms: C_1  and  C_2
REMARK    2  A    between atoms: C_5  and  N_9
REMARK    3  A    between atoms: C_6  and  C_8
REMARK    4  A    between atoms: C_10  and  C_12
REMARK    5  A    between atoms: C_12  and  N_13
REMARK    6  A    between atoms: C_20  and  C_24
REMARK    7  A    between atoms: C_21  and  C_23
REMARK                            x       y       z     vdW  Elec       q    Type
REMARK                         _______ _______ _______ _____ _____    ______ ____
ROOT
ATOM      1  C   UNL     1       3.744  -0.963   0.176  0.00  0.00    +0.222 C 
ENDROOT
BRANCH   1   2
ATOM      2  N   UNL     1       3.502  -2.405   0.268  0.00  0.00    -0.290 N 
ATOM      3  C   UNL     1       3.356  -2.978   1.490  0.00  0.00    +0.203 A 
ATOM      4  N   UNL     1       3.134  -4.260   1.613  0.00  0.00    -0.230 NA
ATOM      5  C   UNL     1       3.054  -5.047   0.545  0.00  0.00    +0.116 A 
ATOM      6  C   UNL     1       3.198  -4.545  -0.761  0.00  0.00    +0.075 A 
ATOM      7  C   UNL     1       3.435  -3.135  -0.861  0.00  0.00    +0.263 A 
ATOM      8  O   UNL     1       3.573  -2.606  -1.950  0.00  0.00    -0.267 OA
ATOM      9  C   UNL     1       3.085  -5.536  -1.815  0.00  0.00    -0.026 A 
ATOM     10  C   UNL     1       2.859  -6.818  -1.488  0.00  0.00    -0.008 A 
ATOM     11  S   UNL     1       2.781  -6.782   0.293  0.00  0.00    -0.073 S 
ATOM     12  C   UNL     1       2.708  -8.004  -2.405  0.00  0.00    +0.052 C 
ATOM     13  C   UNL     1       3.218  -5.130  -3.260  0.00  0.00    +0.045 C 
ENDBRANCH   1   2
BRANCH   1  15
ATOM     14  N   UNL     1       2.403   1.107  -0.015  0.00  0.00    -0.284 N 
ATOM     15  C   UNL     1       2.426  -0.238   0.079  0.00  0.00    +0.237 C 
ATOM     16  O   UNL     1       1.388  -0.864   0.086  0.00  0.00    -0.274 OA
ATOM     17  H   UNL     1       3.233   1.603  -0.086  0.00  0.00    +0.155 HD
BRANCH  14  22
ATOM     18  C   UNL     1      -2.555   3.865   0.002  0.00  0.00    +0.044 C 
ATOM     19  C   UNL     1      -1.238   3.132  -0.002  0.00  0.00    -0.050 A 
ATOM     20  C   UNL     1      -1.140   1.892  -0.607  0.00  0.00    +0.005 A 
ATOM     21  C   UNL     1       0.064   1.216  -0.608  0.00  0.00    +0.024 A 
ATOM     22  C   UNL     1       1.180   1.787  -0.010  0.00  0.00    +0.036 A 
ATOM     23  C   UNL     1       1.079   3.034   0.592  0.00  0.00    -0.029 A 
ATOM     24  C   UNL     1      -0.129   3.703   0.594  0.00  0.00    +0.008 A 
ATOM     25  C   UNL     1       2.288   3.657   1.242  0.00  0.00    +0.045 C 
ENDBRANCH  14  22
ENDBRANCH   1  15
TORSDOF 3
