REMARK  Name = ZINC62520689
REMARK  7 active torsions:
REMARK  status: ('A' for Active; 'I' for Inactive)
REMARK    1  A    between atoms: C_1  and  C_2
REMARK    2  A    between atoms: C_2  and  C_3
REMARK    3  A    between atoms: C_2  and  N_12
REMARK    4  A    between atoms: N_5  and  C_6
REMARK    5  A    between atoms: C_6  and  C_7
REMARK    6  A    between atoms: N_19  and  C_22
REMARK    7  A    between atoms: C_22  and  C_23
REMARK                            x       y       z     vdW  Elec       q    Type
REMARK                         _______ _______ _______ _____ _____    ______ ____
ROOT
ATOM      1  N   UNL     1       2.743  -0.259  -0.119  0.00  0.00    -0.288 N 
ATOM      2  C   UNL     1       2.031  -0.587  -1.215  0.00  0.00    +0.303 C 
ATOM      3  O   UNL     1       0.816  -0.579  -1.175  0.00  0.00    -0.253 OA
ATOM      4  N   UNL     1       2.666  -0.925  -2.355  0.00  0.00    -0.287 N 
ATOM      5  C   UNL     1       1.864  -1.161  -3.573  0.00  0.00    +0.107 C 
ATOM      6  C   UNL     1       2.542  -0.543  -4.810  0.00  0.00    +0.000 C 
ATOM      7  C   UNL     1       3.136   0.798  -4.440  0.00  0.00    -0.077 C 
ATOM      8  N   UNL     1       4.536   0.618  -4.062  0.00  0.00    +0.384 N 
ATOM      9  C   UNL     1       4.750   0.319  -2.698  0.00  0.00    -0.059 C 
ATOM     10  C   UNL     1       4.110  -1.038  -2.343  0.00  0.00    +0.091 C 
ATOM     11  H   UNL     1       3.710  -0.334  -0.128  0.00  0.00    +0.151 HD
ATOM     12  H   UNL     1       4.921  -0.132  -4.616  0.00  0.00    -0.081 HD
ENDROOT
BRANCH   1  14
ATOM     13  C   UNL     1       1.606  -0.988   1.919  0.00  0.00    +0.038 C 
ATOM     14  C   UNL     1       2.057   0.213   1.086  0.00  0.00    +0.157 C 
BRANCH  14  15
ATOM     15  C   UNL     1       2.998   1.064   1.900  0.00  0.00    +0.233 C 
ATOM     16  O   UNL     1       4.131   1.257   1.511  0.00  0.00    -0.274 OA
ATOM     17  N   UNL     1       2.582   1.609   3.060  0.00  0.00    -0.307 N 
ATOM     18  H   UNL     1       1.676   1.455   3.371  0.00  0.00    +0.149 HD
BRANCH  17  19
ATOM     19  C   UNL     1       3.497   2.436   3.851  0.00  0.00    +0.178 C 
BRANCH  19  20
ATOM     20  C   UNL     1       2.791   2.921   5.090  0.00  0.00    +0.122 A 
ATOM     21  C   UNL     1       2.763   2.290   6.278  0.00  0.00    +0.046 A 
ATOM     22  C   UNL     1       1.994   3.093   7.151  0.00  0.00    +0.041 A 
ATOM     23  C   UNL     1       1.597   4.167   6.445  0.00  0.00    +0.195 A 
ATOM     24  O   UNL     1       2.088   4.061   5.199  0.00  0.00    -0.466 OA
ENDBRANCH  19  20
ENDBRANCH  17  19
ENDBRANCH  14  15
ENDBRANCH   1  14
BRANCH   8  25
ATOM     25  C   UNL     1       5.266   1.850  -4.386  0.00  0.00    -0.036 C 
BRANCH  25  26
ATOM     26  C   UNL     1       6.736   1.648  -4.120  0.00  0.00    -0.027 A 
ATOM     27  C   UNL     1       7.702   1.200  -4.959  0.00  0.00    +0.009 A 
ATOM     28  C   UNL     1       8.998   1.094  -4.492  0.00  0.00    +0.008 A 
ATOM     29  C   UNL     1       9.266   1.442  -3.210  0.00  0.00    +0.045 A 
ATOM     30  S   UNL     1       7.657   1.944  -2.620  0.00  0.00    -0.103 S 
ENDBRANCH  25  26
ENDBRANCH   8  25
TORSDOF 6
