REMARK  Name = ZINC00542930
REMARK  2 active torsions:
REMARK  status: ('A' for Active; 'I' for Inactive)
REMARK    1  A    between atoms: C_16  and  C_19
REMARK    2  A    between atoms: C_24  and  O_25
REMARK                            x       y       z     vdW  Elec       q    Type
REMARK                         _______ _______ _______ _____ _____    ______ ____
ROOT
ATOM      1  C   UNL     1      -0.017   1.378   0.010  0.00  0.00    +0.001 A 
ATOM      2  C   UNL     1       1.170   2.092   0.002  0.00  0.00    +0.002 A 
ATOM      3  C   UNL     1       2.388   1.439  -0.025  0.00  0.00    +0.024 A 
ATOM      4  C   UNL     1       2.427   0.054  -0.039  0.00  0.00    +0.040 A 
ATOM      5  C   UNL     1       1.219  -0.669  -0.011  0.00  0.00    +0.038 A 
ATOM      6  C   UNL     1       0.002  -0.004   0.002  0.00  0.00    +0.013 A 
ATOM      7  C   UNL     1       1.325  -2.141   0.036  0.00  0.00    +0.145 A 
ATOM      8  N   UNL     1       0.401  -3.051  -0.099  0.00  0.00    -0.227 NA
ATOM      9  C   UNL     1       0.961  -4.271  -0.015  0.00  0.00    +0.090 A 
ATOM     10  C   UNL     1       0.412  -5.557  -0.103  0.00  0.00    +0.030 A 
ATOM     11  C   UNL     1       1.276  -6.616   0.022  0.00  0.00    +0.002 A 
ATOM     12  C   UNL     1       2.634  -6.439   0.226  0.00  0.00    +0.002 A 
ATOM     13  C   UNL     1       3.206  -5.181   0.320  0.00  0.00    +0.028 A 
ATOM     14  C   UNL     1       2.353  -4.089   0.200  0.00  0.00    +0.071 A 
ATOM     15  N   UNL     1       2.555  -2.745   0.249  0.00  0.00    -0.300 N 
ATOM     16  C   UNL     1       3.775  -1.972   0.498  0.00  0.00    +0.209 C 
ATOM     17  N   UNL     1       3.634  -0.637  -0.099  0.00  0.00    -0.319 N 
ATOM     18  H   UNL     1       4.394  -0.231  -0.544  0.00  0.00    +0.148 HD
ENDROOT
BRANCH  16  19
ATOM     19  C   UNL     1       3.991  -1.838   1.983  0.00  0.00    +0.035 A 
ATOM     20  C   UNL     1       3.534  -0.718   2.651  0.00  0.00    +0.011 A 
ATOM     21  C   UNL     1       3.733  -0.595   4.013  0.00  0.00    +0.001 A 
ATOM     22  C   UNL     1       4.390  -1.592   4.712  0.00  0.00    +0.004 A 
ATOM     23  C   UNL     1       4.848  -2.714   4.049  0.00  0.00    +0.046 A 
ATOM     24  C   UNL     1       4.645  -2.842   2.682  0.00  0.00    +0.124 A 
BRANCH  24  25
ATOM     25  O   UNL     1       5.090  -3.948   2.029  0.00  0.00    -0.506 OA
ATOM     26  H   UNL     1       5.993  -3.868   1.690  0.00  0.00    +0.292 HD
ENDBRANCH  24  25
ENDBRANCH  16  19
TORSDOF 2
