REMARK  Name = ZINC38979661
REMARK  7 active torsions:
REMARK  status: ('A' for Active; 'I' for Inactive)
REMARK    1  A    between atoms: C_1  and  C_2
REMARK    2  A    between atoms: C_2  and  O_3
REMARK    3  A    between atoms: O_3  and  C_4
REMARK    4  A    between atoms: C_6  and  C_11
REMARK    5  A    between atoms: C_9  and  O_10
REMARK    6  A    between atoms: N_12  and  N_13
REMARK    7  A    between atoms: C_14  and  C_20
REMARK                            x       y       z     vdW  Elec       q    Type
REMARK                         _______ _______ _______ _____ _____    ______ ____
ROOT
ATOM      1  N   UNL     1       1.574  -7.081  -0.140  0.00  0.00    -0.173 N 
ATOM      2  C   UNL     1       1.588  -8.551  -0.272  0.00  0.00    +0.266 C 
ATOM      3  N   UNL     1       3.021  -8.874  -0.354  0.00  0.00    -0.169 NA
ATOM      4  N   UNL     1       3.653  -7.817  -0.282  0.00  0.00    -0.096 NA
ATOM      5  C   UNL     1       2.879  -6.731  -0.162  0.00  0.00    +0.198 C 
ATOM      6  S   UNL     1       3.461  -5.125  -0.049  0.00  0.00    -0.013 S 
ENDROOT
BRANCH   2   7
ATOM      7  C   UNL     1       0.861  -8.984  -1.547  0.00  0.00    +0.201 C 
ATOM      8  C   UNL     1       0.820 -10.495  -1.654  0.00  0.00    -0.017 C 
ATOM      9  C   UNL     1      -0.476 -10.801  -1.641  0.00  0.00    +0.065 C 
ATOM     10  C   UNL     1      -0.651 -12.305  -1.742  0.00  0.00    +0.057 C 
ATOM     11  C   UNL     1       0.708 -12.835  -2.251  0.00  0.00    +0.011 C 
ATOM     12  C   UNL     1       1.675 -11.730  -1.768  0.00  0.00    +0.035 C 
ATOM     13  N   UNL     1      -1.219  -9.665  -1.540  0.00  0.00    -0.158 NA
ATOM     14  N   UNL     1      -0.565  -8.619  -1.485  0.00  0.00    -0.176 NA
ENDBRANCH   2   7
BRANCH   1  16
ATOM     15  C   UNL     1       0.625  -4.969   0.192  0.00  0.00    +0.138 C 
ATOM     16  N   UNL     1       0.460  -6.239  -0.025  0.00  0.00    -0.184 NA
BRANCH  15  19
ATOM     17  C   UNL     1      -1.459  -1.858   0.455  0.00  0.00    +0.162 A 
ATOM     18  C   UNL     1      -0.363  -2.700   0.441  0.00  0.00    +0.059 A 
ATOM     19  C   UNL     1      -0.539  -4.067   0.208  0.00  0.00    -0.002 A 
ATOM     20  C   UNL     1      -1.823  -4.575  -0.008  0.00  0.00    +0.013 A 
ATOM     21  C   UNL     1      -2.911  -3.729   0.007  0.00  0.00    +0.050 A 
ATOM     22  C   UNL     1      -2.737  -2.373   0.244  0.00  0.00    +0.158 A 
BRANCH  22  23
ATOM     23  O   UNL     1      -3.814  -1.544   0.264  0.00  0.00    -0.503 OA
ATOM     24  H   UNL     1      -4.037  -1.168  -0.599  0.00  0.00    +0.292 HD
ENDBRANCH  22  23
BRANCH  17  25
ATOM     25  O   UNL     1      -1.292  -0.527   0.681  0.00  0.00    -0.489 OA
BRANCH  25  27
ATOM     26  C   UNL     1       0.035   1.443   1.125  0.00  0.00    +0.048 C 
ATOM     27  C   UNL     1       0.045  -0.068   0.889  0.00  0.00    +0.226 C 
ENDBRANCH  25  27
ENDBRANCH  17  25
ENDBRANCH  15  19
ENDBRANCH   1  16
TORSDOF 6
