REMARK  Name = ZINC44782802
REMARK  6 active torsions:
REMARK  status: ('A' for Active; 'I' for Inactive)
REMARK    1  A    between atoms: C_1  and  N_2
REMARK    2  A    between atoms: C_7  and  C_9
REMARK    3  A    between atoms: C_9  and  N_10
REMARK    4  A    between atoms: C_11  and  C_13
REMARK    5  A    between atoms: C_13  and  C_19
REMARK    6  A    between atoms: C_19  and  N_21
REMARK                            x       y       z     vdW  Elec       q    Type
REMARK                         _______ _______ _______ _____ _____    ______ ____
ROOT
ATOM      1  N   UNL     1      -0.223   1.268   2.414  0.00  0.00    -0.316 N 
ATOM      2  C   UNL     1      -0.808   1.938   3.427  0.00  0.00    +0.225 C 
ATOM      3  O   UNL     1      -1.225   1.334   4.393  0.00  0.00    -0.275 OA
ATOM      4  H   UNL     1       0.045   1.742   1.611  0.00  0.00    +0.149 HD
ENDROOT
BRANCH   2   5
ATOM      5  C   UNL     1      -0.944   3.437   3.360  0.00  0.00    +0.095 C 
ATOM      6  C   UNL     1       0.418   4.062   3.042  0.00  0.00    +0.051 C 
ATOM      7  C   UNL     1       1.393   3.746   4.179  0.00  0.00    +0.161 C 
ATOM      8  O   UNL     1       0.863   4.240   5.410  0.00  0.00    -0.380 OA
ATOM      9  C   UNL     1      -0.387   3.656   5.783  0.00  0.00    +0.161 C 
ATOM     10  C   UNL     1      -1.434   3.969   4.711  0.00  0.00    +0.051 C 
BRANCH   5  11
ATOM     11  C   UNL     1      -1.934   3.806   2.284  0.00  0.00    +0.061 C 
ATOM     12  S   UNL     1      -3.216   4.689   2.647  0.00  0.00    -0.040 S 
BRANCH  11  13
ATOM     13  N   UNL     1      -1.737   3.391   1.017  0.00  0.00    -0.355 N 
ATOM     14  H   UNL     1      -1.000   2.796   0.811  0.00  0.00    +0.143 HD
ATOM     15  H   UNL     1      -2.333   3.688   0.312  0.00  0.00    +0.143 HD
ENDBRANCH  11  13
ENDBRANCH   5  11
ENDBRANCH   2   5
BRANCH   1  16
ATOM     16  C   UNL     1       0.007  -0.174   2.527  0.00  0.00    +0.089 C 
BRANCH  16  23
ATOM     17  C   UNL     1       2.807   0.014   2.411  0.00  0.00    -0.096 C 
ATOM     18  N   UNL     1       2.025   0.120   1.172  0.00  0.00    +0.381 N 
ATOM     19  C   UNL     1       2.819  -0.391   0.049  0.00  0.00    -0.079 C 
ATOM     20  C   UNL     1       2.041  -0.207  -1.256  0.00  0.00    -0.019 C 
ATOM     21  C   UNL     1       0.721  -0.979  -1.170  0.00  0.00    -0.003 C 
ATOM     22  C   UNL     1      -0.066  -0.489   0.049  0.00  0.00    -0.014 C 
ATOM     23  C   UNL     1       0.790  -0.662   1.306  0.00  0.00    -0.052 C 
ATOM     24  H   UNL     1       1.792   1.088   1.005  0.00  0.00    -0.082 HD
ENDBRANCH  16  23
ENDBRANCH   1  16
TORSDOF 5
