REMARK  Name = ZINC08320826
REMARK  8 active torsions:
REMARK  status: ('A' for Active; 'I' for Inactive)
REMARK    1  A    between atoms: C_1  and  C_2
REMARK    2  A    between atoms: C_6  and  O_8
REMARK    3  A    between atoms: O_8  and  C_9
REMARK    4  A    between atoms: C_9  and  C_10
REMARK    5  A    between atoms: N_12  and  C_13
REMARK    6  A    between atoms: C_13  and  N_15
REMARK    7  A    between atoms: N_15  and  C_16
REMARK    8  A    between atoms: C_17  and  C_25
REMARK                            x       y       z     vdW  Elec       q    Type
REMARK                         _______ _______ _______ _____ _____    ______ ____
ROOT
ATOM      1  N   UNL     1      -5.245  -4.166   0.004  0.00  0.00    -0.291 N 
ATOM      2  H   UNL     1      -4.468  -4.747  -0.003  0.00  0.00    +0.154 HD
ENDROOT
BRANCH   1   3
ATOM      3  C   UNL     1      -6.519  -4.711   0.007  0.00  0.00    +0.084 A 
ATOM      4  C   UNL     1      -6.884  -6.050  -0.004  0.00  0.00    +0.068 A 
ATOM      5  C   UNL     1      -8.304  -6.359   0.006  0.00  0.00    -0.023 A 
ATOM      6  C   UNL     1      -9.125  -5.287   0.015  0.00  0.00    -0.004 A 
ATOM      7  S   UNL     1      -8.042  -3.886   0.018  0.00  0.00    -0.077 S 
ATOM      8  C   UNL     1     -10.623  -5.297   0.021  0.00  0.00    +0.043 C 
ATOM      9  C   UNL     1     -11.099  -6.705  -0.363  0.00  0.00    +0.005 C 
ATOM     10  C   UNL     1     -10.320  -7.732   0.464  0.00  0.00    +0.005 C 
ATOM     11  C   UNL     1      -8.863  -7.776   0.001  0.00  0.00    +0.037 C 
BRANCH   4  12
ATOM     12  C   UNL     1      -5.875  -7.113  -0.021  0.00  0.00    +0.244 C 
ATOM     13  O   UNL     1      -5.450  -7.565   1.026  0.00  0.00    -0.270 OA
ATOM     14  N   UNL     1      -5.418  -7.590  -1.196  0.00  0.00    -0.325 N 
ATOM     15  H   UNL     1      -5.757  -7.229  -2.030  0.00  0.00    +0.145 HD
ATOM     16  H   UNL     1      -4.750  -8.293  -1.207  0.00  0.00    +0.145 HD
ENDBRANCH   4  12
ENDBRANCH   1   3
BRANCH   1  17
ATOM     17  C   UNL     1      -5.084  -2.827   0.011  0.00  0.00    +0.141 C 
ATOM     18  S   UNL     1      -6.455  -1.801   0.023  0.00  0.00    -0.018 S 
BRANCH  17  21
ATOM     19  C   UNL     1      -3.685  -0.959   0.014  0.00  0.00    +0.256 C 
ATOM     20  O   UNL     1      -4.655  -0.232   0.023  0.00  0.00    -0.272 OA
ATOM     21  N   UNL     1      -3.845  -2.297   0.008  0.00  0.00    -0.265 N 
ATOM     22  H   UNL     1      -3.069  -2.879   0.001  0.00  0.00    +0.157 HD
BRANCH  19  23
ATOM     23  C   UNL     1      -2.299  -0.366   0.011  0.00  0.00    +0.324 C 
BRANCH  23  24
ATOM     24  O   UNL     1      -2.391   1.060   0.019  0.00  0.00    -0.483 OA
BRANCH  24  30
ATOM     25  C   UNL     1      -0.065   5.351   0.029  0.00  0.00    +0.044 C 
ATOM     26  C   UNL     1      -0.049   3.844   0.022  0.00  0.00    -0.047 A 
ATOM     27  C   UNL     1       1.156   3.166   0.007  0.00  0.00    +0.003 A 
ATOM     28  C   UNL     1       1.174   1.783   0.000  0.00  0.00    +0.004 A 
ATOM     29  C   UNL     1      -0.013   1.076   0.008  0.00  0.00    +0.045 A 
ATOM     30  C   UNL     1      -1.223   1.754   0.017  0.00  0.00    +0.121 A 
ATOM     31  C   UNL     1      -1.238   3.141   0.029  0.00  0.00    +0.049 A 
ENDBRANCH  24  30
ENDBRANCH  23  24
ENDBRANCH  19  23
ENDBRANCH  17  21
ENDBRANCH   1  17
TORSDOF 7
