REMARK  Name = ZINC05745638
REMARK  5 active torsions:
REMARK  status: ('A' for Active; 'I' for Inactive)
REMARK    1  A    between atoms: C_1  and  C_2
REMARK    2  A    between atoms: C_5  and  C_8
REMARK    3  A    between atoms: C_11  and  C_13
REMARK    4  A    between atoms: C_11  and  C_14
REMARK    5  A    between atoms: C_17  and  N_20
REMARK                            x       y       z     vdW  Elec       q    Type
REMARK                         _______ _______ _______ _____ _____    ______ ____
ROOT
ATOM      1  C   UNL     1      -2.706   2.943   4.742  0.00  0.00    +0.124 C 
ATOM      2  N   UNL     1      -2.189   3.212   5.904  0.00  0.00    -0.178 NA
ATOM      3  N   UNL     1      -2.932   3.655   6.976  0.00  0.00    -0.247 N 
ATOM      4  C   UNL     1      -4.382   3.809   6.719  0.00  0.00    +0.122 C 
ATOM      5  S   UNL     1      -4.444   3.293   4.954  0.00  0.00    -0.072 S 
ATOM      6  C   UNL     1      -5.207   2.876   7.606  0.00  0.00    +0.050 C 
ATOM      7  H   UNL     1      -2.534   3.851   7.838  0.00  0.00    +0.170 HD
ENDROOT
BRANCH   1  12
ATOM      8  C   UNL     1      -0.013   1.086   0.008  0.00  0.00    +0.044 C 
ATOM      9  C   UNL     1      -0.718   1.572   1.248  0.00  0.00    -0.050 A 
ATOM     10  C   UNL     1      -2.084   1.788   1.223  0.00  0.00    +0.004 A 
ATOM     11  C   UNL     1      -2.737   2.229   2.356  0.00  0.00    +0.011 A 
ATOM     12  C   UNL     1      -2.014   2.466   3.526  0.00  0.00    +0.008 A 
ATOM     13  C   UNL     1      -0.635   2.250   3.543  0.00  0.00    +0.011 A 
ATOM     14  C   UNL     1       0.004   1.805   2.405  0.00  0.00    +0.004 A 
ENDBRANCH   1  12
BRANCH   4  15
ATOM     15  C   UNL     1      -4.818   5.243   6.883  0.00  0.00    -0.013 A 
ATOM     16  C   UNL     1      -5.928   5.709   6.205  0.00  0.00    +0.009 A 
ATOM     17  C   UNL     1      -6.332   7.022   6.359  0.00  0.00    +0.033 A 
ATOM     18  C   UNL     1      -5.618   7.872   7.184  0.00  0.00    +0.126 A 
ATOM     19  C   UNL     1      -4.504   7.407   7.858  0.00  0.00    +0.033 A 
ATOM     20  C   UNL     1      -4.104   6.092   7.707  0.00  0.00    +0.009 A 
BRANCH  18  21
ATOM     21  N   UNL     1      -6.046   9.279   7.345  0.00  0.00    +0.056 N 
ATOM     22  O   UNL     1      -5.418  10.028   8.072  0.00  0.00    -0.126 OA
ATOM     23  O   UNL     1      -7.028   9.689   6.752  0.00  0.00    -0.126 OA
ENDBRANCH  18  21
ENDBRANCH   4  15
TORSDOF 3
