REMARK  Name = ZINC66927624
REMARK  10 active torsions:
REMARK  status: ('A' for Active; 'I' for Inactive)
REMARK    1  A    between atoms: C_1  and  C_2
REMARK    2  A    between atoms: C_2  and  C_4
REMARK    3  A    between atoms: C_2  and  N_23
REMARK    4  A    between atoms: C_4  and  N_6
REMARK    5  A    between atoms: C_10  and  C_13
REMARK    6  A    between atoms: C_16  and  C_19
REMARK    7  A    between atoms: C_19  and  C_20
REMARK    8  A    between atoms: C_19  and  C_21
REMARK    9  A    between atoms: C_19  and  C_22
REMARK   10  A    between atoms: C_24  and  C_26
REMARK                            x       y       z     vdW  Elec       q    Type
REMARK                         _______ _______ _______ _____ _____    ______ ____
ROOT
ATOM      1  N   UNL     1       0.238  -0.169  -2.437  0.00  0.00    -0.144 NA
ATOM      2  C   UNL     1       0.863  -0.599  -3.535  0.00  0.00    +0.216 A 
ATOM      3  N   UNL     1       1.979  -1.373  -3.574  0.00  0.00    -0.310 N 
ATOM      4  H   UNL     1       2.465  -1.711  -2.805  0.00  0.00    +0.170 HD
ATOM      5  C   UNL     1       2.302  -1.595  -4.896  0.00  0.00    +0.161 A 
ATOM      6  N   UNL     1       1.426  -0.987  -5.647  0.00  0.00    -0.153 NA
ATOM      7  N   UNL     1       0.498  -0.351  -4.812  0.00  0.00    -0.246 N 
ATOM      8  H   UNL     1      -0.266   0.173  -5.098  0.00  0.00    +0.192 HD
ENDROOT
BRANCH   5   9
ATOM      9  C   UNL     1       3.451  -2.390  -5.382  0.00  0.00    +0.019 A 
ATOM     10  C   UNL     1       4.317  -2.999  -4.472  0.00  0.00    +0.012 A 
ATOM     11  C   UNL     1       5.386  -3.740  -4.931  0.00  0.00    +0.005 A 
ATOM     12  C   UNL     1       5.601  -3.880  -6.291  0.00  0.00    -0.042 A 
ATOM     13  C   UNL     1       4.747  -3.279  -7.198  0.00  0.00    +0.005 A 
ATOM     14  C   UNL     1       3.670  -2.540  -6.751  0.00  0.00    +0.012 A 
BRANCH  12  15
ATOM     15  C   UNL     1       6.771  -4.691  -6.786  0.00  0.00    -0.013 C 
ATOM     16  C   UNL     1       6.646  -6.129  -6.279  0.00  0.00    +0.015 C 
ATOM     17  C   UNL     1       6.782  -4.688  -8.316  0.00  0.00    +0.015 C 
ATOM     18  C   UNL     1       8.073  -4.078  -6.265  0.00  0.00    +0.015 C 
ENDBRANCH  12  15
ENDBRANCH   5   9
BRANCH   1  19
ATOM     19  C   UNL     1       0.707  -0.490  -1.238  0.00  0.00    +0.259 C 
ATOM     20  O   UNL     1       1.707  -1.176  -1.139  0.00  0.00    -0.272 OA
BRANCH  19  22
ATOM     21  C   UNL     1      -0.019   1.526   0.010  0.00  0.00    +0.038 C 
ATOM     22  C   UNL     1       0.002  -0.004   0.002  0.00  0.00    +0.158 C 
BRANCH  22  23
ATOM     23  N   UNL     1       0.711  -0.489   1.189  0.00  0.00    -0.304 N 
ATOM     24  C   UNL     1       0.051  -0.633   2.355  0.00  0.00    +0.217 C 
ATOM     25  O   UNL     1      -1.129  -0.361   2.423  0.00  0.00    -0.275 OA
ATOM     26  H   UNL     1       1.654  -0.707   1.135  0.00  0.00    +0.149 HD
BRANCH  24  27
ATOM     27  C   UNL     1       0.780  -1.133   3.576  0.00  0.00    +0.079 C 
ATOM     28  C   UNL     1       1.339  -2.532   3.303  0.00  0.00    +0.041 C 
ATOM     29  C   UNL     1       2.009  -3.063   4.573  0.00  0.00    +0.160 C 
ATOM     30  O   UNL     1       1.060  -3.075   5.641  0.00  0.00    -0.380 OA
ATOM     31  C   UNL     1       0.538  -1.786   5.973  0.00  0.00    +0.160 C 
ATOM     32  C   UNL     1      -0.191  -1.204   4.759  0.00  0.00    +0.041 C 
ENDBRANCH  24  27
ENDBRANCH  22  23
ENDBRANCH  19  22
ENDBRANCH   1  19
TORSDOF 6
