REMARK  Name = ZINC05045036
REMARK  7 active torsions:
REMARK  status: ('A' for Active; 'I' for Inactive)
REMARK    1  A    between atoms: C_1  and  C_2
REMARK    2  A    between atoms: C_2  and  C_3
REMARK    3  A    between atoms: C_3  and  C_4
REMARK    4  A    between atoms: C_4  and  C_5
REMARK    5  A    between atoms: C_12  and  N_24
REMARK    6  A    between atoms: C_13  and  C_22
REMARK    7  A    between atoms: C_14  and  C_16
REMARK                            x       y       z     vdW  Elec       q    Type
REMARK                         _______ _______ _______ _____ _____    ______ ____
ROOT
ATOM      1  C   UNL     1       0.000   1.080   2.488  0.00  0.00    +0.044 A 
ATOM      2  C   UNL     1       1.057   1.663   3.073  0.00  0.00    +0.050 A 
ATOM      3  C   UNL     1       1.434   0.876   4.183  0.00  0.00    +0.245 A 
ATOM      4  N   UNL     1       0.623  -0.140   4.250  0.00  0.00    -0.135 NA
ATOM      5  N   UNL     1      -0.297  -0.035   3.195  0.00  0.00    -0.278 N 
ATOM      6  H   UNL     1      -1.042  -0.672   3.000  0.00  0.00    +0.189 HD
ATOM      7  O   UNL     1       2.483   1.211   4.982  0.00  0.00    -0.421 OA
ATOM      8  C   UNL     1       3.324   2.165   4.534  0.00  0.00    +0.201 C 
ATOM      9  C   UNL     1       3.067   2.984   3.493  0.00  0.00    +0.099 C 
ATOM     10  C   UNL     1       1.787   2.928   2.699  0.00  0.00    +0.108 C 
ENDROOT
BRANCH  10  11
ATOM     11  C   UNL     1       0.932   4.125   3.028  0.00  0.00    +0.004 A 
ATOM     12  C   UNL     1       0.462   5.091   2.201  0.00  0.00    +0.027 A 
ATOM     13  C   UNL     1      -0.317   6.105   2.729  0.00  0.00    +0.025 A 
ATOM     14  C   UNL     1      -0.578   6.107   4.060  0.00  0.00    +0.060 A 
ATOM     15  S   UNL     1       0.282   4.642   4.608  0.00  0.00    -0.100 S 
ATOM     16 BR   UNL     1      -1.000   7.471   1.614  0.00  0.00    -0.050 Br
ENDBRANCH  10  11
BRANCH   8  17
ATOM     17  N   UNL     1       4.524   2.314   5.184  0.00  0.00    -0.328 N 
ATOM     18  H   UNL     1       5.153   2.991   4.890  0.00  0.00    +0.145 HD
ATOM     19  H   UNL     1       4.742   1.743   5.937  0.00  0.00    +0.145 HD
ENDBRANCH   8  17
BRANCH   9  20
ATOM     20  C   UNL     1       4.057   3.951   3.125  0.00  0.00    +0.101 C 
ATOM     21  N   UNL     1       4.843   4.718   2.833  0.00  0.00    -0.191 NA
ENDBRANCH   9  20
BRANCH   1  22
ATOM     22  C   UNL     1      -0.729   1.579   1.267  0.00  0.00    +0.055 C 
BRANCH  22  23
ATOM     23  C   UNL     1      -0.013   1.086   0.008  0.00  0.00    +0.006 C 
BRANCH  23  25
ATOM     24  C   UNL     1      -0.037   1.099  -2.490  0.00  0.00    +0.004 C 
ATOM     25  C   UNL     1      -0.753   1.593  -1.232  0.00  0.00    -0.003 C 
ENDBRANCH  23  25
ENDBRANCH  22  23
ENDBRANCH   1  22
TORSDOF 6
