REMARK  Name = ZINC67066666
REMARK  7 active torsions:
REMARK  status: ('A' for Active; 'I' for Inactive)
REMARK    1  A    between atoms: C_1  and  C_2
REMARK    2  A    between atoms: C_2  and  O_3
REMARK    3  A    between atoms: O_3  and  C_4
REMARK    4  A    between atoms: C_8  and  C_10
REMARK    5  A    between atoms: C_10  and  C_12
REMARK    6  A    between atoms: C_10  and  N_13
REMARK    7  A    between atoms: C_20  and  C_23
REMARK                            x       y       z     vdW  Elec       q    Type
REMARK                         _______ _______ _______ _____ _____    ______ ____
ROOT
ATOM      1  N   UNL     1      -4.341  -5.535   0.891  0.00  0.00    -0.293 N 
ATOM      2  C   UNL     1      -5.500  -5.929   1.454  0.00  0.00    +0.303 C 
ATOM      3  O   UNL     1      -6.507  -5.264   1.304  0.00  0.00    -0.253 OA
ATOM      4  N   UNL     1      -5.544  -7.061   2.184  0.00  0.00    -0.281 N 
ATOM      5  C   UNL     1      -6.819  -7.574   2.712  0.00  0.00    +0.137 C 
ATOM      6  C   UNL     1      -6.940  -9.054   2.332  0.00  0.00    +0.179 C 
ATOM      7  O   UNL     1      -5.758  -9.744   2.746  0.00  0.00    -0.369 OA
ATOM      8  C   UNL     1      -4.562  -9.290   2.108  0.00  0.00    +0.166 C 
ATOM      9  C   UNL     1      -4.320  -7.825   2.472  0.00  0.00    +0.145 C 
ATOM     10  H   UNL     1      -3.523  -6.024   1.071  0.00  0.00    +0.151 HD
ENDROOT
BRANCH   8  11
ATOM     11  C   UNL     1      -3.396 -10.126   2.571  0.00  0.00    -0.015 A 
ATOM     12  C   UNL     1      -3.358 -10.598   3.870  0.00  0.00    +0.006 A 
ATOM     13  C   UNL     1      -2.289 -11.365   4.296  0.00  0.00    +0.003 A 
ATOM     14  C   UNL     1      -1.258 -11.660   3.424  0.00  0.00    +0.038 A 
ATOM     15  C   UNL     1      -1.296 -11.188   2.123  0.00  0.00    +0.124 A 
ATOM     16  C   UNL     1      -2.370 -10.425   1.696  0.00  0.00    +0.044 A 
ATOM     17  F   UNL     1      -0.289 -11.475   1.270  0.00  0.00    -0.205 F 
ENDBRANCH   8  11
BRANCH   1  18
ATOM     18  C   UNL     1      -4.316  -4.367   0.007  0.00  0.00    +0.102 C 
ATOM     19  C   UNL     1      -4.691  -4.795  -1.413  0.00  0.00    +0.033 C 
BRANCH  18  24
ATOM     20  C   UNL     1      -1.500  -1.847   0.004  0.00  0.00    +0.121 A 
ATOM     21  C   UNL     1      -0.389  -2.678  -0.004  0.00  0.00    +0.045 A 
ATOM     22  C   UNL     1      -0.553  -4.049  -0.008  0.00  0.00    +0.004 A 
ATOM     23  C   UNL     1      -1.824  -4.595  -0.004  0.00  0.00    +0.006 A 
ATOM     24  C   UNL     1      -2.933  -3.769   0.003  0.00  0.00    -0.024 A 
ATOM     25  C   UNL     1      -2.774  -2.397   0.013  0.00  0.00    +0.051 A 
BRANCH  20  26
ATOM     26  O   UNL     1      -1.342  -0.497   0.007  0.00  0.00    -0.492 OA
BRANCH  26  28
ATOM     27  C   UNL     1      -0.023   1.528   0.004  0.00  0.00    +0.048 C 
ATOM     28  C   UNL     1      -0.001  -0.002  -0.003  0.00  0.00    +0.225 C 
ENDBRANCH  26  28
ENDBRANCH  20  26
ENDBRANCH  18  24
ENDBRANCH   1  18
TORSDOF 5
