REMARK  Name = ZINC16051106
REMARK  4 active torsions:
REMARK  status: ('A' for Active; 'I' for Inactive)
REMARK    1  A    between atoms: C_4  and  C_7
REMARK    2  A    between atoms: C_7  and  C_8
REMARK    3  A    between atoms: C_11  and  N_13
REMARK    4  A    between atoms: C_14  and  C_16
REMARK                            x       y       z     vdW  Elec       q    Type
REMARK                         _______ _______ _______ _____ _____    ______ ____
ROOT
ATOM      1  N   UNL     1      -2.543   5.383  -0.045  0.00  0.00    -0.181 NA
ATOM      2  C   UNL     1      -1.377   6.053   0.048  0.00  0.00    +0.281 C 
ATOM      3  O   UNL     1      -1.379   7.264   0.149  0.00  0.00    -0.265 OA
ENDROOT
BRANCH   2   4
ATOM      4  C   UNL     1      -0.093   5.313   0.028  0.00  0.00    +0.055 A 
ATOM      5  C   UNL     1      -0.074   3.947   0.041  0.00  0.00    +0.084 A 
ATOM      6  C   UNL     1       1.207   3.246   0.020  0.00  0.00    +0.250 A 
ATOM      7  O   UNL     1       1.225   2.028   0.031  0.00  0.00    -0.268 OA
ATOM      8  N   UNL     1       2.367   3.925  -0.012  0.00  0.00    -0.322 N 
ATOM      9  H   UNL     1       3.323   3.380  -0.028  0.00  0.00    +0.169 HD
ATOM     10  C   UNL     1       2.391   5.303  -0.026  0.00  0.00    +0.050 A 
ATOM     11  C   UNL     1       1.189   6.033  -0.007  0.00  0.00    +0.011 A 
ATOM     12  C   UNL     1       1.223   7.430  -0.021  0.00  0.00    +0.011 A 
ATOM     13  C   UNL     1       2.424   8.081  -0.048  0.00  0.00    +0.001 A 
ATOM     14  C   UNL     1       3.613   7.365  -0.072  0.00  0.00    +0.002 A 
ATOM     15  C   UNL     1       3.604   5.987  -0.059  0.00  0.00    +0.026 A 
ENDBRANCH   2   4
BRANCH   1  19
ATOM     16  C   UNL     1      -6.199   7.088  -0.320  0.00  0.00    +0.108 A 
ATOM     17  N   UNL     1      -5.134   7.860  -0.233  0.00  0.00    -0.144 NA
ATOM     18  N   UNL     1      -3.968   7.388  -0.139  0.00  0.00    -0.121 NA
ATOM     19  C   UNL     1      -3.740   6.082  -0.135  0.00  0.00    +0.218 A 
ATOM     20  S   UNL     1      -5.420   5.476  -0.268  0.00  0.00    -0.031 S 
BRANCH  16  21
ATOM     21  C   UNL     1      -7.656   7.457  -0.430  0.00  0.00    +0.100 C 
BRANCH  21  25
ATOM     22  C   UNL     1      -8.725   7.825  -4.549  0.00  0.00    +0.000 A 
ATOM     23  C   UNL     1      -8.843   6.605  -3.911  0.00  0.00    +0.000 A 
ATOM     24  C   UNL     1      -8.497   6.485  -2.578  0.00  0.00    +0.004 A 
ATOM     25  C   UNL     1      -8.033   7.587  -1.883  0.00  0.00    -0.041 A 
ATOM     26  C   UNL     1      -7.919   8.808  -2.520  0.00  0.00    +0.004 A 
ATOM     27  C   UNL     1      -8.260   8.926  -3.854  0.00  0.00    +0.000 A 
ENDBRANCH  21  25
ENDBRANCH  16  21
ENDBRANCH   1  19
TORSDOF 4
