REMARK  Name = ZINC06821981
REMARK  12 active torsions:
REMARK  status: ('A' for Active; 'I' for Inactive)
REMARK    1  A    between atoms: C_1  and  C_2
REMARK    2  A    between atoms: C_2  and  C_3
REMARK    3  A    between atoms: C_6  and  N_9
REMARK    4  A    between atoms: N_9  and  C_10
REMARK    5  A    between atoms: C_10  and  C_12
REMARK    6  A    between atoms: C_10  and  C_19
REMARK    7  A    between atoms: C_15  and  C_18
REMARK    8  A    between atoms: N_21  and  C_22
REMARK    9  A    between atoms: C_22  and  C_23
REMARK   10  A    between atoms: C_29  and  C_31
REMARK   11  A    between atoms: C_32  and  N_39
REMARK   12  A    between atoms: C_33  and  C_36
REMARK                            x       y       z     vdW  Elec       q    Type
REMARK                         _______ _______ _______ _____ _____    ______ ____
ROOT
ATOM      1  N   UNL     1       2.610  -1.905   5.225  0.00  0.00    -0.251 N 
ATOM      2  C   UNL     1       1.965  -2.383   4.143  0.00  0.00    +0.262 C 
ATOM      3  O   UNL     1       1.154  -3.283   4.266  0.00  0.00    -0.269 OA
ENDROOT
BRANCH   1   7
ATOM      4  C   UNL     1       1.962  -3.621   8.964  0.00  0.00    -0.048 A 
ATOM      5  C   UNL     1       2.943  -2.659   8.807  0.00  0.00    +0.005 A 
ATOM      6  C   UNL     1       3.164  -2.092   7.568  0.00  0.00    +0.024 A 
ATOM      7  C   UNL     1       2.392  -2.481   6.480  0.00  0.00    +0.038 A 
ATOM      8  C   UNL     1       1.404  -3.443   6.642  0.00  0.00    +0.024 A 
ATOM      9  C   UNL     1       1.192  -4.011   7.883  0.00  0.00    +0.005 A 
BRANCH   4  11
ATOM     10  C   UNL     1       2.604  -5.487  10.466  0.00  0.00    +0.009 C 
ATOM     11  C   UNL     1       1.727  -4.242  10.317  0.00  0.00    +0.032 C 
ENDBRANCH   4  11
ENDBRANCH   1   7
BRANCH   2  12
ATOM     12  C   UNL     1       2.240  -1.822   2.819  0.00  0.00    +0.116 A 
ATOM     13  C   UNL     1       1.352  -1.508   1.788  0.00  0.00    +0.076 A 
ATOM     14  C   UNL     1       1.997  -0.987   0.667  0.00  0.00    +0.155 A 
ATOM     15  N   UNL     1       3.304  -0.847   0.684  0.00  0.00    -0.203 NA
ATOM     16  S   UNL     1       3.797  -1.348   2.095  0.00  0.00    +0.019 S 
BRANCH  14  17
ATOM     17  C   UNL     1       1.221  -0.596  -0.524  0.00  0.00    +0.262 C 
ATOM     18  O   UNL     1       0.012  -0.728  -0.533  0.00  0.00    -0.269 OA
ATOM     19  N   UNL     1       1.852  -0.092  -1.604  0.00  0.00    -0.324 N 
ATOM     20  H   UNL     1       2.816   0.013  -1.597  0.00  0.00    +0.145 HD
ATOM     21  H   UNL     1       1.341   0.165  -2.387  0.00  0.00    +0.145 HD
ENDBRANCH  14  17
BRANCH  13  22
ATOM     22  N   UNL     1      -0.022  -1.695   1.871  0.00  0.00    -0.355 N 
ATOM     23  H   UNL     1      -0.414  -2.062   2.679  0.00  0.00    +0.142 HD
ATOM     24  H   UNL     1      -0.589  -1.458   1.121  0.00  0.00    +0.142 HD
ENDBRANCH  13  22
ENDBRANCH   2  12
BRANCH   1  25
ATOM     25  C   UNL     1       3.540  -0.781   5.086  0.00  0.00    +0.197 C 
BRANCH  25  26
ATOM     26  C   UNL     1       3.139   0.323   6.031  0.00  0.00    -0.018 A 
ATOM     27  C   UNL     1       2.089   0.132   6.910  0.00  0.00    +0.006 A 
ATOM     28  C   UNL     1       1.724   1.143   7.779  0.00  0.00    +0.004 A 
ATOM     29  C   UNL     1       2.402   2.347   7.763  0.00  0.00    -0.050 A 
ATOM     30  C   UNL     1       3.449   2.539   6.881  0.00  0.00    +0.004 A 
ATOM     31  C   UNL     1       3.817   1.527   6.014  0.00  0.00    +0.006 A 
ATOM     32  C   UNL     1       2.002   3.450   8.709  0.00  0.00    +0.044 C 
ENDBRANCH  25  26
BRANCH  25  33
ATOM     33  C   UNL     1       4.937  -1.241   5.415  0.00  0.00    +0.239 C 
ATOM     34  O   UNL     1       5.136  -2.394   5.734  0.00  0.00    -0.273 OA
ATOM     35  N   UNL     1       5.965  -0.371   5.355  0.00  0.00    -0.311 N 
ATOM     36  H   UNL     1       5.805   0.551   5.100  0.00  0.00    +0.149 HD
BRANCH  35  37
ATOM     37  C   UNL     1       7.322  -0.818   5.675  0.00  0.00    +0.135 C 
BRANCH  37  38
ATOM     38  C   UNL     1       8.293   0.355   5.530  0.00  0.00    +0.135 C 
ATOM     39  C   UNL     1       9.725  -0.105   5.865  0.00  0.00    +0.035 C 
ATOM     40  C   UNL     1      10.531   0.198   4.578  0.00  0.00    +0.031 C 
ATOM     41  C   UNL     1       9.644   1.261   3.881  0.00  0.00    +0.160 C 
ATOM     42  O   UNL     1       8.300   0.819   4.169  0.00  0.00    -0.375 OA
ENDBRANCH  37  38
ENDBRANCH  35  37
ENDBRANCH  25  33
ENDBRANCH   1  25
TORSDOF 10
