REMARK  Name = ZINC67349147
REMARK  10 active torsions:
REMARK  status: ('A' for Active; 'I' for Inactive)
REMARK    1  A    between atoms: C_1  and  C_2
REMARK    2  A    between atoms: C_2  and  C_3
REMARK    3  A    between atoms: C_3  and  C_5
REMARK    4  A    between atoms: C_3  and  O_6
REMARK    5  A    between atoms: O_6  and  C_7
REMARK    6  A    between atoms: C_10  and  N_13
REMARK    7  A    between atoms: C_14  and  C_16
REMARK    8  A    between atoms: N_18  and  C_19
REMARK    9  A    between atoms: C_19  and  C_20
REMARK   10  A    between atoms: N_24  and  C_26
REMARK                            x       y       z     vdW  Elec       q    Type
REMARK                         _______ _______ _______ _____ _____    ______ ____
ROOT
ATOM      1  N   UNL     1      -7.595   0.321  -1.256  0.00  0.00    -0.278 N 
ATOM      2  C   UNL     1      -8.246   0.474  -2.426  0.00  0.00    +0.303 C 
ATOM      3  O   UNL     1      -7.619   0.598  -3.458  0.00  0.00    -0.265 OA
ATOM      4  H   UNL     1      -8.093   0.284  -0.425  0.00  0.00    +0.155 HD
ENDROOT
BRANCH   1   8
ATOM      5  C   UNL     1      -3.439   0.012  -1.209  0.00  0.00    +0.121 A 
ATOM      6  C   UNL     1      -4.062   0.838  -2.133  0.00  0.00    +0.047 A 
ATOM      7  C   UNL     1      -5.439   0.941  -2.149  0.00  0.00    +0.027 A 
ATOM      8  C   UNL     1      -6.200   0.217  -1.240  0.00  0.00    +0.034 A 
ATOM      9  C   UNL     1      -5.575  -0.610  -0.315  0.00  0.00    +0.027 A 
ATOM     10  C   UNL     1      -4.199  -0.715  -0.304  0.00  0.00    +0.047 A 
BRANCH   5  11
ATOM     11  O   UNL     1      -2.083  -0.089  -1.193  0.00  0.00    -0.489 OA
BRANCH  11  12
ATOM     12  C   UNL     1      -1.513  -1.035  -0.286  0.00  0.00    +0.170 C 
ATOM     13  C   UNL     1      -1.511  -2.422  -0.930  0.00  0.00    +0.052 C 
BRANCH  12  15
ATOM     14  C   UNL     1      -0.088   0.707   0.799  0.00  0.00    +0.007 C 
ATOM     15  C   UNL     1      -0.077  -0.624   0.044  0.00  0.00    +0.041 C 
ENDBRANCH  12  15
ENDBRANCH  11  12
ENDBRANCH   5  11
ENDBRANCH   1   8
BRANCH   2  16
ATOM     16  C   UNL     1      -9.739   0.491  -2.453  0.00  0.00    +0.299 C 
ATOM     17  O   UNL     1     -10.366   0.368  -1.421  0.00  0.00    -0.265 OA
ATOM     18  N   UNL     1     -10.390   0.644  -3.623  0.00  0.00    -0.307 N 
ATOM     19  H   UNL     1      -9.889   0.743  -4.447  0.00  0.00    +0.149 HD
BRANCH  18  20
ATOM     20  C   UNL     1     -11.855   0.661  -3.649  0.00  0.00    +0.106 C 
BRANCH  20  21
ATOM     21  C   UNL     1     -12.337   0.847  -5.089  0.00  0.00    -0.012 C 
ATOM     22  C   UNL     1     -12.027  -0.409  -5.936  0.00  0.00    -0.015 C 
ATOM     23  C   UNL     1     -13.262  -0.603  -6.835  0.00  0.00    -0.078 C 
ATOM     24  N   UNL     1     -14.197   0.501  -6.531  0.00  0.00    +0.382 N 
ATOM     25  C   UNL     1     -13.883   0.933  -5.143  0.00  0.00    -0.074 C 
ATOM     26  H   UNL     1     -14.052   1.267  -7.172  0.00  0.00    -0.081 HD
BRANCH  24  27
ATOM     27  C   UNL     1     -15.585   0.026  -6.613  0.00  0.00    -0.069 C 
ATOM     28  C   UNL     1     -16.457   0.584  -7.740  0.00  0.00    -0.017 C 
ATOM     29  C   UNL     1     -16.695   1.030  -6.295  0.00  0.00    -0.017 C 
ENDBRANCH  24  27
ENDBRANCH  20  21
ENDBRANCH  18  20
ENDBRANCH   2  16
TORSDOF 8
