REMARK  Name = ZINC59942059
REMARK  8 active torsions:
REMARK  status: ('A' for Active; 'I' for Inactive)
REMARK    1  A    between atoms: C_1  and  C_2
REMARK    2  A    between atoms: C_6  and  N_8
REMARK    3  A    between atoms: C_9  and  N_31
REMARK    4  A    between atoms: C_14  and  S_15
REMARK    5  A    between atoms: S_15  and  C_16
REMARK    6  A    between atoms: C_16  and  C_17
REMARK    7  A    between atoms: N_19  and  C_20
REMARK    8  A    between atoms: C_25  and  C_26
REMARK                            x       y       z     vdW  Elec       q    Type
REMARK                         _______ _______ _______ _____ _____    ______ ____
ROOT
ATOM      1  N   UNL     1      -0.132  -3.091   2.521  0.00  0.00    -0.277 N 
ATOM      2  C   UNL     1      -0.135  -4.462   2.592  0.00  0.00    +0.108 A 
ATOM      3  C   UNL     1       0.011  -5.063   3.809  0.00  0.00    +0.114 A 
ATOM      4  C   UNL     1       0.160  -4.255   4.954  0.00  0.00    +0.276 A 
ATOM      5  O   UNL     1       0.293  -4.771   6.055  0.00  0.00    -0.266 OA
ATOM      6  N   UNL     1       0.157  -2.919   4.832  0.00  0.00    -0.185 NA
ATOM      7  C   UNL     1       0.021  -2.346   3.655  0.00  0.00    +0.179 A 
ENDROOT
BRANCH   1  13
ATOM      8  C   UNL     1      -3.059  -1.475  -1.085  0.00  0.00    +0.044 C 
ATOM      9  C   UNL     1      -1.688  -1.659  -0.489  0.00  0.00    -0.048 A 
ATOM     10  C   UNL     1      -0.573  -1.200  -1.166  0.00  0.00    +0.003 A 
ATOM     11  C   UNL     1       0.688  -1.366  -0.623  0.00  0.00    +0.002 A 
ATOM     12  C   UNL     1       0.837  -1.993   0.599  0.00  0.00    +0.026 A 
ATOM     13  C   UNL     1      -0.280  -2.455   1.282  0.00  0.00    +0.050 A 
ATOM     14  C   UNL     1      -1.545  -2.281   0.736  0.00  0.00    +0.029 A 
ENDBRANCH   1  13
BRANCH   2  15
ATOM     15  N   UNL     1      -0.284  -5.219   1.453  0.00  0.00    -0.344 N 
ATOM     16  H   UNL     1      -0.294  -4.790   0.583  0.00  0.00    +0.144 HD
ATOM     17  H   UNL     1      -0.379  -6.182   1.519  0.00  0.00    +0.144 HD
ENDBRANCH   2  15
BRANCH   7  18
ATOM     18  S   UNL     1       0.029  -0.588   3.540  0.00  0.00    -0.078 S 
BRANCH  18  19
ATOM     19  C   UNL     1       0.253  -0.038   5.255  0.00  0.00    +0.173 C 
BRANCH  19  20
ATOM     20  C   UNL     1       0.277   1.468   5.300  0.00  0.00    +0.227 C 
ATOM     21  O   UNL     1       0.156   2.107   4.276  0.00  0.00    -0.275 OA
ATOM     22  N   UNL     1       0.434   2.104   6.477  0.00  0.00    -0.284 N 
ATOM     23  H   UNL     1       0.591   1.594   7.287  0.00  0.00    +0.155 HD
BRANCH  22  24
ATOM     24  C   UNL     1       0.371   3.502   6.532  0.00  0.00    +0.045 A 
ATOM     25  C   UNL     1      -0.271   4.209   5.523  0.00  0.00    +0.026 A 
ATOM     26  C   UNL     1      -0.332   5.587   5.579  0.00  0.00    +0.040 A 
ATOM     27  C   UNL     1       0.247   6.265   6.639  0.00  0.00    +0.124 A 
ATOM     28  C   UNL     1       0.887   5.562   7.645  0.00  0.00    +0.052 A 
ATOM     29  C   UNL     1       0.945   4.183   7.597  0.00  0.00    +0.079 A 
ATOM     30  F   UNL     1       0.186   7.614   6.691  0.00  0.00    -0.205 F 
BRANCH  29  31
ATOM     31  C   UNL     1       1.637   3.418   8.695  0.00  0.00    +0.419 C 
ATOM     32  F   UNL     1       2.131   4.316   9.648  0.00  0.00    -0.166 F 
ATOM     33  F   UNL     1       0.726   2.548   9.303  0.00  0.00    -0.166 F 
ATOM     34  F   UNL     1       2.697   2.681   8.155  0.00  0.00    -0.166 F 
ENDBRANCH  29  31
ENDBRANCH  22  24
ENDBRANCH  19  20
ENDBRANCH  18  19
ENDBRANCH   7  18
TORSDOF 7
