REMARK  Name = ZINC36314111
REMARK  5 active torsions:
REMARK  status: ('A' for Active; 'I' for Inactive)
REMARK    1  A    between atoms: C_1  and  C_2
REMARK    2  A    between atoms: C_2  and  C_3
REMARK    3  A    between atoms: C_3  and  N_4
REMARK    4  A    between atoms: C_5  and  C_7
REMARK    5  A    between atoms: N_18  and  C_21
REMARK                            x       y       z     vdW  Elec       q    Type
REMARK                         _______ _______ _______ _____ _____    ______ ____
ROOT
ATOM      1  C   UNL     1       1.290  -4.113   2.285  0.00  0.00    +0.119 A 
ATOM      2  C   UNL     1       1.825  -4.819   3.362  0.00  0.00    +0.132 A 
ATOM      3  N   UNL     1       1.746  -6.141   3.386  0.00  0.00    -0.223 NA
ATOM      4  C   UNL     1       1.168  -6.817   2.409  0.00  0.00    +0.198 A 
ATOM      5  N   UNL     1       0.627  -6.192   1.331  0.00  0.00    -0.294 N 
ATOM      6  H   UNL     1       0.209  -6.714   0.627  0.00  0.00    +0.172 HD
ATOM      7  C   UNL     1       0.665  -4.845   1.239  0.00  0.00    +0.265 A 
ATOM      8  O   UNL     1       0.179  -4.272   0.280  0.00  0.00    -0.267 OA
ATOM      9  N   UNL     1       1.113  -8.179   2.485  0.00  0.00    -0.298 N 
ATOM     10  C   UNL     1       0.598  -8.970   1.359  0.00  0.00    +0.127 C 
ATOM     11  C   UNL     1       1.661 -10.000   0.957  0.00  0.00    +0.124 C 
ATOM     12  N   UNL     1       2.118 -10.701   2.166  0.00  0.00    -0.326 N 
ATOM     13  C   UNL     1       2.633  -9.909   3.291  0.00  0.00    +0.124 C 
ATOM     14  C   UNL     1       1.575  -8.880   3.692  0.00  0.00    +0.127 C 
ENDROOT
BRANCH  12  15
ATOM     15  C   UNL     1       2.062 -12.095   2.243  0.00  0.00    +0.048 A 
ATOM     16  C   UNL     1       3.145 -12.859   1.828  0.00  0.00    +0.024 A 
ATOM     17  C   UNL     1       3.087 -14.237   1.907  0.00  0.00    +0.002 A 
ATOM     18  C   UNL     1       1.952 -14.856   2.397  0.00  0.00    +0.002 A 
ATOM     19  C   UNL     1       0.872 -14.099   2.812  0.00  0.00    +0.022 A 
ATOM     20  C   UNL     1       0.925 -12.720   2.741  0.00  0.00    +0.062 A 
ATOM     21 CL   UNL     1      -0.429 -11.770   3.268  0.00  0.00    -0.082 Cl
ENDBRANCH  12  15
BRANCH   1  23
ATOM     22  N   UNL     1       0.745  -1.974   1.245  0.00  0.00    -0.311 N 
ATOM     23  C   UNL     1       1.365  -2.647   2.235  0.00  0.00    +0.251 C 
ATOM     24  O   UNL     1       1.986  -2.040   3.087  0.00  0.00    -0.270 OA
ATOM     25  H   UNL     1       0.313  -2.459   0.525  0.00  0.00    +0.149 HD
BRANCH  22  26
ATOM     26  C   UNL     1       0.725  -0.509   1.256  0.00  0.00    +0.104 C 
BRANCH  26  28
ATOM     27  C   UNL     1      -0.057   1.530   0.042  0.00  0.00    +0.005 C 
ATOM     28  C   UNL     1      -0.036  -0.000   0.030  0.00  0.00    +0.015 C 
ENDBRANCH  26  28
ENDBRANCH  22  26
ENDBRANCH   1  23
TORSDOF 4
