REMARK  Name = ZINC56143234
REMARK  11 active torsions:
REMARK  status: ('A' for Active; 'I' for Inactive)
REMARK    1  A    between atoms: C_1  and  C_2
REMARK    2  A    between atoms: C_2  and  C_3
REMARK    3  A    between atoms: C_2  and  N_4
REMARK    4  A    between atoms: C_5  and  C_7
REMARK    5  A    between atoms: C_7  and  C_9
REMARK    6  A    between atoms: C_7  and  N_15
REMARK    7  A    between atoms: N_15  and  C_16
REMARK    8  A    between atoms: C_16  and  C_17
REMARK    9  A    between atoms: C_17  and  N_18
REMARK   10  A    between atoms: N_18  and  C_19
REMARK   11  A    between atoms: C_22  and  N_25
REMARK                            x       y       z     vdW  Elec       q    Type
REMARK                         _______ _______ _______ _____ _____    ______ ____
ROOT
ATOM      1  N   UNL     1      -3.979  -1.213  -2.509  0.00  0.00    -0.301 NA
ATOM      2  H   UNL     1      -3.570  -0.485  -3.074  0.00  0.00    +0.123 HD
ENDROOT
BRANCH   1   3
ATOM      3  C   UNL     1      -3.465  -1.164  -1.134  0.00  0.00    +0.171 C 
BRANCH   3   4
ATOM      4  C   UNL     1      -3.485  -2.550  -0.541  0.00  0.00    -0.022 A 
ATOM      5  C   UNL     1      -3.120  -3.637  -1.312  0.00  0.00    +0.005 A 
ATOM      6  C   UNL     1      -3.138  -4.908  -0.768  0.00  0.00    +0.000 A 
ATOM      7  C   UNL     1      -3.521  -5.091   0.548  0.00  0.00    +0.000 A 
ATOM      8  C   UNL     1      -3.884  -4.003   1.319  0.00  0.00    +0.000 A 
ATOM      9  C   UNL     1      -3.862  -2.732   0.777  0.00  0.00    +0.005 A 
ENDBRANCH   3   4
BRANCH   3  11
ATOM     10  N   UNL     1      -1.372  -0.511   0.012  0.00  0.00    -0.311 N 
ATOM     11  C   UNL     1      -2.051  -0.643  -1.145  0.00  0.00    +0.235 C 
ATOM     12  O   UNL     1      -1.524  -0.341  -2.194  0.00  0.00    -0.274 OA
ATOM     13  H   UNL     1      -1.794  -0.752   0.852  0.00  0.00    +0.149 HD
BRANCH  10  15
ATOM     14  C   UNL     1      -0.019   1.526   0.010  0.00  0.00    +0.027 C 
ATOM     15  C   UNL     1       0.002  -0.004   0.002  0.00  0.00    +0.067 C 
ATOM     16  C   UNL     1       0.742  -0.511   1.242  0.00  0.00    +0.027 C 
ENDBRANCH  10  15
ENDBRANCH   3  11
ENDBRANCH   1   3
BRANCH   1  17
ATOM     17  C   UNL     1      -5.446  -1.131  -2.526  0.00  0.00    +0.100 C 
BRANCH  17  18
ATOM     18  C   UNL     1      -5.943  -1.185  -3.972  0.00  0.00    +0.116 C 
BRANCH  18  19
ATOM     19  N   UNL     1      -7.405  -1.103  -3.989  0.00  0.00    -0.343 N 
ATOM     20  H   UNL     1      -7.897  -1.028  -3.155  0.00  0.00    +0.146 HD
BRANCH  19  21
ATOM     21  C   UNL     1      -8.093  -1.133  -5.204  0.00  0.00    +0.027 A 
ATOM     22  C   UNL     1      -7.391  -1.246  -6.398  0.00  0.00    +0.025 A 
ATOM     23  C   UNL     1      -8.074  -1.276  -7.598  0.00  0.00    +0.034 A 
ATOM     24  C   UNL     1      -9.454  -1.193  -7.612  0.00  0.00    +0.126 A 
ATOM     25  C   UNL     1     -10.156  -1.080  -6.426  0.00  0.00    +0.034 A 
ATOM     26  C   UNL     1      -9.480  -1.055  -5.222  0.00  0.00    +0.025 A 
BRANCH  24  27
ATOM     27  N   UNL     1     -10.183  -1.225  -8.900  0.00  0.00    +0.056 N 
ATOM     28  O   UNL     1      -9.571  -1.323  -9.938  0.00  0.00    -0.126 OA
ATOM     29  O   UNL     1     -11.389  -1.153  -8.914  0.00  0.00    -0.126 OA
ENDBRANCH  24  27
ENDBRANCH  19  21
ENDBRANCH  18  19
ENDBRANCH  17  18
ENDBRANCH   1  17
TORSDOF 9
