REMARK  Name = ZINC11592780
REMARK  12 active torsions:
REMARK  status: ('A' for Active; 'I' for Inactive)
REMARK    1  A    between atoms: C_1  and  C_2
REMARK    2  A    between atoms: C_11  and  C_28
REMARK    3  A    between atoms: C_11  and  O_38
REMARK    4  A    between atoms: C_12  and  C_27
REMARK    5  A    between atoms: C_14  and  O_26
REMARK    6  A    between atoms: C_18  and  C_25
REMARK    7  A    between atoms: C_28  and  C_30
REMARK    8  A    between atoms: C_30  and  O_31
REMARK    9  A    between atoms: O_31  and  C_32
REMARK   10  A    between atoms: C_32  and  C_34
REMARK   11  A    between atoms: C_34  and  C_35
REMARK   12  A    between atoms: C_35  and  C_36
REMARK                            x       y       z     vdW  Elec       q    Type
REMARK                         _______ _______ _______ _____ _____    ______ ____
ROOT
ATOM      1  C   UNL     1       0.699   3.297   1.753  0.00  0.00    +0.012 C 
ATOM      2  C   UNL     1       1.149   2.649   0.442  0.00  0.00    +0.013 C 
ATOM      3  C   UNL     1       0.687   3.503  -0.743  0.00  0.00    +0.012 C 
ATOM      4  C   UNL     1      -0.842   3.523  -0.796  0.00  0.00    -0.000 C 
ATOM      5  C   UNL     1      -1.306   4.422  -1.927  0.00  0.00    +0.002 C 
ATOM      6  C   UNL     1      -0.946   5.889  -1.829  0.00  0.00    +0.008 C 
ATOM      7  C   UNL     1      -2.000   6.572  -2.743  0.00  0.00    +0.043 C 
ATOM      8  C   UNL     1      -3.208   5.606  -2.815  0.00  0.00    +0.133 C 
ATOM      9  C   UNL     1      -2.857   4.451  -1.883  0.00  0.00    +0.009 C 
ATOM     10  C   UNL     1      -3.362   3.079  -2.288  0.00  0.00    +0.041 C 
ATOM     11  C   UNL     1      -2.886   2.086  -1.216  0.00  0.00    +0.120 C 
ATOM     12  C   UNL     1      -1.368   2.104  -1.063  0.00  0.00    +0.035 C 
ATOM     13  C   UNL     1      -0.965   1.196   0.102  0.00  0.00    +0.013 C 
ATOM     14  C   UNL     1       0.519   1.275   0.307  0.00  0.00    -0.053 C 
ATOM     15  C   UNL     1       1.300   0.204   0.365  0.00  0.00    +0.051 C 
ATOM     16  C   UNL     1       0.733  -1.143   0.204  0.00  0.00    +0.179 C 
ATOM     17  O   UNL     1       1.439  -2.130   0.292  0.00  0.00    -0.288 OA
ATOM     18  C   UNL     1      -0.710  -1.272  -0.065  0.00  0.00    +0.047 C 
ATOM     19  C   UNL     1      -1.470  -0.189  -0.111  0.00  0.00    -0.012 C 
ATOM     20  C   UNL     1      -1.640   1.753   1.357  0.00  0.00    +0.020 C 
ATOM     21  C   UNL     1      -3.318   4.774  -0.460  0.00  0.00    +0.015 C 
ENDROOT
BRANCH  11  22
ATOM     22  O   UNL     1      -3.301   0.769  -1.583  0.00  0.00    -0.391 OA
ATOM     23  H   UNL     1      -4.257   0.676  -1.700  0.00  0.00    +0.210 HD
ENDBRANCH  11  22
BRANCH   8  24
ATOM     24  C   UNL     1      -3.393   5.102  -4.223  0.00  0.00    +0.202 C 
ATOM     25  O   UNL     1      -2.466   5.118  -4.997  0.00  0.00    -0.291 OA
BRANCH  24  26
ATOM     26  C   UNL     1      -4.735   4.579  -4.666  0.00  0.00    +0.309 C 
BRANCH  26  27
ATOM     27  O   UNL     1      -4.656   4.157  -6.053  0.00  0.00    -0.457 OA
BRANCH  27  28
ATOM     28  C   UNL     1      -5.776   3.662  -6.604  0.00  0.00    +0.308 C 
ATOM     29  O   UNL     1      -6.788   3.583  -5.949  0.00  0.00    -0.251 OA
BRANCH  28  30
ATOM     30  C   UNL     1      -5.770   3.203  -8.040  0.00  0.00    +0.132 C 
BRANCH  30  31
ATOM     31  C   UNL     1      -7.160   2.687  -8.416  0.00  0.00    +0.136 C 
BRANCH  31  32
ATOM     32  C   UNL     1      -7.155   2.229  -9.852  0.00  0.00    +0.357 C 
ATOM     33  O   UNL     1      -6.142   2.307 -10.507  0.00  0.00    -0.246 OA
ATOM     34  O   UNL     1      -8.274   1.734 -10.403  0.00  0.00    -0.246 OA
ENDBRANCH  31  32
ENDBRANCH  30  31
ENDBRANCH  28  30
ENDBRANCH  27  28
ENDBRANCH  26  27
ENDBRANCH  24  26
ENDBRANCH   8  24
BRANCH   8  35
ATOM     35  O   UNL     1      -4.395   6.262  -2.365  0.00  0.00    -0.380 OA
ATOM     36  H   UNL     1      -4.668   7.006  -2.920  0.00  0.00    +0.211 HD
ENDBRANCH   8  35
TORSDOF 9
