REMARK  Name = ZINC12408475
REMARK  3 active torsions:
REMARK  status: ('A' for Active; 'I' for Inactive)
REMARK    1  A    between atoms: C_3  and  C_8
REMARK    2  A    between atoms: C_5  and  O_7
REMARK    3  A    between atoms: C_13  and  C_18
REMARK                            x       y       z     vdW  Elec       q    Type
REMARK                         _______ _______ _______ _____ _____    ______ ____
ROOT
ATOM      1  C   UNL     1       2.110   2.031   1.089  0.00  0.00    +0.137 C 
ATOM      2  C   UNL     1       2.653   0.628   1.271  0.00  0.00    +0.037 C 
ATOM      3  C   UNL     1       2.236  -0.536   0.752  0.00  0.00    +0.019 C 
ATOM      4  C   UNL     1       2.916  -1.845   1.117  0.00  0.00    +0.059 C 
ATOM      5  C   UNL     1       3.427  -1.782   2.556  0.00  0.00    +0.032 C 
ATOM      6  C   UNL     1       4.436  -0.629   2.627  0.00  0.00    +0.088 C 
ATOM      7  C   UNL     1       3.766   0.623   2.159  0.00  0.00    +0.163 C 
ATOM      8  O   UNL     1       4.194   1.690   2.556  0.00  0.00    -0.292 OA
ATOM      9  N   UNL     1       1.207  -0.678  -0.132  0.00  0.00    -0.297 N 
ATOM     10  C   UNL     1       0.002  -0.003   0.002  0.00  0.00    +0.208 A 
ATOM     11  C   UNL     1      -0.018   1.452   0.010  0.00  0.00    +0.205 A 
ATOM     12  N   UNL     1      -1.249   1.853   0.062  0.00  0.00    -0.032 NA
ATOM     13  O   UNL     1      -2.069   0.693   0.127  0.00  0.00    -0.239 OA
ATOM     14  N   UNL     1      -1.212  -0.441   0.093  0.00  0.00    -0.032 NA
ATOM     15  N   UNL     1       1.160   2.198   0.003  0.00  0.00    -0.313 N 
ATOM     16  H   UNL     1       1.323  -1.277  -0.886  0.00  0.00    +0.153 HD
ATOM     17  H   UNL     1       1.343   2.820  -0.718  0.00  0.00    +0.149 HD
ENDROOT
BRANCH   5  18
ATOM     18  C   UNL     1       4.102  -3.079   2.918  0.00  0.00    -0.043 A 
ATOM     19  C   UNL     1       5.199  -3.513   2.196  0.00  0.00    +0.005 A 
ATOM     20  C   UNL     1       5.822  -4.700   2.532  0.00  0.00    +0.020 A 
ATOM     21  C   UNL     1       5.343  -5.460   3.584  0.00  0.00    +0.041 A 
ATOM     22  C   UNL     1       4.242  -5.028   4.303  0.00  0.00    +0.020 A 
ATOM     23  C   UNL     1       3.623  -3.838   3.970  0.00  0.00    +0.005 A 
ATOM     24 CL   UNL     1       6.121  -6.954   4.002  0.00  0.00    -0.084 Cl
ENDBRANCH   5  18
BRANCH   1  27
ATOM     25  C   UNL     1       1.337   3.880   4.290  0.00  0.00    +0.004 A 
ATOM     26  C   UNL     1       1.955   3.492   3.115  0.00  0.00    +0.006 A 
ATOM     27  C   UNL     1       1.438   2.447   2.372  0.00  0.00    -0.019 A 
ATOM     28  C   UNL     1       0.308   1.781   2.807  0.00  0.00    +0.051 A 
ATOM     29  C   UNL     1      -0.310   2.165   3.988  0.00  0.00    +0.117 A 
ATOM     30  C   UNL     1       0.208   3.217   4.729  0.00  0.00    +0.045 A 
BRANCH  29  31
ATOM     31  O   UNL     1      -1.421   1.511   4.418  0.00  0.00    -0.507 OA
ATOM     32  H   UNL     1      -1.236   0.756   4.992  0.00  0.00    +0.292 HD
ENDBRANCH  29  31
ENDBRANCH   1  27
TORSDOF 3
