REMARK  Name = ZINC23256958
REMARK  6 active torsions:
REMARK  status: ('A' for Active; 'I' for Inactive)
REMARK    1  A    between atoms: C_1  and  C_2
REMARK    2  A    between atoms: C_4  and  C_7
REMARK    3  A    between atoms: C_7  and  N_8
REMARK    4  A    between atoms: N_11  and  C_14
REMARK    5  A    between atoms: C_14  and  C_15
REMARK    6  A    between atoms: C_21  and  C_26
REMARK                            x       y       z     vdW  Elec       q    Type
REMARK                         _______ _______ _______ _____ _____    ______ ____
ROOT
ATOM      1  C   UNL     1      -6.200  -0.298   4.991  0.00  0.00    +0.094 A 
ATOM      2  N   UNL     1      -6.854  -0.346   6.179  0.00  0.00    -0.312 N 
ATOM      3  H   UNL     1      -6.289  -0.285   7.121  0.00  0.00    +0.170 HD
ATOM      4  C   UNL     1      -8.194  -0.468   6.236  0.00  0.00    +0.260 A 
ATOM      5  O   UNL     1      -8.767  -0.505   7.311  0.00  0.00    -0.267 OA
ATOM      6  C   UNL     1      -8.934  -0.559   5.014  0.00  0.00    +0.080 A 
ATOM      7  C   UNL     1     -10.372  -0.700   4.816  0.00  0.00    +0.010 A 
ATOM      8  C   UNL     1     -10.851  -0.767   3.548  0.00  0.00    +0.057 A 
ATOM      9  S   UNL     1      -9.382  -0.643   2.545  0.00  0.00    -0.076 S 
ATOM     10  C   UNL     1      -8.172  -0.506   3.836  0.00  0.00    +0.116 A 
ATOM     11  N   UNL     1      -6.848  -0.379   3.860  0.00  0.00    -0.229 NA
ENDROOT
BRANCH   7  12
ATOM     12  C   UNL     1     -11.290  -0.768   5.972  0.00  0.00    +0.021 A 
ATOM     13  C   UNL     1     -12.432  -0.051   6.211  0.00  0.00    +0.016 A 
ATOM     14  C   UNL     1     -13.135  -0.293   7.372  0.00  0.00    +0.008 A 
ATOM     15  C   UNL     1     -12.670  -1.222   8.245  0.00  0.00    +0.046 A 
ATOM     16  S   UNL     1     -11.194  -1.801   7.425  0.00  0.00    -0.097 S 
ENDBRANCH   7  12
BRANCH   1  17
ATOM     17  C   UNL     1      -4.700  -0.155   4.976  0.00  0.00    -0.003 C 
BRANCH  17  21
ATOM     18  N   UNL     1      -2.805   1.275   1.482  0.00  0.00    -0.299 NA
ATOM     19  C   UNL     1      -2.338   0.001   2.046  0.00  0.00    +0.066 C 
ATOM     20  C   UNL     1      -2.773  -0.095   3.511  0.00  0.00    -0.063 C 
ATOM     21  N   UNL     1      -4.237   0.009   3.592  0.00  0.00    +0.386 N 
ATOM     22  C   UNL     1      -4.703   1.283   3.028  0.00  0.00    -0.063 C 
ATOM     23  C   UNL     1      -4.269   1.379   1.563  0.00  0.00    +0.066 C 
ATOM     24  H   UNL     1      -4.669  -0.806   2.994  0.00  0.00    -0.081 HD
BRANCH  18  25
ATOM     25  C   UNL     1      -2.342   1.439   0.098  0.00  0.00    +0.161 C 
BRANCH  25  29
ATOM     26  C   UNL     1       2.673   0.586  -0.079  0.00  0.00    +0.069 C 
ATOM     27  C   UNL     1       1.312   1.227   0.008  0.00  0.00    +0.081 A 
ATOM     28  C   UNL     1       0.062   0.568  -0.021  0.00  0.00    +0.072 A 
ATOM     29  C   UNL     1      -0.841   1.573   0.083  0.00  0.00    +0.151 A 
ATOM     30  O   UNL     1      -0.135   2.709   0.171  0.00  0.00    -0.358 OA
ATOM     31  N   UNL     1       1.054   2.498   0.125  0.00  0.00    -0.083 NA
ENDBRANCH  25  29
ENDBRANCH  18  25
ENDBRANCH  17  21
ENDBRANCH   1  17
TORSDOF 5
