REMARK  Name = ZINC66931311
REMARK  5 active torsions:
REMARK  status: ('A' for Active; 'I' for Inactive)
REMARK    1  A    between atoms: C_10  and  C_11
REMARK    2  A    between atoms: C_10  and  O_28
REMARK    3  A    between atoms: C_11  and  N_12
REMARK    4  A    between atoms: C_13  and  C_15
REMARK    5  A    between atoms: C_15  and  N_16
REMARK                            x       y       z     vdW  Elec       q    Type
REMARK                         _______ _______ _______ _____ _____    ______ ____
ROOT
ATOM      1  N   UNL     1       4.733   1.477  -0.622  0.00  0.00    -0.311 N 
ATOM      2  C   UNL     1       5.418   2.343  -1.394  0.00  0.00    +0.231 C 
ATOM      3  O   UNL     1       5.983   1.949  -2.393  0.00  0.00    -0.274 OA
ATOM      4  H   UNL     1       4.281   1.792   0.177  0.00  0.00    +0.149 HD
ENDROOT
BRANCH   1   5
ATOM      5  C   UNL     1       4.671   0.060  -0.987  0.00  0.00    +0.143 C 
BRANCH   5  15
ATOM      6  C   UNL     1       3.635  -4.797  -1.159  0.00  0.00    +0.000 A 
ATOM      7  C   UNL     1       3.604  -3.797  -2.113  0.00  0.00    +0.000 A 
ATOM      8  C   UNL     1       3.643  -2.475  -1.720  0.00  0.00    +0.007 A 
ATOM      9  C   UNL     1       3.714  -2.140  -0.374  0.00  0.00    -0.011 A 
ATOM     10  C   UNL     1       3.749  -3.136   0.575  0.00  0.00    -0.041 A 
ATOM     11  C   UNL     1       3.706  -4.467   0.178  0.00  0.00    +0.004 A 
ATOM     12  C   UNL     1       3.843  -2.847   2.051  0.00  0.00    +0.035 C 
ATOM     13  C   UNL     1       3.451  -1.399   2.340  0.00  0.00    +0.008 C 
ATOM     14  C   UNL     1       4.257  -0.485   1.410  0.00  0.00    +0.041 C 
ATOM     15  C   UNL     1       3.746  -0.677  -0.016  0.00  0.00    +0.107 C 
BRANCH  15  16
ATOM     16  O   UNL     1       2.427  -0.138  -0.121  0.00  0.00    -0.382 OA
ATOM     17  H   UNL     1       2.042  -0.209  -1.006  0.00  0.00    +0.211 HD
ENDBRANCH  15  16
ENDBRANCH   5  15
ENDBRANCH   1   5
BRANCH   2  18
ATOM     18  C   UNL     1       5.482   3.801  -1.018  0.00  0.00    +0.213 C 
BRANCH  18  19
ATOM     19  N   UNL     1       6.280   4.526  -2.010  0.00  0.00    -0.215 N 
ATOM     20  C   UNL     1       7.615   4.702  -1.927  0.00  0.00    +0.247 C 
ATOM     21  O   UNL     1       8.355   4.306  -1.052  0.00  0.00    -0.273 OA
ATOM     22  C   UNL     1       7.994   5.498  -3.155  0.00  0.00    +0.113 C 
ATOM     23  C   UNL     1       8.962   4.704  -4.025  0.00  0.00    +0.035 C 
ATOM     24  C   UNL     1       9.309   5.513  -5.277  0.00  0.00    +0.003 C 
ATOM     25  C   UNL     1       9.942   6.844  -4.863  0.00  0.00    +0.000 C 
ATOM     26  C   UNL     1       8.950   7.639  -4.012  0.00  0.00    +0.003 C 
ATOM     27  C   UNL     1       8.602   6.837  -2.755  0.00  0.00    +0.035 C 
ATOM     28  N   UNL     1       6.720   5.700  -3.857  0.00  0.00    -0.285 N 
ATOM     29  C   UNL     1       5.775   5.092  -3.113  0.00  0.00    +0.310 C 
ATOM     30  O   UNL     1       4.597   5.063  -3.409  0.00  0.00    -0.252 OA
ATOM     31  H   UNL     1       6.585   6.175  -4.692  0.00  0.00    +0.151 HD
ENDBRANCH  18  19
ENDBRANCH   2  18
TORSDOF 5
