REMARK  Name = ZINC21891048
REMARK  7 active torsions:
REMARK  status: ('A' for Active; 'I' for Inactive)
REMARK    1  A    between atoms: C_1  and  C_2
REMARK    2  A    between atoms: C_2  and  O_3
REMARK    3  A    between atoms: O_3  and  C_4
REMARK    4  A    between atoms: C_4  and  C_5
REMARK    5  A    between atoms: C_5  and  C_6
REMARK    6  A    between atoms: C_6  and  N_7
REMARK    7  A    between atoms: C_23  and  C_25
REMARK                            x       y       z     vdW  Elec       q    Type
REMARK                         _______ _______ _______ _____ _____    ______ ____
ROOT
ATOM      1  N   UNL     1      -2.360   1.891   2.604  0.00  0.00    -0.299 N 
ATOM      2  C   UNL     1      -1.833   3.074   2.230  0.00  0.00    +0.303 C 
ATOM      3  O   UNL     1      -1.856   4.019   2.995  0.00  0.00    -0.253 OA
ATOM      4  N   UNL     1      -1.282   3.209   1.008  0.00  0.00    -0.269 N 
ATOM      5  C   UNL     1      -0.598   4.454   0.612  0.00  0.00    +0.147 C 
ATOM      6  C   UNL     1       0.664   4.176  -0.156  0.00  0.00    -0.006 A 
ATOM      7  C   UNL     1       1.901   4.328   0.436  0.00  0.00    +0.007 A 
ATOM      8  C   UNL     1       3.051   4.112  -0.301  0.00  0.00    +0.000 A 
ATOM      9  C   UNL     1       2.967   3.749  -1.634  0.00  0.00    +0.002 A 
ATOM     10  C   UNL     1       1.731   3.579  -2.228  0.00  0.00    +0.026 A 
ATOM     11  C   UNL     1       0.580   3.770  -1.483  0.00  0.00    +0.051 A 
ATOM     12  N   UNL     1      -0.686   3.482  -2.017  0.00  0.00    -0.318 N 
ATOM     13  C   UNL     1      -1.224   3.865  -3.202  0.00  0.00    +0.091 A 
ATOM     14  C   UNL     1      -2.469   3.345  -3.284  0.00  0.00    +0.020 A 
ATOM     15  C   UNL     1      -2.702   2.614  -2.099  0.00  0.00    +0.025 A 
ATOM     16  C   UNL     1      -1.599   2.714  -1.343  0.00  0.00    +0.049 A 
ATOM     17  C   UNL     1      -1.340   2.117   0.017  0.00  0.00    +0.155 C 
ATOM     18  H   UNL     1      -2.265   1.014   1.947  0.00  0.00    +0.150 HD
ENDROOT
BRANCH  17  19
ATOM     19  C   UNL     1      -0.027   1.376   0.002  0.00  0.00    -0.021 A 
ATOM     20  C   UNL     1       0.411   0.769  -1.159  0.00  0.00    +0.006 A 
ATOM     21  C   UNL     1       1.611   0.083  -1.171  0.00  0.00    +0.000 A 
ATOM     22  C   UNL     1       2.375   0.007  -0.021  0.00  0.00    +0.000 A 
ATOM     23  C   UNL     1       1.937   0.616   1.141  0.00  0.00    +0.000 A 
ATOM     24  C   UNL     1       0.736   1.300   1.152  0.00  0.00    +0.006 A 
ENDBRANCH  17  19
BRANCH   1  25
ATOM     25  C   UNL     1      -3.059   1.773   3.887  0.00  0.00    +0.108 C 
BRANCH  25  26
ATOM     26  C   UNL     1      -3.556   0.337   4.066  0.00  0.00    +0.047 C 
BRANCH  26  27
ATOM     27  C   UNL     1      -4.285   0.214   5.406  0.00  0.00    +0.161 C 
BRANCH  27  28
ATOM     28  O   UNL     1      -4.750  -1.127   5.574  0.00  0.00    -0.380 OA
BRANCH  28  30
ATOM     29  C   UNL     1      -5.897  -2.812   6.872  0.00  0.00    +0.034 C 
ATOM     30  C   UNL     1      -5.449  -1.351   6.800  0.00  0.00    +0.156 C 
ENDBRANCH  28  30
ENDBRANCH  27  28
ENDBRANCH  26  27
ENDBRANCH  25  26
ENDBRANCH   1  25
TORSDOF 6
