REMARK  Name = ZINC01610826
REMARK  8 active torsions:
REMARK  status: ('A' for Active; 'I' for Inactive)
REMARK    1  A    between atoms: C_1  and  C_2
REMARK    2  A    between atoms: C_2  and  C_31
REMARK    3  A    between atoms: C_5  and  C_8
REMARK    4  A    between atoms: C_8  and  C_10
REMARK    5  A    between atoms: C_8  and  O_30
REMARK    6  A    between atoms: C_11  and  C_20
REMARK    7  A    between atoms: N_22  and  C_23
REMARK    8  A    between atoms: C_28  and  N_29
REMARK                            x       y       z     vdW  Elec       q    Type
REMARK                         _______ _______ _______ _____ _____    ______ ____
ROOT
ATOM      1  C   UNL     1      -4.904   0.844   1.623  0.00  0.00    +0.103 A 
ATOM      2  C   UNL     1      -4.818  -0.451   2.165  0.00  0.00    +0.150 A 
ATOM      3  N   UNL     1      -5.604  -1.416   1.722  0.00  0.00    -0.239 NA
ATOM      4  C   UNL     1      -6.477  -1.162   0.746  0.00  0.00    +0.090 A 
ATOM      5  C   UNL     1      -7.323  -2.172   0.249  0.00  0.00    +0.030 A 
ATOM      6  C   UNL     1      -8.203  -1.883  -0.748  0.00  0.00    +0.002 A 
ATOM      7  C   UNL     1      -8.281  -0.599  -1.287  0.00  0.00    +0.002 A 
ATOM      8  C   UNL     1      -7.479   0.402  -0.832  0.00  0.00    +0.030 A 
ATOM      9  C   UNL     1      -6.557   0.145   0.197  0.00  0.00    +0.090 A 
ATOM     10  N   UNL     1      -5.757   1.111   0.662  0.00  0.00    -0.245 NA
ENDROOT
BRANCH   2  11
ATOM     11  C   UNL     1      -3.844  -0.733   3.245  0.00  0.00    +0.269 C 
ATOM     12  O   UNL     1      -3.189   0.172   3.725  0.00  0.00    -0.268 OA
ATOM     13  N   UNL     1      -3.683  -1.993   3.696  0.00  0.00    -0.279 N 
ATOM     14  H   UNL     1      -4.155  -2.725   3.268  0.00  0.00    +0.155 HD
BRANCH  13  15
ATOM     15  C   UNL     1      -2.836  -2.246   4.782  0.00  0.00    +0.055 A 
ATOM     16  C   UNL     1      -1.706  -1.465   4.979  0.00  0.00    +0.025 A 
ATOM     17  C   UNL     1      -0.871  -1.716   6.051  0.00  0.00    +0.002 A 
ATOM     18  C   UNL     1      -1.158  -2.744   6.931  0.00  0.00    +0.002 A 
ATOM     19  C   UNL     1      -2.281  -3.527   6.742  0.00  0.00    +0.024 A 
ATOM     20  C   UNL     1      -3.128  -3.279   5.671  0.00  0.00    +0.046 A 
BRANCH  20  21
ATOM     21  N   UNL     1      -4.269  -4.067   5.482  0.00  0.00    -0.357 N 
ATOM     22  H   UNL     1      -4.857  -3.894   4.731  0.00  0.00    +0.142 HD
ATOM     23  H   UNL     1      -4.470  -4.785   6.101  0.00  0.00    +0.142 HD
ENDBRANCH  20  21
ENDBRANCH  13  15
ENDBRANCH   2  11
BRANCH   1  24
ATOM     24  C   UNL     1      -4.003   1.934   2.146  0.00  0.00    +0.196 C 
BRANCH  24  29
ATOM     25  C   UNL     1      -2.731   4.058  -1.937  0.00  0.00    +0.074 C 
ATOM     26  C   UNL     1      -2.352   3.641  -0.514  0.00  0.00    +0.165 C 
ATOM     27  O   UNL     1      -2.503   4.761   0.374  0.00  0.00    -0.347 OA
ATOM     28  C   UNL     1      -2.977   4.188   1.616  0.00  0.00    +0.198 C 
ATOM     29  C   UNL     1      -3.898   3.051   1.106  0.00  0.00    +0.182 C 
ATOM     30  O   UNL     1      -3.219   2.587  -0.074  0.00  0.00    -0.341 OA
ATOM     31  C   UNL     1      -0.901   3.157  -0.490  0.00  0.00    +0.074 C 
ENDBRANCH  24  29
BRANCH  24  32
ATOM     32  O   UNL     1      -4.547   2.460   3.358  0.00  0.00    -0.383 OA
ATOM     33  H   UNL     1      -5.430   2.842   3.259  0.00  0.00    +0.210 HD
ENDBRANCH  24  32
ENDBRANCH   1  24
TORSDOF 6
