REMARK  Name = ZINC59146665
REMARK  9 active torsions:
REMARK  status: ('A' for Active; 'I' for Inactive)
REMARK    1  A    between atoms: C_1  and  C_2
REMARK    2  A    between atoms: C_2  and  C_4
REMARK    3  A    between atoms: C_2  and  S_18
REMARK    4  A    between atoms: N_6  and  N_7
REMARK    5  A    between atoms: C_8  and  C_9
REMARK    6  A    between atoms: C_10  and  O_17
REMARK    7  A    between atoms: C_12  and  O_16
REMARK    8  A    between atoms: C_14  and  O_15
REMARK    9  A    between atoms: S_18  and  C_19
REMARK                            x       y       z     vdW  Elec       q    Type
REMARK                         _______ _______ _______ _____ _____    ______ ____
ROOT
ATOM      1  N   UNL     1      -3.405  -1.142  -1.134  0.00  0.00    -0.187 NA
ATOM      2  C   UNL     1      -4.059  -1.269  -2.249  0.00  0.00    +0.145 C 
ENDROOT
BRANCH   2   3
ATOM      3  C   UNL     1      -5.439  -1.778  -2.239  0.00  0.00    +0.078 A 
ATOM      4  C   UNL     1      -6.054  -2.122  -1.027  0.00  0.00    +0.132 A 
ATOM      5  C   UNL     1      -7.353  -2.600  -1.025  0.00  0.00    +0.091 A 
ATOM      6  C   UNL     1      -8.046  -2.740  -2.219  0.00  0.00    +0.124 A 
ATOM      7  C   UNL     1      -7.444  -2.401  -3.423  0.00  0.00    +0.091 A 
ATOM      8  C   UNL     1      -6.148  -1.917  -3.441  0.00  0.00    +0.132 A 
BRANCH   8   9
ATOM      9  O   UNL     1      -5.563  -1.581  -4.619  0.00  0.00    -0.506 OA
ATOM     10  H   UNL     1      -5.090  -2.309  -5.045  0.00  0.00    +0.292 HD
ENDBRANCH   8   9
BRANCH   6  11
ATOM     11  O   UNL     1      -9.320  -3.210  -2.209  0.00  0.00    -0.507 OA
ATOM     12  H   UNL     1      -9.994  -2.521  -2.127  0.00  0.00    +0.292 HD
ENDBRANCH   6  11
BRANCH   4  13
ATOM     13  O   UNL     1      -5.377  -1.987   0.143  0.00  0.00    -0.506 OA
ATOM     14  H   UNL     1      -5.484  -1.123   0.562  0.00  0.00    +0.292 HD
ENDBRANCH   4  13
ENDBRANCH   2   3
BRANCH   1  17
ATOM     15  C   UNL     1      -1.412  -0.526   0.013  0.00  0.00    +0.245 C 
ATOM     16  O   UNL     1      -1.939  -0.827   1.063  0.00  0.00    -0.273 OA
ATOM     17  N   UNL     1      -2.090  -0.657  -1.144  0.00  0.00    -0.206 N 
ATOM     18  H   UNL     1      -1.669  -0.416  -1.984  0.00  0.00    +0.177 HD
BRANCH  15  20
ATOM     19  C   UNL     1      -0.019   1.526   0.010  0.00  0.00    +0.029 C 
ATOM     20  C   UNL     1       0.002  -0.004   0.002  0.00  0.00    +0.137 C 
BRANCH  20  21
ATOM     21  S   UNL     1       0.879  -0.605   1.472  0.00  0.00    -0.093 S 
BRANCH  21  22
ATOM     22  C   UNL     1       2.533  -0.042   1.241  0.00  0.00    +0.098 A 
ATOM     23  C   UNL     1       3.502  -0.336   2.196  0.00  0.00    +0.035 A 
ATOM     24  C   UNL     1       4.795   0.112   2.002  0.00  0.00    +0.004 A 
ATOM     25  C   UNL     1       5.079   0.842   0.855  0.00  0.00    +0.020 A 
ATOM     26  C   UNL     1       4.070   1.097  -0.052  0.00  0.00    +0.112 A 
ATOM     27  N   UNL     1       2.845   0.652   0.157  0.00  0.00    -0.249 NA
ENDBRANCH  21  22
ENDBRANCH  20  21
ENDBRANCH  15  20
ENDBRANCH   1  17
TORSDOF 8
