REMARK  Name = ZINC47167525
REMARK  8 active torsions:
REMARK  status: ('A' for Active; 'I' for Inactive)
REMARK    1  A    between atoms: C_1  and  C_2
REMARK    2  A    between atoms: C_2  and  C_9
REMARK    3  A    between atoms: C_13  and  N_15
REMARK    4  A    between atoms: C_16  and  C_18
REMARK    5  A    between atoms: C_18  and  C_19
REMARK    6  A    between atoms: C_19  and  N_20
REMARK    7  A    between atoms: N_20  and  C_21
REMARK    8  A    between atoms: C_26  and  N_27
REMARK                            x       y       z     vdW  Elec       q    Type
REMARK                         _______ _______ _______ _____ _____    ______ ____
ROOT
ATOM      1  N   UNL     1      -4.260  -0.677  -2.321  0.00  0.00    -0.285 N 
ATOM      2  C   UNL     1      -5.500  -1.200  -2.388  0.00  0.00    +0.219 C 
ATOM      3  O   UNL     1      -5.909  -1.907  -1.491  0.00  0.00    -0.275 OA
ATOM      4  H   UNL     1      -3.961  -0.051  -2.999  0.00  0.00    +0.155 HD
ENDROOT
BRANCH   1   9
ATOM      5  C   UNL     1      -1.653  -0.472   0.264  0.00  0.00    -0.014 A 
ATOM      6  C   UNL     1      -1.710  -1.748   0.795  0.00  0.00    +0.006 A 
ATOM      7  C   UNL     1      -2.612  -2.668   0.293  0.00  0.00    +0.002 A 
ATOM      8  C   UNL     1      -3.459  -2.316  -0.740  0.00  0.00    +0.023 A 
ATOM      9  C   UNL     1      -3.404  -1.036  -1.275  0.00  0.00    +0.034 A 
ATOM     10  C   UNL     1      -2.501  -0.112  -0.765  0.00  0.00    +0.029 A 
BRANCH   5  12
ATOM     11  C   UNL     1      -1.401   1.758   1.355  0.00  0.00    +0.047 C 
ATOM     12  C   UNL     1      -0.669   0.528   0.814  0.00  0.00    +0.135 C 
ATOM     13  C   UNL     1       0.337   0.930  -0.247  0.00  0.00    +0.248 C 
ATOM     14  O   UNL     1       0.107   1.477  -1.304  0.00  0.00    -0.273 OA
ATOM     15  N   UNL     1       1.539   0.554   0.231  0.00  0.00    -0.238 N 
ATOM     16  C   UNL     1       1.434  -0.024   1.433  0.00  0.00    +0.307 C 
ATOM     17  O   UNL     1       2.382  -0.446   2.065  0.00  0.00    -0.252 OA
ATOM     18  N   UNL     1       0.161  -0.085   1.864  0.00  0.00    -0.282 N 
ATOM     19  H   UNL     1       2.377   0.685  -0.239  0.00  0.00    +0.159 HD
ATOM     20  H   UNL     1      -0.149  -0.460   2.703  0.00  0.00    +0.152 HD
ENDBRANCH   5  12
ENDBRANCH   1   9
BRANCH   2  21
ATOM     21  C   UNL     1      -6.380  -0.905  -3.575  0.00  0.00    +0.114 C 
BRANCH  21  22
ATOM     22  C   UNL     1      -7.724  -1.615  -3.402  0.00  0.00    +0.111 C 
BRANCH  22  23
ATOM     23  N   UNL     1      -8.580  -1.328  -4.557  0.00  0.00    -0.342 N 
ATOM     24  H   UNL     1      -8.253  -0.762  -5.274  0.00  0.00    +0.146 HD
BRANCH  23  25
ATOM     25  C   UNL     1      -9.865  -1.870  -4.625  0.00  0.00    +0.058 A 
ATOM     26  C   UNL     1     -10.368  -2.607  -3.560  0.00  0.00    +0.025 A 
ATOM     27  C   UNL     1     -11.639  -3.141  -3.631  0.00  0.00    +0.002 A 
ATOM     28  C   UNL     1     -12.412  -2.943  -4.761  0.00  0.00    +0.002 A 
ATOM     29  C   UNL     1     -11.915  -2.211  -5.823  0.00  0.00    +0.034 A 
ATOM     30  C   UNL     1     -10.646  -1.669  -5.756  0.00  0.00    +0.147 A 
BRANCH  30  31
ATOM     31  N   UNL     1     -10.117  -0.880  -6.891  0.00  0.00    +0.058 N 
ATOM     32  O   UNL     1      -9.435   0.097  -6.683  0.00  0.00    -0.126 OA
ATOM     33  O   UNL     1     -10.366  -1.212  -8.027  0.00  0.00    -0.126 OA
ENDBRANCH  30  31
ENDBRANCH  23  25
ENDBRANCH  22  23
ENDBRANCH  21  22
ENDBRANCH   2  21
TORSDOF 7
