REMARK  Name = ZINC50057825
REMARK  10 active torsions:
REMARK  status: ('A' for Active; 'I' for Inactive)
REMARK    1  A    between atoms: C_1  and  C_2
REMARK    2  A    between atoms: C_2  and  C_3
REMARK    3  A    between atoms: C_2  and  C_4
REMARK    4  A    between atoms: C_4  and  N_5
REMARK    5  A    between atoms: C_6  and  C_8
REMARK    6  A    between atoms: C_8  and  N_9
REMARK    7  A    between atoms: N_12  and  C_13
REMARK    8  A    between atoms: C_17  and  C_19
REMARK    9  A    between atoms: N_21  and  C_22
REMARK   10  A    between atoms: C_26  and  C_28
REMARK                            x       y       z     vdW  Elec       q    Type
REMARK                         _______ _______ _______ _____ _____    ______ ____
ROOT
ATOM      1  C   UNL     1      -5.608  -7.868  -0.360  0.00  0.00    +0.035 A 
ATOM      2  C   UNL     1      -4.505  -8.713  -0.366  0.00  0.00    +0.023 A 
ATOM      3  C   UNL     1      -4.679 -10.085  -0.387  0.00  0.00    +0.003 A 
ATOM      4  C   UNL     1      -5.949 -10.623  -0.403  0.00  0.00    +0.013 A 
ATOM      5  C   UNL     1      -7.064  -9.783  -0.397  0.00  0.00    +0.039 A 
ATOM      6  C   UNL     1      -6.888  -8.399  -0.370  0.00  0.00    +0.036 A 
ENDROOT
BRANCH   1  10
ATOM      7  N   UNL     1      -6.060  -4.374   0.441  0.00  0.00    -0.291 N 
ATOM      8  C   UNL     1      -6.286  -5.699   0.343  0.00  0.00    +0.304 C 
ATOM      9  O   UNL     1      -7.266  -6.189   0.870  0.00  0.00    -0.252 OA
ATOM     10  N   UNL     1      -5.426  -6.481  -0.339  0.00  0.00    -0.269 N 
ATOM     11  H   UNL     1      -5.278  -3.983   0.021  0.00  0.00    +0.151 HD
ATOM     12  H   UNL     1      -4.681  -6.082  -0.815  0.00  0.00    +0.156 HD
BRANCH   7  13
ATOM     13  C   UNL     1      -6.995  -3.524   1.183  0.00  0.00    +0.201 C 
BRANCH  13  15
ATOM     14  N   UNL     1      -7.223  -1.129   1.761  0.00  0.00    -0.314 N 
ATOM     15  C   UNL     1      -6.516  -2.095   1.141  0.00  0.00    +0.230 C 
ATOM     16  O   UNL     1      -5.495  -1.815   0.550  0.00  0.00    -0.274 OA
ATOM     17  H   UNL     1      -8.040  -1.354   2.233  0.00  0.00    +0.149 HD
BRANCH  14  18
ATOM     18  C   UNL     1      -6.758   0.259   1.720  0.00  0.00    +0.107 C 
BRANCH  18  20
ATOM     19  C   UNL     1      -7.186   2.574   2.559  0.00  0.00    +0.009 C 
ATOM     20  C   UNL     1      -7.735   1.147   2.495  0.00  0.00    -0.000 C 
ATOM     21  C   UNL     1      -9.091   1.153   1.786  0.00  0.00    +0.009 C 
ENDBRANCH  18  20
ENDBRANCH  14  18
ENDBRANCH  13  15
ENDBRANCH   7  13
ENDBRANCH   1  10
BRANCH   5  22
ATOM     22  C   UNL     1      -8.426 -10.358  -0.413  0.00  0.00    +0.248 C 
ATOM     23  O   UNL     1      -9.395  -9.624  -0.408  0.00  0.00    -0.270 OA
ATOM     24  N   UNL     1      -8.593 -11.695  -0.434  0.00  0.00    -0.281 N 
ATOM     25  H   UNL     1      -7.822 -12.281  -0.371  0.00  0.00    +0.155 HD
BRANCH  24  26
ATOM     26  C   UNL     1      -9.877 -12.238  -0.548  0.00  0.00    +0.035 A 
ATOM     27  C   UNL     1     -10.074 -13.415  -1.261  0.00  0.00    +0.023 A 
ATOM     28  C   UNL     1     -11.340 -13.955  -1.376  0.00  0.00    +0.003 A 
ATOM     29  C   UNL     1     -12.419 -13.330  -0.784  0.00  0.00    +0.019 A 
ATOM     30  C   UNL     1     -12.232 -12.148  -0.065  0.00  0.00    +0.054 A 
ATOM     31  C   UNL     1     -10.953 -11.605   0.055  0.00  0.00    +0.042 A 
BRANCH  30  32
ATOM     32  C   UNL     1     -13.350 -11.497   0.551  0.00  0.00    +0.099 C 
ATOM     33  N   UNL     1     -14.236 -10.981   1.039  0.00  0.00    -0.191 NA
ENDBRANCH  30  32
ENDBRANCH  24  26
ENDBRANCH   5  22
TORSDOF 8
