REMARK  Name = ZINC28361679
REMARK  10 active torsions:
REMARK  status: ('A' for Active; 'I' for Inactive)
REMARK    1  A    between atoms: C_1  and  C_2
REMARK    2  A    between atoms: C_4  and  C_26
REMARK    3  A    between atoms: C_6  and  N_8
REMARK    4  A    between atoms: C_9  and  C_11
REMARK    5  A    between atoms: C_11  and  C_13
REMARK    6  A    between atoms: C_11  and  N_14
REMARK    7  A    between atoms: N_14  and  C_15
REMARK    8  A    between atoms: C_18  and  O_21
REMARK    9  A    between atoms: O_21  and  C_22
REMARK   10  A    between atoms: C_22  and  C_23
REMARK                            x       y       z     vdW  Elec       q    Type
REMARK                         _______ _______ _______ _____ _____    ______ ____
ROOT
ATOM      1  N   UNL     1      -0.562   1.274   1.395  0.00  0.00    -0.333 N 
ATOM      2  H   UNL     1      -0.185   2.117   1.992  0.00  0.00    +0.147 HD
ENDROOT
BRANCH   1   3
ATOM      3  C   UNL     1      -1.624   0.497   1.872  0.00  0.00    +0.028 A 
ATOM      4  C   UNL     1      -2.104  -0.564   1.116  0.00  0.00    +0.026 A 
ATOM      5  C   UNL     1      -3.149  -1.332   1.591  0.00  0.00    +0.047 A 
ATOM      6  C   UNL     1      -3.725  -1.038   2.818  0.00  0.00    +0.121 A 
ATOM      7  C   UNL     1      -3.250   0.025   3.571  0.00  0.00    +0.047 A 
ATOM      8  C   UNL     1      -2.202   0.791   3.100  0.00  0.00    +0.026 A 
BRANCH   6   9
ATOM      9  O   UNL     1      -4.757  -1.793   3.282  0.00  0.00    -0.483 OA
BRANCH   9  10
ATOM     10  C   UNL     1      -5.196  -2.872   2.455  0.00  0.00    +0.324 C 
BRANCH  10  11
ATOM     11  C   UNL     1      -6.337  -3.589   3.127  0.00  0.00    +0.248 C 
ATOM     12  O   UNL     1      -6.736  -3.213   4.209  0.00  0.00    -0.272 OA
ATOM     13  N   UNL     1      -6.915  -4.649   2.527  0.00  0.00    -0.327 N 
ATOM     14  H   UNL     1      -7.749  -5.172   3.018  0.00  0.00    +0.145 HD
ATOM     15  H   UNL     1      -6.553  -4.989   1.546  0.00  0.00    +0.145 HD
ENDBRANCH  10  11
ENDBRANCH   9  10
ENDBRANCH   6   9
ENDBRANCH   1   3
BRANCH   1  16
ATOM     16  C   UNL     1       0.047   0.964   0.099  0.00  0.00    +0.154 C 
ATOM     17  C   UNL     1      -0.755   1.637  -1.016  0.00  0.00    +0.038 C 
BRANCH  16  19
ATOM     18  N   UNL     1       2.226   1.299  -1.023  0.00  0.00    -0.284 N 
ATOM     19  C   UNL     1       1.465   1.473   0.076  0.00  0.00    +0.237 C 
ATOM     20  O   UNL     1       1.922   2.039   1.046  0.00  0.00    -0.273 OA
ATOM     21  H   UNL     1       1.842   0.710  -1.870  0.00  0.00    +0.155 HD
BRANCH  18  27
ATOM     22  C   UNL     1       6.883   1.077  -2.583  0.00  0.00    +0.044 C 
ATOM     23  C   UNL     1       5.779   1.780  -1.836  0.00  0.00    -0.048 A 
ATOM     24  C   UNL     1       6.028   2.990  -1.214  0.00  0.00    +0.006 A 
ATOM     25  C   UNL     1       5.018   3.639  -0.529  0.00  0.00    -0.048 A 
ATOM     26  C   UNL     1       3.756   3.081  -0.464  0.00  0.00    +0.026 A 
ATOM     27  C   UNL     1       3.503   1.867  -1.087  0.00  0.00    +0.034 A 
ATOM     28  C   UNL     1       4.521   1.214  -1.769  0.00  0.00    +0.026 A 
ATOM     29  C   UNL     1       5.294   4.958   0.147  0.00  0.00    +0.044 C 
ENDBRANCH  18  27
ENDBRANCH  16  19
ENDBRANCH   1  16
TORSDOF 7
