REMARK  Name = ZINC32779178
REMARK  3 active torsions:
REMARK  status: ('A' for Active; 'I' for Inactive)
REMARK    1  A    between atoms: C_1  and  C_2
REMARK    2  A    between atoms: C_2  and  C_4
REMARK    3  A    between atoms: C_2  and  N_13
REMARK                            x       y       z     vdW  Elec       q    Type
REMARK                         _______ _______ _______ _____ _____    ______ ____
ROOT
ATOM      1  N   UNL     1       5.404  -2.577  -1.191  0.00  0.00    -0.291 NA
ATOM      2  C   UNL     1       4.519  -2.945  -0.077  0.00  0.00    +0.104 C 
ATOM      3  C   UNL     1       3.191  -2.196  -0.216  0.00  0.00    +0.122 C 
ATOM      4  N   UNL     1       3.447  -0.749  -0.227  0.00  0.00    -0.313 N 
ATOM      5  C   UNL     1       4.332  -0.381  -1.341  0.00  0.00    +0.122 C 
ATOM      6  C   UNL     1       5.660  -1.130  -1.202  0.00  0.00    +0.104 C 
ATOM      7  C   UNL     1       2.260  -0.035  -0.280  0.00  0.00    +0.128 A 
ATOM      8  C   UNL     1       2.273   1.360  -0.298  0.00  0.00    +0.084 A 
ATOM      9  C   UNL     1       1.065   2.031  -0.350  0.00  0.00    +0.136 A 
ATOM     10  N   UNL     1      -0.063   1.333  -0.382  0.00  0.00    -0.203 NA
ATOM     11  C   UNL     1      -0.044   0.009  -0.364  0.00  0.00    +0.216 A 
ATOM     12  N   UNL     1       1.093  -0.670  -0.314  0.00  0.00    -0.200 NA
ATOM     13  N   UNL     1      -1.242  -0.684  -0.398  0.00  0.00    -0.327 N 
ATOM     14 CL   UNL     1       1.024   3.766  -0.375  0.00  0.00    -0.062 Cl
ATOM     15  H   UNL     1      -1.242  -1.784  -0.384  0.00  0.00    +0.145 HD
ATOM     16  H   UNL     1      -2.194  -0.134  -0.440  0.00  0.00    +0.145 HD
ENDROOT
BRANCH   1  18
ATOM     17  C   UNL     1       7.509  -3.007  -2.367  0.00  0.00    +0.031 C 
ATOM     18  C   UNL     1       6.662  -3.333  -1.135  0.00  0.00    +0.109 C 
BRANCH  18  19
ATOM     19  C   UNL     1       6.360  -4.810  -1.109  0.00  0.00    +0.096 A 
ATOM     20  N   UNL     1       6.857  -5.723  -0.324  0.00  0.00    -0.242 NA
ATOM     21  C   UNL     1       6.500  -7.022  -0.405  0.00  0.00    +0.079 A 
ATOM     22  C   UNL     1       6.945  -8.118   0.367  0.00  0.00    +0.029 A 
ATOM     23  C   UNL     1       6.465  -9.370   0.137  0.00  0.00    +0.002 A 
ATOM     24  C   UNL     1       5.527  -9.619  -0.856  0.00  0.00    +0.001 A 
ATOM     25  C   UNL     1       5.067  -8.573  -1.633  0.00  0.00    +0.017 A 
ATOM     26  C   UNL     1       5.545  -7.305  -1.409  0.00  0.00    +0.039 A 
ATOM     27  S   UNL     1       5.260  -5.702  -2.114  0.00  0.00    -0.071 S 
ENDBRANCH  18  19
ENDBRANCH   1  18
TORSDOF 2
