REMARK  Name = ZINC39011686
REMARK  7 active torsions:
REMARK  status: ('A' for Active; 'I' for Inactive)
REMARK    1  A    between atoms: C_1  and  C_2
REMARK    2  A    between atoms: C_2  and  O_3
REMARK    3  A    between atoms: O_3  and  C_4
REMARK    4  A    between atoms: C_7  and  C_10
REMARK    5  A    between atoms: C_12  and  C_16
REMARK    6  A    between atoms: N_18  and  N_19
REMARK    7  A    between atoms: C_20  and  C_21
REMARK                            x       y       z     vdW  Elec       q    Type
REMARK                         _______ _______ _______ _____ _____    ______ ____
ROOT
ATOM      1  C   UNL     1       1.109  -6.017  -1.843  0.00  0.00    +0.046 C 
ATOM      2  C   UNL     1       1.711  -6.604  -2.877  0.00  0.00    +0.027 C 
ATOM      3  C   UNL     1       1.597  -8.097  -2.655  0.00  0.00    +0.184 C 
ATOM      4  N   UNL     1       0.864  -8.225  -1.381  0.00  0.00    -0.227 NA
ATOM      5  N   UNL     1       0.610  -6.955  -0.951  0.00  0.00    -0.279 N 
ATOM      6  H   UNL     1       1.408  -8.732  -0.699  0.00  0.00    +0.145 HD
ATOM      7  H   UNL     1       0.140  -6.737  -0.131  0.00  0.00    +0.166 HD
ENDROOT
BRANCH   1  11
ATOM      8  C   UNL     1       0.777  -1.810  -1.336  0.00  0.00    +0.121 A 
ATOM      9  C   UNL     1       0.241  -2.667  -0.384  0.00  0.00    +0.046 A 
ATOM     10  C   UNL     1       0.347  -4.032  -0.545  0.00  0.00    +0.013 A 
ATOM     11  C   UNL     1       0.993  -4.552  -1.667  0.00  0.00    -0.003 A 
ATOM     12  C   UNL     1       1.529  -3.688  -2.622  0.00  0.00    +0.013 A 
ATOM     13  C   UNL     1       1.415  -2.324  -2.457  0.00  0.00    +0.046 A 
BRANCH   8  14
ATOM     14  O   UNL     1       0.671  -0.465  -1.174  0.00  0.00    -0.492 OA
BRANCH  14  16
ATOM     15  C   UNL     1      -0.019   1.526   0.010  0.00  0.00    +0.048 C 
ATOM     16  C   UNL     1       0.002  -0.004   0.002  0.00  0.00    +0.225 C 
ENDBRANCH  14  16
ENDBRANCH   8  14
ENDBRANCH   1  11
BRANCH   3  17
ATOM     17  C   UNL     1       0.824  -8.739  -3.778  0.00  0.00    +0.255 C 
ATOM     18  O   UNL     1      -0.347  -9.015  -3.627  0.00  0.00    -0.272 OA
ATOM     19  N   UNL     1       1.433  -9.005  -4.950  0.00  0.00    -0.205 N 
ATOM     20  H   UNL     1       2.370  -8.784  -5.071  0.00  0.00    +0.177 HD
BRANCH  19  21
ATOM     21  N   UNL     1       0.714  -9.602  -5.994  0.00  0.00    -0.188 NA
ATOM     22  C   UNL     1       1.306  -9.861  -7.132  0.00  0.00    +0.136 C 
BRANCH  22  23
ATOM     23  C   UNL     1       0.586 -10.458  -8.177  0.00  0.00    +0.000 C 
ATOM     24  C   UNL     1       1.064 -10.802  -9.440  0.00  0.00    +0.004 A 
ATOM     25  C   UNL     1       2.333 -10.676 -10.047  0.00  0.00    +0.010 A 
ATOM     26  C   UNL     1       2.514 -11.107 -11.321  0.00  0.00    +0.001 A 
ATOM     27  C   UNL     1       1.472 -11.678 -12.057  0.00  0.00    +0.002 A 
ATOM     28  C   UNL     1       0.230 -11.829 -11.539  0.00  0.00    +0.026 A 
ATOM     29  C   UNL     1      -0.039 -11.402 -10.211  0.00  0.00    +0.043 A 
ATOM     30  N   UNL     1      -1.139 -11.438  -9.491  0.00  0.00    -0.380 N 
ATOM     31  C   UNL     1      -0.870 -10.868  -8.167  0.00  0.00    +0.150 C 
ATOM     32  H   UNL     1      -1.994 -11.789  -9.787  0.00  0.00    +0.160 HD
ENDBRANCH  22  23
ENDBRANCH  19  21
ENDBRANCH   3  17
TORSDOF 6
