REMARK  Name = ZINC48360987
REMARK  8 active torsions:
REMARK  status: ('A' for Active; 'I' for Inactive)
REMARK    1  A    between atoms: C_1  and  C_2
REMARK    2  A    between atoms: C_5  and  N_12
REMARK    3  A    between atoms: C_7  and  N_8
REMARK    4  A    between atoms: C_9  and  C_11
REMARK    5  A    between atoms: N_15  and  C_16
REMARK    6  A    between atoms: C_19  and  C_27
REMARK    7  A    between atoms: C_19  and  C_28
REMARK    8  A    between atoms: C_24  and  C_26
REMARK                            x       y       z     vdW  Elec       q    Type
REMARK                         _______ _______ _______ _____ _____    ______ ____
ROOT
ATOM      1  N   UNL     1       0.539  -3.896  -0.262  0.00  0.00    -0.269 N 
ATOM      2  C   UNL     1       0.596  -4.473  -1.479  0.00  0.00    +0.304 C 
ATOM      3  O   UNL     1       0.425  -3.801  -2.478  0.00  0.00    -0.252 OA
ATOM      4  N   UNL     1       0.841  -5.793  -1.588  0.00  0.00    -0.292 N 
ATOM      5  H   UNL     1       0.596  -4.442   0.537  0.00  0.00    +0.156 HD
ATOM      6  H   UNL     1       0.976  -6.329  -0.790  0.00  0.00    +0.151 HD
ENDROOT
BRANCH   4   7
ATOM      7  C   UNL     1       0.902  -6.420  -2.910  0.00  0.00    +0.109 C 
ATOM      8  C   UNL     1       1.756  -7.693  -2.840  0.00  0.00    +0.034 C 
ATOM      9  C   UNL     1       1.600  -8.483  -4.142  0.00  0.00    -0.026 C 
ATOM     10  C   UNL     1       0.189  -9.077  -4.216  0.00  0.00    +0.081 C 
ATOM     11  C   UNL     1      -0.807  -7.979  -3.933  0.00  0.00    +0.111 A 
ATOM     12  C   UNL     1      -0.485  -6.802  -3.356  0.00  0.00    +0.014 A 
ATOM     13  C   UNL     1      -1.668  -6.047  -3.265  0.00  0.00    +0.050 A 
ATOM     14  C   UNL     1      -2.651  -6.804  -3.791  0.00  0.00    +0.103 A 
ATOM     15  O   UNL     1      -2.120  -7.975  -4.191  0.00  0.00    -0.464 OA
ATOM     16  C   UNL     1      -4.100  -6.408  -3.910  0.00  0.00    +0.086 C 
ATOM     17  C   UNL     1       2.631  -9.613  -4.178  0.00  0.00    +0.011 C 
ATOM     18  C   UNL     1       1.824  -7.550  -5.334  0.00  0.00    +0.011 C 
ENDBRANCH   4   7
BRANCH   1  23
ATOM     19  C   UNL     1      -0.028   1.737   0.173  0.00  0.00    +0.045 C 
ATOM     20  C   UNL     1       0.122   0.242   0.059  0.00  0.00    -0.029 A 
ATOM     21  C   UNL     1       0.861  -0.301  -0.975  0.00  0.00    +0.007 A 
ATOM     22  C   UNL     1       1.000  -1.671  -1.083  0.00  0.00    +0.024 A 
ATOM     23  C   UNL     1       0.398  -2.508  -0.151  0.00  0.00    +0.037 A 
ATOM     24  C   UNL     1      -0.343  -1.966   0.888  0.00  0.00    +0.047 A 
ATOM     25  C   UNL     1      -0.477  -0.589   0.997  0.00  0.00    +0.038 A 
BRANCH  25  26
ATOM     26  N   UNL     1      -1.219  -0.038   2.048  0.00  0.00    -0.285 N 
ATOM     27  C   UNL     1      -2.197  -0.758   2.631  0.00  0.00    +0.214 C 
ATOM     28  O   UNL     1      -2.386  -1.908   2.296  0.00  0.00    -0.276 OA
ATOM     29  C   UNL     1      -3.057  -0.134   3.701  0.00  0.00    +0.109 C 
ATOM     30  H   UNL     1      -1.030   0.862   2.356  0.00  0.00    +0.155 HD
ENDBRANCH  25  26
ENDBRANCH   1  23
TORSDOF 3
