REMARK  Name = ZINC64220383
REMARK  9 active torsions:
REMARK  status: ('A' for Active; 'I' for Inactive)
REMARK    1  A    between atoms: C_1  and  C_2
REMARK    2  A    between atoms: N_4  and  C_5
REMARK    3  A    between atoms: C_5  and  C_7
REMARK    4  A    between atoms: C_5  and  C_17
REMARK    5  A    between atoms: C_7  and  C_8
REMARK    6  A    between atoms: N_19  and  C_20
REMARK    7  A    between atoms: C_20  and  C_21
REMARK    8  A    between atoms: C_21  and  C_23
REMARK    9  A    between atoms: C_21  and  N_30
REMARK                            x       y       z     vdW  Elec       q    Type
REMARK                         _______ _______ _______ _____ _____    ______ ____
ROOT
ATOM      1  C   UNL     1      -0.539  -2.605   1.318  0.00  0.00    +0.234 C 
ATOM      2  O   UNL     1       0.084  -1.824   2.005  0.00  0.00    -0.274 OA
ATOM      3  N   UNL     1      -0.638  -3.898   1.688  0.00  0.00    -0.312 N 
ATOM      4  H   UNL     1      -1.137  -4.522   1.138  0.00  0.00    +0.149 HD
ENDROOT
BRANCH   1   5
ATOM      5  C   UNL     1      -1.204  -2.131   0.052  0.00  0.00    +0.163 C 
BRANCH   5   9
ATOM      6  C   UNL     1      -0.466   1.619   0.278  0.00  0.00    +0.109 C 
ATOM      7  C   UNL     1      -0.293   0.123   0.224  0.00  0.00    +0.211 C 
ATOM      8  O   UNL     1       0.816  -0.362   0.289  0.00  0.00    -0.276 OA
ATOM      9  N   UNL     1      -1.372  -0.676   0.104  0.00  0.00    -0.304 N 
ATOM     10  H   UNL     1      -2.260  -0.288   0.051  0.00  0.00    +0.149 HD
ENDBRANCH   5   9
BRANCH   5  11
ATOM     11  C   UNL     1      -0.334  -2.501  -1.151  0.00  0.00    +0.065 C 
BRANCH  11  12
ATOM     12  C   UNL     1      -1.055  -2.137  -2.423  0.00  0.00    -0.039 C 
ATOM     13  C   UNL     1      -0.917  -0.998  -3.139  0.00  0.00    -0.001 A 
ATOM     14  C   UNL     1      -0.087   0.199  -2.953  0.00  0.00    +0.010 A 
ATOM     15  C   UNL     1      -0.168   1.201  -3.857  0.00  0.00    +0.001 A 
ATOM     16  C   UNL     1      -1.023   1.126  -4.965  0.00  0.00    +0.002 A 
ATOM     17  C   UNL     1      -1.816   0.059  -5.204  0.00  0.00    +0.026 A 
ATOM     18  C   UNL     1      -1.811  -1.053  -4.317  0.00  0.00    +0.043 A 
ATOM     19  N   UNL     1      -2.476  -2.182  -4.330  0.00  0.00    -0.380 N 
ATOM     20  C   UNL     1      -2.074  -2.975  -3.163  0.00  0.00    +0.144 C 
ATOM     21  H   UNL     1      -3.123  -2.451  -5.001  0.00  0.00    +0.160 HD
ENDBRANCH  11  12
ENDBRANCH   5  11
ENDBRANCH   1   5
BRANCH   3  22
ATOM     22  C   UNL     1       0.009  -4.359   2.919  0.00  0.00    +0.127 C 
BRANCH  22  23
ATOM     23  C   UNL     1      -0.371  -5.818   3.178  0.00  0.00    +0.104 C 
BRANCH  23  24
ATOM     24  C   UNL     1      -1.858  -5.918   3.405  0.00  0.00    -0.029 A 
ATOM     25  C   UNL     1      -2.392  -5.590   4.637  0.00  0.00    +0.008 A 
ATOM     26  C   UNL     1      -3.755  -5.680   4.846  0.00  0.00    +0.038 A 
ATOM     27  C   UNL     1      -4.586  -6.099   3.821  0.00  0.00    +0.123 A 
ATOM     28  C   UNL     1      -4.050  -6.427   2.587  0.00  0.00    +0.038 A 
ATOM     29  C   UNL     1      -2.687  -6.331   2.379  0.00  0.00    +0.008 A 
ATOM     30  F   UNL     1      -5.918  -6.188   4.024  0.00  0.00    -0.205 F 
ENDBRANCH  23  24
BRANCH  23  31
ATOM     31  N   UNL     1       0.339  -6.305   4.368  0.00  0.00    -0.290 NA
ATOM     32  C   UNL     1       1.793  -6.155   4.212  0.00  0.00    +0.113 C 
ATOM     33  C   UNL     1       2.490  -6.617   5.495  0.00  0.00    +0.175 C 
ATOM     34  O   UNL     1       2.112  -7.967   5.776  0.00  0.00    -0.377 OA
ATOM     35  C   UNL     1       0.702  -8.150   5.935  0.00  0.00    +0.175 C 
ATOM     36  C   UNL     1      -0.012  -7.703   4.657  0.00  0.00    +0.113 C 
ENDBRANCH  23  31
ENDBRANCH  22  23
ENDBRANCH   3  22
TORSDOF 8
