REMARK  Name = ZINC04821466
REMARK  7 active torsions:
REMARK  status: ('A' for Active; 'I' for Inactive)
REMARK    1  A    between atoms: C_1  and  C_2
REMARK    2  A    between atoms: C_3  and  C_20
REMARK    3  A    between atoms: C_4  and  C_12
REMARK    4  A    between atoms: C_13  and  C_14
REMARK    5  A    between atoms: N_22  and  C_23
REMARK    6  A    between atoms: C_28  and  O_29
REMARK    7  A    between atoms: O_29  and  C_30
REMARK                            x       y       z     vdW  Elec       q    Type
REMARK                         _______ _______ _______ _____ _____    ______ ____
ROOT
ATOM      1  C   UNL     1      -0.018   1.502   0.020  0.00  0.00    +0.061 C 
ATOM      2  C   UNL     1       0.002  -0.005   0.021  0.00  0.00    +0.018 C 
ATOM      3  C   UNL     1      -1.163  -0.668   0.019  0.00  0.00    +0.060 C 
ATOM      4  C   UNL     1      -1.253  -2.171   0.032  0.00  0.00    +0.170 C 
ATOM      5  N   UNL     1       0.063  -2.740  -0.247  0.00  0.00    -0.221 N 
ATOM      6  C   UNL     1       1.209  -2.015  -0.242  0.00  0.00    +0.218 A 
ATOM      7  N   UNL     1       2.196  -2.822  -0.520  0.00  0.00    -0.201 NA
ATOM      8  C   UNL     1       1.723  -4.058  -0.712  0.00  0.00    +0.247 A 
ATOM      9  N   UNL     1       0.422  -4.050  -0.555  0.00  0.00    -0.156 NA
ATOM     10  N   UNL     1       1.214  -0.652   0.017  0.00  0.00    -0.287 N 
ATOM     11  H   UNL     1       2.040  -0.176   0.192  0.00  0.00    +0.155 HD
ENDROOT
BRANCH   3  12
ATOM     12  C   UNL     1      -2.364   0.079   0.006  0.00  0.00    +0.248 C 
ATOM     13  O   UNL     1      -2.324   1.296  -0.004  0.00  0.00    -0.270 OA
ATOM     14  N   UNL     1      -3.553  -0.556   0.004  0.00  0.00    -0.279 N 
ATOM     15  H   UNL     1      -3.587  -1.523  -0.069  0.00  0.00    +0.155 HD
BRANCH  14  16
ATOM     16  C   UNL     1      -4.740   0.180   0.109  0.00  0.00    +0.076 A 
ATOM     17  C   UNL     1      -4.734   1.429   0.711  0.00  0.00    +0.027 A 
ATOM     18  C   UNL     1      -5.906   2.154   0.812  0.00  0.00    +0.002 A 
ATOM     19  C   UNL     1      -7.088   1.636   0.315  0.00  0.00    +0.004 A 
ATOM     20  C   UNL     1      -7.103   0.391  -0.286  0.00  0.00    +0.047 A 
ATOM     21  C   UNL     1      -5.930  -0.339  -0.397  0.00  0.00    +0.141 A 
BRANCH  21  22
ATOM     22  O   UNL     1      -5.942  -1.561  -0.994  0.00  0.00    -0.493 OA
ATOM     23  C   UNL     1      -7.198  -2.029  -1.489  0.00  0.00    +0.277 C 
ENDBRANCH  21  22
ENDBRANCH  14  16
ENDBRANCH   3  12
BRANCH   4  24
ATOM     24  C   UNL     1      -1.724  -2.635   1.387  0.00  0.00    +0.005 C 
ATOM     25  C   UNL     1      -2.848  -3.330   1.496  0.00  0.00    +0.006 C 
BRANCH  25  26
ATOM     26  C   UNL     1      -3.310  -3.784   2.824  0.00  0.00    -0.025 A 
ATOM     27  C   UNL     1      -2.568  -3.479   3.966  0.00  0.00    +0.008 A 
ATOM     28  C   UNL     1      -3.005  -3.906   5.203  0.00  0.00    +0.001 A 
ATOM     29  C   UNL     1      -4.175  -4.637   5.313  0.00  0.00    +0.000 A 
ATOM     30  C   UNL     1      -4.914  -4.944   4.184  0.00  0.00    +0.001 A 
ATOM     31  C   UNL     1      -4.492  -4.516   2.942  0.00  0.00    +0.008 A 
ENDBRANCH  25  26
ENDBRANCH   4  24
TORSDOF 5
