REMARK  Name = ZINC02312291
REMARK  10 active torsions:
REMARK  status: ('A' for Active; 'I' for Inactive)
REMARK    1  A    between atoms: C_1  and  C_2
REMARK    2  A    between atoms: C_2  and  O_3
REMARK    3  A    between atoms: O_3  and  C_4
REMARK    4  A    between atoms: C_9  and  C_10
REMARK    5  A    between atoms: C_12  and  C_34
REMARK    6  A    between atoms: C_13  and  S_22
REMARK    7  A    between atoms: S_22  and  C_23
REMARK    8  A    between atoms: C_23  and  C_24
REMARK    9  A    between atoms: N_26  and  C_27
REMARK   10  A    between atoms: C_30  and  C_33
REMARK                            x       y       z     vdW  Elec       q    Type
REMARK                         _______ _______ _______ _____ _____    ______ ____
ROOT
ATOM      1  C   UNL     1       1.999  -1.379  -3.499  0.00  0.00    +0.100 C 
ATOM      2  C   UNL     1       1.320  -1.638  -4.811  0.00  0.00    +0.069 C 
ATOM      3  C   UNL     1       1.937  -2.349  -5.793  0.00  0.00    +0.080 C 
ATOM      4  N   UNL     1       3.208  -2.837  -5.595  0.00  0.00    -0.311 N 
ATOM      5  C   UNL     1       4.015  -2.306  -4.626  0.00  0.00    +0.016 C 
ATOM      6  C   UNL     1       3.487  -1.602  -3.603  0.00  0.00    +0.025 C 
ATOM      7  C   UNL     1       4.309  -1.056  -2.602  0.00  0.00    +0.162 C 
ATOM      8  O   UNL     1       3.805  -0.414  -1.701  0.00  0.00    -0.292 OA
ATOM      9  C   UNL     1       5.800  -1.252  -2.623  0.00  0.00    +0.080 C 
ATOM     10  C   UNL     1       6.119  -2.570  -3.336  0.00  0.00    +0.014 C 
ATOM     11  C   UNL     1       5.504  -2.524  -4.734  0.00  0.00    +0.051 C 
ATOM     12  H   UNL     1       3.535  -3.564  -6.148  0.00  0.00    +0.152 HD
ENDROOT
BRANCH   1  18
ATOM     13  C   UNL     1       0.796  -1.793  -1.338  0.00  0.00    +0.125 A 
ATOM     14  C   UNL     1       0.271  -2.652  -0.384  0.00  0.00    +0.046 A 
ATOM     15  C   UNL     1       0.386  -4.019  -0.548  0.00  0.00    +0.004 A 
ATOM     16  C   UNL     1       1.025  -4.531  -1.662  0.00  0.00    +0.001 A 
ATOM     17  C   UNL     1       1.550  -3.677  -2.614  0.00  0.00    +0.008 A 
ATOM     18  C   UNL     1       1.432  -2.309  -2.457  0.00  0.00    +0.007 A 
BRANCH  13  19
ATOM     19  O   UNL     1       0.684  -0.448  -1.179  0.00  0.00    -0.492 OA
BRANCH  19  21
ATOM     20  C   UNL     1      -0.013   1.542   0.002  0.00  0.00    +0.048 C 
ATOM     21  C   UNL     1       0.017   0.012  -0.002  0.00  0.00    +0.225 C 
ENDBRANCH  19  21
ENDBRANCH  13  19
ENDBRANCH   1  18
BRANCH   2  22
ATOM     22  C   UNL     1       0.001  -1.129  -5.034  0.00  0.00    +0.098 C 
ATOM     23  N   UNL     1      -1.046  -0.725  -5.211  0.00  0.00    -0.191 NA
ENDBRANCH   2  22
BRANCH   3  24
ATOM     24  S   UNL     1       1.108  -2.645  -7.319  0.00  0.00    -0.100 S 
BRANCH  24  25
ATOM     25  C   UNL     1       2.301  -3.610  -8.287  0.00  0.00    +0.171 C 
BRANCH  25  26
ATOM     26  C   UNL     1       1.710  -3.935  -9.634  0.00  0.00    +0.227 C 
ATOM     27  O   UNL     1       0.593  -3.553  -9.914  0.00  0.00    -0.275 OA
ATOM     28  N   UNL     1       2.421  -4.650 -10.528  0.00  0.00    -0.285 N 
ATOM     29  H   UNL     1       3.338  -4.898 -10.331  0.00  0.00    +0.155 HD
BRANCH  28  30
ATOM     30  C   UNL     1       1.837  -5.034 -11.740  0.00  0.00    +0.033 A 
ATOM     31  C   UNL     1       2.158  -6.260 -12.309  0.00  0.00    +0.023 A 
ATOM     32  C   UNL     1       1.580  -6.636 -13.506  0.00  0.00    +0.005 A 
ATOM     33  C   UNL     1       0.683  -5.794 -14.137  0.00  0.00    -0.050 A 
ATOM     34  C   UNL     1       0.362  -4.573 -13.573  0.00  0.00    +0.005 A 
ATOM     35  C   UNL     1       0.932  -4.193 -12.374  0.00  0.00    +0.023 A 
ATOM     36  C   UNL     1       0.055  -6.208 -15.443  0.00  0.00    +0.044 C 
ENDBRANCH  28  30
ENDBRANCH  25  26
ENDBRANCH  24  25
ENDBRANCH   3  24
TORSDOF 8
