REMARK  Name = ZINC67000329
REMARK  8 active torsions:
REMARK  status: ('A' for Active; 'I' for Inactive)
REMARK    1  A    between atoms: C_1  and  C_2
REMARK    2  A    between atoms: C_2  and  C_3
REMARK    3  A    between atoms: C_6  and  N_12
REMARK    4  A    between atoms: C_8  and  N_9
REMARK    5  A    between atoms: C_13  and  C_15
REMARK    6  A    between atoms: N_17  and  C_18
REMARK    7  A    between atoms: C_18  and  C_19
REMARK    8  A    between atoms: C_19  and  O_29
REMARK                            x       y       z     vdW  Elec       q    Type
REMARK                         _______ _______ _______ _____ _____    ______ ____
ROOT
ATOM      1  C   UNL     1       4.824  -2.425   5.654  0.00  0.00    +0.299 C 
ATOM      2  O   UNL     1       4.269  -2.563   6.724  0.00  0.00    -0.265 OA
ATOM      3  N   UNL     1       6.124  -2.755   5.521  0.00  0.00    -0.305 N 
ATOM      4  H   UNL     1       6.568  -2.645   4.665  0.00  0.00    +0.149 HD
ENDROOT
BRANCH   1   6
ATOM      5  N   UNL     1       2.766  -1.560   4.616  0.00  0.00    -0.278 N 
ATOM      6  C   UNL     1       4.066  -1.890   4.483  0.00  0.00    +0.303 C 
ATOM      7  O   UNL     1       4.621  -1.752   3.413  0.00  0.00    -0.265 OA
ATOM      8  H   UNL     1       2.305  -1.734   5.451  0.00  0.00    +0.155 HD
BRANCH   5  12
ATOM      9  C   UNL     1       0.733   0.206   1.440  0.00  0.00    -0.017 A 
ATOM     10  C   UNL     1       0.438   0.577   2.739  0.00  0.00    +0.007 A 
ATOM     11  C   UNL     1       1.111  -0.007   3.795  0.00  0.00    +0.024 A 
ATOM     12  C   UNL     1       2.084  -0.968   3.550  0.00  0.00    +0.036 A 
ATOM     13  C   UNL     1       2.376  -1.339   2.244  0.00  0.00    +0.056 A 
ATOM     14  C   UNL     1       1.696  -0.754   1.193  0.00  0.00    +0.131 A 
BRANCH  14  15
ATOM     15  N   UNL     1       2.004  -1.153  -0.199  0.00  0.00    +0.057 N 
ATOM     16  O   UNL     1       2.783  -2.052  -0.412  0.00  0.00    -0.126 OA
ATOM     17  O   UNL     1       1.477  -0.578  -1.123  0.00  0.00    -0.126 OA
ENDBRANCH  14  15
BRANCH   9  19
ATOM     18  C   UNL     1      -1.083  -0.112  -0.218  0.00  0.00    +0.009 C 
ATOM     19  C   UNL     1      -0.003   0.845   0.290  0.00  0.00    +0.034 C 
ENDBRANCH   9  19
ENDBRANCH   5  12
ENDBRANCH   1   6
BRANCH   3  20
ATOM     20  C   UNL     1       6.868  -3.280   6.669  0.00  0.00    +0.144 C 
BRANCH  20  21
ATOM     21  C   UNL     1       8.339  -3.454   6.288  0.00  0.00    +0.107 C 
ATOM     22  C   UNL     1       8.904  -2.109   5.835  0.00  0.00    +0.041 C 
ATOM     23  C   UNL     1      10.421  -2.254   5.668  0.00  0.00    +0.008 C 
ATOM     24  C   UNL     1      11.046  -2.413   7.053  0.00  0.00    +0.035 C 
ATOM     25  C   UNL     1      10.347  -3.501   7.826  0.00  0.00    -0.041 A 
ATOM     26  C   UNL     1       9.102  -3.976   7.477  0.00  0.00    -0.011 A 
ATOM     27  C   UNL     1       8.510  -4.976   8.237  0.00  0.00    +0.007 A 
ATOM     28  C   UNL     1       9.160  -5.499   9.336  0.00  0.00    +0.000 A 
ATOM     29  C   UNL     1      10.411  -5.025   9.684  0.00  0.00    +0.000 A 
ATOM     30  C   UNL     1      11.000  -4.030   8.931  0.00  0.00    +0.004 A 
BRANCH  21  31
ATOM     31  O   UNL     1       8.440  -4.392   5.215  0.00  0.00    -0.382 OA
ATOM     32  H   UNL     1       8.092  -5.269   5.425  0.00  0.00    +0.211 HD
ENDBRANCH  21  31
ENDBRANCH  20  21
ENDBRANCH   3  20
TORSDOF 7
