REMARK  Name = ZINC07536306
REMARK  7 active torsions:
REMARK  status: ('A' for Active; 'I' for Inactive)
REMARK    1  A    between atoms: C_1  and  C_2
REMARK    2  A    between atoms: C_5  and  S_9
REMARK    3  A    between atoms: C_7  and  C_8
REMARK    4  A    between atoms: S_9  and  C_10
REMARK    5  A    between atoms: C_10  and  C_12
REMARK    6  A    between atoms: C_10  and  C_13
REMARK    7  A    between atoms: N_18  and  C_19
REMARK                            x       y       z     vdW  Elec       q    Type
REMARK                         _______ _______ _______ _____ _____    ______ ____
ROOT
ATOM      1  C   UNL     1      -3.418   1.232   0.495  0.00  0.00    +0.233 C 
ATOM      2  O   UNL     1      -3.163   2.415   0.420  0.00  0.00    -0.274 OA
ATOM      3  N   UNL     1      -2.436   0.346   0.753  0.00  0.00    -0.239 N 
ATOM      4  C   UNL     1      -1.170   0.775   0.928  0.00  0.00    +0.306 C 
ATOM      5  O   UNL     1      -0.915   1.961   0.853  0.00  0.00    -0.252 OA
ATOM      6  N   UNL     1      -0.188  -0.111   1.185  0.00  0.00    -0.296 N 
ATOM      7  H   UNL     1      -2.640  -0.600   0.813  0.00  0.00    +0.159 HD
ATOM      8  H   UNL     1      -0.392  -1.057   1.245  0.00  0.00    +0.151 HD
ENDROOT
BRANCH   6   9
ATOM      9  C   UNL     1       1.189   0.355   1.369  0.00  0.00    +0.074 C 
ATOM     10  C   UNL     1       1.866   0.496   0.004  0.00  0.00    +0.022 C 
ATOM     11  C   UNL     1       3.304   0.982   0.196  0.00  0.00    +0.002 C 
ATOM     12  C   UNL     1       4.075  -0.029   1.046  0.00  0.00    +0.000 C 
ATOM     13  C   UNL     1       3.398  -0.170   2.411  0.00  0.00    +0.002 C 
ATOM     14  C   UNL     1       1.960  -0.656   2.219  0.00  0.00    +0.022 C 
ENDBRANCH   6   9
BRANCH   1  15
ATOM     15  C   UNL     1      -4.833   0.752   0.300  0.00  0.00    +0.134 C 
ATOM     16  C   UNL     1      -4.998   0.214  -1.123  0.00  0.00    +0.029 C 
BRANCH  15  17
ATOM     17  S   UNL     1      -5.981   2.133   0.561  0.00  0.00    -0.113 S 
BRANCH  17  22
ATOM     18  C   UNL     1     -11.434  -0.452   0.407  0.00  0.00    +0.044 C 
ATOM     19  C   UNL     1     -10.072   0.193   0.446  0.00  0.00    -0.047 A 
ATOM     20  C   UNL     1      -9.360   0.231   1.631  0.00  0.00    +0.005 A 
ATOM     21  C   UNL     1      -8.113   0.821   1.669  0.00  0.00    +0.015 A 
ATOM     22  C   UNL     1      -7.573   1.378   0.516  0.00  0.00    +0.009 A 
ATOM     23  C   UNL     1      -8.294   1.343  -0.671  0.00  0.00    +0.018 A 
ATOM     24  C   UNL     1      -9.539   0.747  -0.704  0.00  0.00    -0.046 A 
ATOM     25  C   UNL     1     -10.319   0.703  -1.992  0.00  0.00    +0.044 C 
ENDBRANCH  17  22
ENDBRANCH  15  17
ENDBRANCH   1  15
TORSDOF 4
