REMARK  Name = ZINC09427270
REMARK  9 active torsions:
REMARK  status: ('A' for Active; 'I' for Inactive)
REMARK    1  A    between atoms: C_1  and  C_2
REMARK    2  A    between atoms: C_2  and  C_3
REMARK    3  A    between atoms: C_5  and  C_31
REMARK    4  A    between atoms: C_5  and  C_32
REMARK    5  A    between atoms: C_10  and  C_30
REMARK    6  A    between atoms: C_19  and  C_23
REMARK    7  A    between atoms: C_25  and  N_29
REMARK    8  A    between atoms: C_26  and  C_27
REMARK    9  A    between atoms: C_32  and  C_33
REMARK                            x       y       z     vdW  Elec       q    Type
REMARK                         _______ _______ _______ _____ _____    ______ ____
ROOT
ATOM      1  C   UNL     1      -2.143   1.058   1.278  0.00  0.00    -0.041 C 
ATOM      2  C   UNL     1      -2.431  -0.056   1.932  0.00  0.00    +0.003 C 
ATOM      3  C   UNL     1      -3.778  -0.703   2.041  0.00  0.00    +0.058 C 
ATOM      4  N   UNL     1      -4.802   0.056   1.313  0.00  0.00    -0.260 N 
ATOM      5  C   UNL     1      -4.487   1.222   0.629  0.00  0.00    +0.049 A 
ATOM      6  C   UNL     1      -3.200   1.789   0.566  0.00  0.00    -0.000 A 
ATOM      7  C   UNL     1      -3.067   2.956  -0.168  0.00  0.00    +0.013 A 
ATOM      8  C   UNL     1      -4.169   3.521  -0.789  0.00  0.00    -0.049 A 
ATOM      9  C   UNL     1      -5.444   2.959  -0.718  0.00  0.00    +0.010 A 
ATOM     10  C   UNL     1      -5.584   1.793   0.006  0.00  0.00    -0.000 A 
ATOM     11  C   UNL     1      -6.728   0.888   0.331  0.00  0.00    +0.148 C 
ATOM     12  C   UNL     1      -6.115  -0.211   1.186  0.00  0.00    +0.241 C 
ATOM     13  O   UNL     1      -6.704  -1.157   1.667  0.00  0.00    -0.273 OA
ATOM     14  C   UNL     1      -7.316   0.288  -0.914  0.00  0.00    +0.104 A 
ATOM     15  C   UNL     1      -8.552   0.698  -1.371  0.00  0.00    +0.145 A 
ATOM     16  C   UNL     1      -9.062   0.100  -2.546  0.00  0.00    +0.088 A 
ATOM     17  C   UNL     1      -8.337  -0.839  -3.181  0.00  0.00    +0.110 A 
ATOM     18  O   UNL     1      -7.138  -1.234  -2.741  0.00  0.00    -0.427 OA
ATOM     19  C   UNL     1      -6.621  -0.692  -1.629  0.00  0.00    +0.345 A 
ATOM     20  O   UNL     1      -5.526  -1.060  -1.236  0.00  0.00    -0.245 OA
ATOM     21  C   UNL     1      -8.895  -1.467  -4.432  0.00  0.00    +0.086 C 
ATOM     22  O   UNL     1      -9.261   1.641  -0.721  0.00  0.00    -0.441 OA
ATOM     23  C   UNL     1      -8.971   1.941   0.558  0.00  0.00    +0.199 C 
ATOM     24  C   UNL     1      -7.782   1.611   1.119  0.00  0.00    +0.110 C 
ATOM     25  C   UNL     1      -3.983   4.795  -1.573  0.00  0.00    +0.044 C 
ATOM     26  C   UNL     1      -3.701  -2.118   1.464  0.00  0.00    +0.037 C 
ENDROOT
BRANCH  23  27
ATOM     27  N   UNL     1      -9.905   2.601   1.316  0.00  0.00    -0.328 N 
ATOM     28  H   UNL     1      -9.710   2.825   2.240  0.00  0.00    +0.145 HD
ATOM     29  H   UNL     1     -10.761   2.844   0.929  0.00  0.00    +0.145 HD
ENDBRANCH  23  27
BRANCH   1  31
ATOM     30  C   UNL     1      -0.013   1.086   0.008  0.00  0.00    +0.009 C 
ATOM     31  C   UNL     1      -0.729   1.579   1.267  0.00  0.00    +0.032 C 
ENDBRANCH   1  31
BRANCH  24  32
ATOM     32  C   UNL     1      -7.528   1.957   2.485  0.00  0.00    +0.102 C 
ATOM     33  N   UNL     1      -7.326   2.231   3.568  0.00  0.00    -0.191 NA
ENDBRANCH  24  32
BRANCH   3  34
ATOM     34  C   UNL     1      -4.174  -0.787   3.516  0.00  0.00    +0.027 C 
ATOM     35  C   UNL     1      -3.140  -1.620   4.276  0.00  0.00    +0.006 C 
ENDBRANCH   3  34
TORSDOF 4
