REMARK  Name = ZINC56818512
REMARK  10 active torsions:
REMARK  status: ('A' for Active; 'I' for Inactive)
REMARK    1  A    between atoms: C_1  and  C_2
REMARK    2  A    between atoms: C_5  and  C_8
REMARK    3  A    between atoms: C_8  and  N_9
REMARK    4  A    between atoms: N_12  and  C_13
REMARK    5  A    between atoms: C_13  and  C_15
REMARK    6  A    between atoms: C_13  and  C_17
REMARK    7  A    between atoms: C_15  and  O_16
REMARK    8  A    between atoms: C_17  and  C_19
REMARK    9  A    between atoms: C_17  and  O_28
REMARK   10  A    between atoms: C_22  and  N_25
REMARK                            x       y       z     vdW  Elec       q    Type
REMARK                         _______ _______ _______ _____ _____    ______ ____
ROOT
ATOM      1  C   UNK A   1      -2.082  -0.706   8.532  0.00  0.00    +0.133 C 
ENDROOT
BRANCH   1   5
ATOM      2  N   UNK A   0      -1.155  -0.960   4.983  0.00  0.00    -0.299 N 
ATOM      3  C   UNK A   0      -1.849  -0.691   6.107  0.00  0.00    +0.300 C 
ATOM      4  O   UNK A   0      -2.946  -0.171   6.034  0.00  0.00    -0.253 OA
ATOM      5  N   UNK A   1      -1.328  -0.998   7.311  0.00  0.00    -0.292 N 
ATOM      6  H   UNK A   0      -0.280  -1.375   5.041  0.00  0.00    +0.150 HD
ATOM      7  H   UNK A   1      -0.453  -1.413   7.369  0.00  0.00    +0.151 HD
BRANCH   2   8
ATOM      8  C   UNK A   0      -1.722  -0.626   3.675  0.00  0.00    +0.109 C 
BRANCH   8  13
ATOM      9  C   UNK A   0       0.521   1.118   0.070  0.00  0.00    +0.007 C 
ATOM     10  C   UNK A   0       0.874  -0.363   0.222  0.00  0.00    -0.014 C 
ATOM     11  C   UNK A   0      -0.399  -1.205   0.105  0.00  0.00    +0.003 C 
ATOM     12  C   UNK A   0      -1.381  -0.799   1.205  0.00  0.00    +0.005 C 
ATOM     13  C   UNK A   0      -0.739  -1.032   2.574  0.00  0.00    +0.006 C 
ATOM     14  C   UNK A   0       0.533  -0.191   2.691  0.00  0.00    +0.005 C 
ATOM     15  C   UNK A   0       1.516  -0.597   1.591  0.00  0.00    +0.003 C 
ENDBRANCH   8  13
ENDBRANCH   2   8
ENDBRANCH   1   5
BRANCH   1  16
ATOM     16  C   UNK A   1      -1.827   0.742   8.955  0.00  0.00    +0.181 C 
BRANCH  16  17
ATOM     17  O   UNK A   1      -0.450   0.902   9.299  0.00  0.00    -0.393 OA
ATOM     18  H   UNK A   1      -0.215   1.798   9.578  0.00  0.00    +0.209 HD
ENDBRANCH  16  17
ENDBRANCH   1  16
BRANCH   1  19
ATOM     19  C   UNK A   1      -1.631  -1.650   9.649  0.00  0.00    +0.167 C 
BRANCH  19  20
ATOM     20  C   UNK A   1      -1.949  -3.072   9.263  0.00  0.00    -0.017 A 
ATOM     21  C   UNK A   1      -3.235  -3.558   9.412  0.00  0.00    +0.008 A 
ATOM     22  C   UNK A   1      -3.526  -4.862   9.058  0.00  0.00    +0.033 A 
ATOM     23  C   UNK A   1      -2.532  -5.680   8.555  0.00  0.00    +0.126 A 
ATOM     24  C   UNK A   1      -1.246  -5.194   8.406  0.00  0.00    +0.033 A 
ATOM     25  C   UNK A   1      -0.956  -3.889   8.756  0.00  0.00    +0.008 A 
BRANCH  23  26
ATOM     26  N   UNK A   1      -2.844  -7.077   8.177  0.00  0.00    +0.056 N 
ATOM     27  O   UNK A   1      -3.968  -7.502   8.308  0.00  0.00    -0.126 OA
ATOM     28  O   UNK A   1      -1.974  -7.793   7.738  0.00  0.00    -0.126 OA
ENDBRANCH  23  26
ENDBRANCH  19  20
BRANCH  19  29
ATOM     29  O   UNK A   1      -2.318  -1.320  10.858  0.00  0.00    -0.385 OA
ATOM     30  H   UNK A   1      -3.281  -1.306  10.773  0.00  0.00    +0.210 HD
ENDBRANCH  19  29
ENDBRANCH   1  19
TORSDOF 9
