REMARK  Name = ZINC59488011
REMARK  9 active torsions:
REMARK  status: ('A' for Active; 'I' for Inactive)
REMARK    1  A    between atoms: C_1  and  C_2
REMARK    2  A    between atoms: C_2  and  C_4
REMARK    3  A    between atoms: C_2  and  O_34
REMARK    4  A    between atoms: C_7  and  C_21
REMARK    5  A    between atoms: N_23  and  C_24
REMARK    6  A    between atoms: C_26  and  O_32
REMARK    7  A    between atoms: C_29  and  O_30
REMARK    8  A    between atoms: O_30  and  C_31
REMARK    9  A    between atoms: O_32  and  C_33
REMARK                            x       y       z     vdW  Elec       q    Type
REMARK                         _______ _______ _______ _____ _____    ______ ____
ROOT
ATOM      1  C   UNL     1       0.715  -0.547   1.227  0.00  0.00    +0.084 C 
ATOM      2  C   UNL     1       0.778  -2.095   1.233  0.00  0.00    +0.036 C 
ATOM      3  C   UNL     1       2.034  -2.356   2.109  0.00  0.00    +0.110 C 
ATOM      4  C   UNL     1       2.959  -1.188   1.734  0.00  0.00    +0.135 C 
ATOM      5  N   UNL     1       2.128  -0.108   1.187  0.00  0.00    -0.294 NA
ATOM      6  C   UNL     1       3.744  -0.722   2.932  0.00  0.00    +0.006 A 
ATOM      7  C   UNL     1       3.381  -0.202   4.154  0.00  0.00    +0.046 A 
ATOM      8  C   UNL     1       4.355   0.141   5.077  0.00  0.00    +0.124 A 
ATOM      9  C   UNL     1       5.692  -0.042   4.767  0.00  0.00    +0.040 A 
ATOM     10  C   UNL     1       6.058  -0.562   3.543  0.00  0.00    +0.026 A 
ATOM     11  C   UNL     1       5.084  -0.908   2.609  0.00  0.00    +0.039 A 
ATOM     12  N   UNL     1       5.201  -1.441   1.323  0.00  0.00    -0.283 N 
ATOM     13  C   UNL     1       4.002  -1.634   0.741  0.00  0.00    +0.243 C 
ATOM     14  O   UNL     1       3.800  -2.080  -0.368  0.00  0.00    -0.273 OA
ATOM     15  F   UNL     1       4.002   0.653   6.277  0.00  0.00    -0.205 F 
ATOM     16  H   UNL     1       2.409   0.123   0.246  0.00  0.00    +0.124 HD
ATOM     17  H   UNL     1       6.048  -1.649   0.898  0.00  0.00    +0.155 HD
ENDROOT
BRANCH   3  18
ATOM     18  C   UNL     1       1.681  -2.314   3.574  0.00  0.00    +0.223 C 
ATOM     19  O   UNL     1       0.825  -1.552   3.970  0.00  0.00    -0.275 OA
ATOM     20  N   UNL     1       2.318  -3.124   4.443  0.00  0.00    -0.282 N 
ATOM     21  H   UNL     1       3.059  -3.672   4.142  0.00  0.00    +0.155 HD
BRANCH  20  22
ATOM     22  C   UNL     1       1.909  -3.173   5.782  0.00  0.00    +0.079 A 
ATOM     23  C   UNL     1       0.568  -3.020   6.106  0.00  0.00    +0.072 A 
ATOM     24  C   UNL     1       0.166  -3.070   7.431  0.00  0.00    +0.122 A 
ATOM     25  C   UNL     1       1.103  -3.271   8.434  0.00  0.00    +0.049 A 
ATOM     26  C   UNL     1       2.440  -3.423   8.115  0.00  0.00    +0.051 A 
ATOM     27  C   UNL     1       2.846  -3.381   6.791  0.00  0.00    +0.141 A 
BRANCH  27  28
ATOM     28  O   UNL     1       4.161  -3.537   6.477  0.00  0.00    -0.493 OA
ATOM     29  C   UNL     1       5.066  -3.746   7.562  0.00  0.00    +0.277 C 
ENDBRANCH  27  28
BRANCH  24  30
ATOM     30  O   UNL     1      -1.147  -2.920   7.749  0.00  0.00    -0.495 OA
ATOM     31  C   UNL     1      -1.491  -2.981   9.135  0.00  0.00    +0.277 C 
ENDBRANCH  24  30
ENDBRANCH  20  22
ENDBRANCH   3  18
BRANCH   1  33
ATOM     32  C   UNL     1      -0.050   1.481  -0.017  0.00  0.00    +0.039 C 
ATOM     33  C   UNL     1      -0.033  -0.049  -0.011  0.00  0.00    +0.128 C 
BRANCH  33  34
ATOM     34  O   UNL     1      -1.375  -0.540   0.013  0.00  0.00    -0.391 OA
ATOM     35  H   UNL     1      -1.883  -0.258   0.785  0.00  0.00    +0.210 HD
ENDBRANCH  33  34
ENDBRANCH   1  33
TORSDOF 6
