REMARK  Name = ZINC39532854
REMARK  8 active torsions:
REMARK  status: ('A' for Active; 'I' for Inactive)
REMARK    1  A    between atoms: C_1  and  C_2
REMARK    2  A    between atoms: C_2  and  C_3
REMARK    3  A    between atoms: C_3  and  C_4
REMARK    4  A    between atoms: C_7  and  C_10
REMARK    5  A    between atoms: C_10  and  C_12
REMARK    6  A    between atoms: C_10  and  N_15
REMARK    7  A    between atoms: C_12  and  N_13
REMARK    8  A    between atoms: C_19  and  O_22
REMARK                            x       y       z     vdW  Elec       q    Type
REMARK                         _______ _______ _______ _____ _____    ______ ____
ROOT
ATOM      1  C   UNL     1      -1.355  -6.312  -0.019  0.00  0.00    +0.101 C 
ENDROOT
BRANCH   1   2
ATOM      2  N   UNL     1      -2.126  -6.856   1.107  0.00  0.00    -0.295 NA
ATOM      3  C   UNL     1      -1.327  -6.854   2.341  0.00  0.00    +0.066 C 
ATOM      4  C   UNL     1      -2.183  -7.372   3.499  0.00  0.00    -0.063 C 
ATOM      5  N   UNL     1      -2.645  -8.733   3.197  0.00  0.00    +0.398 N 
ATOM      6  C   UNL     1      -3.461  -8.715   1.976  0.00  0.00    +0.073 C 
ATOM      7  C   UNL     1      -2.616  -8.209   0.805  0.00  0.00    +0.096 C 
ATOM      8  H   UNL     1      -1.848  -9.336   3.059  0.00  0.00    -0.082 HD
ATOM      9  H   UNL     1      -3.199  -9.079   3.966  0.00  0.00    -0.082 HD
BRANCH   6  10
ATOM     10  O   UNL     1      -3.924 -10.037   1.693  0.00  0.00    -0.409 OA
ATOM     11  H   UNL     1      -4.468 -10.422   2.393  0.00  0.00    +0.207 HD
ENDBRANCH   6  10
ENDBRANCH   1   2
BRANCH   1  15
ATOM     12  C   UNL     1      -1.150  -2.059   0.321  0.00  0.00    -0.047 A 
ATOM     13  C   UNL     1      -0.667  -2.685  -0.812  0.00  0.00    +0.004 A 
ATOM     14  C   UNL     1      -0.733  -4.062  -0.922  0.00  0.00    +0.005 A 
ATOM     15  C   UNL     1      -1.282  -4.811   0.101  0.00  0.00    -0.029 A 
ATOM     16  C   UNL     1      -1.765  -4.184   1.235  0.00  0.00    +0.005 A 
ATOM     17  C   UNL     1      -1.695  -2.808   1.347  0.00  0.00    +0.004 A 
BRANCH  12  18
ATOM     18  C   UNL     1      -1.078  -0.558   0.441  0.00  0.00    +0.035 C 
BRANCH  18  20
ATOM     19  C   UNL     1       0.322   1.362   1.213  0.00  0.00    +0.004 C 
ATOM     20  C   UNL     1       0.249  -0.162   1.092  0.00  0.00    +0.001 C 
ENDBRANCH  18  20
ENDBRANCH  12  18
ENDBRANCH   1  15
BRANCH   1  21
ATOM     21  C   UNL     1       0.059  -6.895   0.001  0.00  0.00    +0.117 C 
BRANCH  21  22
ATOM     22  N   UNL     1      -0.014  -8.359  -0.082  0.00  0.00    -0.254 NA
ATOM     23 BR   UNL     1       1.677  -9.109  -0.061  0.00  0.00    +0.010 Br
ATOM     24  H   UNL     1      -0.528  -8.650  -0.900  0.00  0.00    +0.135 HD
ENDBRANCH  21  22
ENDBRANCH   1  21
TORSDOF 7
