REMARK  Name = ZINC55186559
REMARK  3 active torsions:
REMARK  status: ('A' for Active; 'I' for Inactive)
REMARK    1  A    between atoms: C_3  and  N_11
REMARK    2  A    between atoms: C_6  and  N_7
REMARK    3  A    between atoms: C_12  and  C_14
REMARK                            x       y       z     vdW  Elec       q    Type
REMARK                         _______ _______ _______ _____ _____    ______ ____
ROOT
ATOM      1  N   UNL     1       3.583   2.125  -0.021  0.00  0.00    -0.279 N 
ATOM      2  C   UNL     1       3.568   3.469  -0.116  0.00  0.00    +0.267 C 
ATOM      3  O   UNL     1       2.508   4.067  -0.103  0.00  0.00    -0.268 OA
ATOM      4  H   UNL     1       4.428   1.653   0.049  0.00  0.00    +0.155 HD
ENDROOT
BRANCH   2   5
ATOM      5  C   UNL     1       4.831   4.213  -0.235  0.00  0.00    +0.135 A 
ATOM      6  C   UNL     1       4.827   5.582  -0.328  0.00  0.00    +0.081 A 
ATOM      7  S   UNL     1       6.580   5.914  -0.446  0.00  0.00    -0.060 S 
ATOM      8  C   UNL     1       7.139   4.219  -0.362  0.00  0.00    +0.156 A 
ATOM      9  N   UNL     1       5.999   3.567  -0.250  0.00  0.00    -0.221 NA
ATOM     10  N   UNL     1       8.431   3.721  -0.400  0.00  0.00    -0.338 N 
ATOM     11  H   UNL     1       9.182   4.329  -0.482  0.00  0.00    +0.144 HD
ATOM     12  H   UNL     1       8.584   2.765  -0.344  0.00  0.00    +0.144 HD
ENDBRANCH   2   5
BRANCH   1  15
ATOM     13  C   UNL     1       0.065   1.242  -0.620  0.00  0.00    +0.034 A 
ATOM     14  C   UNL     1       1.250   1.952  -0.619  0.00  0.00    +0.026 A 
ATOM     15  C   UNL     1       2.381   1.409  -0.024  0.00  0.00    +0.048 A 
ATOM     16  C   UNL     1       2.317   0.153   0.568  0.00  0.00    +0.041 A 
ATOM     17  C   UNL     1       1.128  -0.551   0.562  0.00  0.00    +0.049 A 
ATOM     18  C   UNL     1       0.004  -0.007  -0.031  0.00  0.00    +0.127 A 
ATOM     19 BR   UNL     1       3.855  -0.591   1.378  0.00  0.00    -0.048 Br
BRANCH  18  20
ATOM     20  N   UNL     1      -1.268  -0.764  -0.035  0.00  0.00    +0.056 N 
ATOM     21  O   UNL     1      -2.252  -0.289  -0.553  0.00  0.00    -0.126 OA
ATOM     22  O   UNL     1      -1.323  -1.856   0.480  0.00  0.00    -0.126 OA
ENDBRANCH  18  20
ENDBRANCH   1  15
TORSDOF 3
