REMARK  Name = ZINC22018699
REMARK  7 active torsions:
REMARK  status: ('A' for Active; 'I' for Inactive)
REMARK    1  A    between atoms: C_1  and  C_2
REMARK    2  A    between atoms: C_2  and  C_4
REMARK    3  A    between atoms: C_2  and  N_19
REMARK    4  A    between atoms: N_6  and  C_7
REMARK    5  A    between atoms: N_19  and  S_20
REMARK    6  A    between atoms: S_20  and  C_23
REMARK    7  A    between atoms: C_28  and  C_29
REMARK                            x       y       z     vdW  Elec       q    Type
REMARK                         _______ _______ _______ _____ _____    ______ ____
ROOT
ATOM      1  C   UNL     1      -0.490   1.315   0.025  0.00  0.00    +0.035 C 
ATOM      2  C   UNL     1      -0.267  -0.176  -0.236  0.00  0.00    +0.159 C 
ENDROOT
BRANCH   2   3
ATOM      3  C   UNL     1       0.326  -0.818   0.991  0.00  0.00    +0.236 C 
ATOM      4  O   UNL     1      -0.264  -1.719   1.549  0.00  0.00    -0.274 OA
ATOM      5  N   UNL     1       1.511  -0.390   1.469  0.00  0.00    -0.284 N 
ATOM      6  H   UNL     1       1.950   0.375   1.065  0.00  0.00    +0.155 HD
BRANCH   5   7
ATOM      7  C   UNL     1       2.110  -1.050   2.550  0.00  0.00    +0.036 A 
ATOM      8  C   UNL     1       3.494  -1.171   2.609  0.00  0.00    +0.025 A 
ATOM      9  C   UNL     1       4.090  -1.820   3.671  0.00  0.00    +0.029 A 
ATOM     10  C   UNL     1       3.307  -2.355   4.683  0.00  0.00    +0.067 A 
ATOM     11  C   UNL     1       1.917  -2.235   4.627  0.00  0.00    +0.069 A 
ATOM     12  C   UNL     1       1.321  -1.577   3.562  0.00  0.00    +0.051 A 
ATOM     13  N   UNL     1       1.412  -2.859   5.766  0.00  0.00    -0.306 N 
ATOM     14  H   UNL     1       0.475  -2.937   6.002  0.00  0.00    +0.170 HD
ATOM     15  C   UNL     1       2.447  -3.337   6.482  0.00  0.00    +0.325 A 
ATOM     16  O   UNL     1       2.352  -3.938   7.536  0.00  0.00    -0.247 OA
ATOM     17  N   UNL     1       3.604  -3.049   5.856  0.00  0.00    -0.306 N 
ATOM     18  H   UNL     1       4.492  -3.284   6.167  0.00  0.00    +0.170 HD
ENDBRANCH   5   7
ENDBRANCH   2   3
BRANCH   2  19
ATOM     19  N   UNL     1      -1.548  -0.813  -0.550  0.00  0.00    -0.178 NA
ATOM     20  H   UNL     1      -2.130  -1.111   0.166  0.00  0.00    +0.149 HD
BRANCH  19  21
ATOM     21  S   UNL     1      -2.002  -1.026  -2.129  0.00  0.00    +0.060 S 
ATOM     22  O   UNL     1      -3.248  -1.710  -2.104  0.00  0.00    -0.153 OA
ATOM     23  O   UNL     1      -1.835   0.230  -2.772  0.00  0.00    -0.153 OA
BRANCH  21  24
ATOM     24  C   UNL     1      -0.838  -2.126  -2.862  0.00  0.00    +0.117 A 
ATOM     25  C   UNL     1       0.018  -1.671  -3.848  0.00  0.00    +0.029 A 
ATOM     26  C   UNL     1       0.931  -2.534  -4.423  0.00  0.00    +0.002 A 
ATOM     27  C   UNL     1       0.989  -3.853  -4.013  0.00  0.00    +0.001 A 
ATOM     28  C   UNL     1       0.134  -4.308  -3.027  0.00  0.00    +0.014 A 
ATOM     29  C   UNL     1      -0.777  -3.444  -2.449  0.00  0.00    +0.081 A 
BRANCH  29  30
ATOM     30  C   UNL     1      -1.706  -3.939  -1.371  0.00  0.00    +0.419 C 
ATOM     31  F   UNL     1      -1.377  -5.258  -1.042  0.00  0.00    -0.166 F 
ATOM     32  F   UNL     1      -1.578  -3.130  -0.237  0.00  0.00    -0.166 F 
ATOM     33  F   UNL     1      -3.025  -3.889  -1.833  0.00  0.00    -0.166 F 
ENDBRANCH  29  30
ENDBRANCH  21  24
ENDBRANCH  19  21
ENDBRANCH   2  19
TORSDOF 6
