REMARK  Name = ZINC64959848
REMARK  7 active torsions:
REMARK  status: ('A' for Active; 'I' for Inactive)
REMARK    1  A    between atoms: C_1  and  C_2
REMARK    2  A    between atoms: C_9  and  C_15
REMARK    3  A    between atoms: N_17  and  C_18
REMARK    4  A    between atoms: C_21  and  O_26
REMARK    5  A    between atoms: C_23  and  O_24
REMARK    6  A    between atoms: O_24  and  C_25
REMARK    7  A    between atoms: O_26  and  C_27
REMARK                            x       y       z     vdW  Elec       q    Type
REMARK                         _______ _______ _______ _____ _____    ______ ____
ROOT
ATOM      1  C   UNL     1      -0.017   1.507   0.021  0.00  0.00    +0.044 C 
ATOM      2  C   UNL     1       0.008   0.000   0.015  0.00  0.00    -0.049 A 
ATOM      3  C   UNL     1       0.023  -0.683  -1.188  0.00  0.00    +0.005 A 
ATOM      4  C   UNL     1       0.037  -2.066  -1.193  0.00  0.00    +0.030 A 
ATOM      5  C   UNL     1       0.043  -2.761  -0.002  0.00  0.00    +0.126 A 
ATOM      6  C   UNL     1       0.041  -2.086   1.210  0.00  0.00    +0.056 A 
ATOM      7  C   UNL     1       0.022  -0.692   1.208  0.00  0.00    +0.028 A 
ATOM      8  N   UNL     1       0.088  -2.754   2.431  0.00  0.00    -0.319 N 
ATOM      9  C   UNL     1      -0.321  -4.146   2.600  0.00  0.00    +0.247 C 
ATOM     10  N   UNL     1       0.344  -4.965   1.567  0.00  0.00    -0.161 NA
ATOM     11  S   UNL     1       0.042  -4.529  -0.014  0.00  0.00    +0.062 S 
ATOM     12  O   UNL     1       1.167  -4.939  -0.780  0.00  0.00    -0.153 OA
ATOM     13  O   UNL     1      -1.284  -4.942  -0.313  0.00  0.00    -0.153 OA
ATOM     14  H   UNL     1       0.409  -2.271   3.208  0.00  0.00    +0.148 HD
ATOM     15  H   UNL     1       0.922  -5.710   1.795  0.00  0.00    +0.151 HD
ENDROOT
BRANCH   9  16
ATOM     16  C   UNL     1      -1.817  -4.255   2.450  0.00  0.00    +0.254 C 
ATOM     17  O   UNL     1      -2.445  -3.339   1.961  0.00  0.00    -0.272 OA
ATOM     18  N   UNL     1      -2.456  -5.369   2.858  0.00  0.00    -0.280 N 
ATOM     19  H   UNL     1      -1.947  -6.131   3.174  0.00  0.00    +0.155 HD
BRANCH  18  20
ATOM     20  C   UNL     1      -3.858  -5.425   2.826  0.00  0.00    +0.076 A 
ATOM     21  C   UNL     1      -4.601  -4.255   2.883  0.00  0.00    +0.030 A 
ATOM     22  C   UNL     1      -5.981  -4.311   2.852  0.00  0.00    +0.047 A 
ATOM     23  C   UNL     1      -6.627  -5.535   2.762  0.00  0.00    +0.124 A 
ATOM     24  C   UNL     1      -5.888  -6.708   2.705  0.00  0.00    +0.093 A 
ATOM     25  C   UNL     1      -4.504  -6.655   2.730  0.00  0.00    +0.145 A 
BRANCH  25  26
ATOM     26  O   UNL     1      -3.777  -7.803   2.668  0.00  0.00    -0.493 OA
ATOM     27  C   UNL     1      -4.507  -9.028   2.571  0.00  0.00    +0.277 C 
ENDBRANCH  25  26
BRANCH  23  28
ATOM     28  O   UNL     1      -7.985  -5.587   2.731  0.00  0.00    -0.495 OA
ATOM     29  C   UNL     1      -8.683  -4.341   2.794  0.00  0.00    +0.277 C 
ENDBRANCH  23  28
ENDBRANCH  18  20
ENDBRANCH   9  16
TORSDOF 4
