REMARK  Name = ZINC12246914
REMARK  11 active torsions:
REMARK  status: ('A' for Active; 'I' for Inactive)
REMARK    1  A    between atoms: C_1  and  C_2
REMARK    2  A    between atoms: C_2  and  C_3
REMARK    3  A    between atoms: C_3  and  C_17
REMARK    4  A    between atoms: N_6  and  C_10
REMARK    5  A    between atoms: C_10  and  C_11
REMARK    6  A    between atoms: C_22  and  C_23
REMARK    7  A    between atoms: C_22  and  N_66
REMARK    8  A    between atoms: C_23  and  C_24
REMARK    9  A    between atoms: C_24  and  C_26
REMARK   10  A    between atoms: C_24  and  C_27
REMARK   11  A    between atoms: C_30  and  C_32
REMARK                            x       y       z     vdW  Elec       q    Type
REMARK                         _______ _______ _______ _____ _____    ______ ____
ROOT
ATOM      1  C   UNL     1      -7.713   9.030   0.667  0.00  0.00    +0.115 C 
ATOM      2  C   UNL     1      -9.162   9.354   0.973  0.00  0.00    +0.247 C 
ATOM      3  O   UNL     1      -9.606   9.830   1.995  0.00  0.00    -0.273 OA
ATOM      4  N   UNL     1      -9.854   9.001  -0.129  0.00  0.00    -0.218 N 
ATOM      5  C   UNL     1      -9.052   8.504  -1.077  0.00  0.00    +0.310 C 
ATOM      6  O   UNL     1      -9.445   8.118  -2.161  0.00  0.00    -0.252 OA
ATOM      7  N   UNL     1      -7.757   8.482  -0.700  0.00  0.00    -0.285 N 
ATOM      8  H   UNL     1      -7.004   8.168  -1.223  0.00  0.00    +0.151 HD
ENDROOT
BRANCH   1   9
ATOM      9  C   UNL     1      -7.176   7.985   1.648  0.00  0.00    +0.018 C 
ATOM     10  C   UNL     1      -8.048   6.728   1.585  0.00  0.00    -0.013 C 
ATOM     11  C   UNL     1      -7.471   5.666   2.523  0.00  0.00    -0.078 C 
ATOM     12  C   UNL     1      -5.228   6.530   2.217  0.00  0.00    -0.078 C 
ATOM     13  C   UNL     1      -5.738   7.619   1.270  0.00  0.00    -0.013 C 
ATOM     14  N   UNL     1      -6.095   5.340   2.091  0.00  0.00    +0.380 N 
ATOM     15  H   UNL     1      -6.116   5.046   1.107  0.00  0.00    -0.082 HD
BRANCH  14  16
ATOM     16  C   UNL     1      -5.558   4.234   2.910  0.00  0.00    -0.078 C 
BRANCH  16  17
ATOM     17  C   UNL     1      -4.232   3.771   2.303  0.00  0.00    -0.008 C 
BRANCH  17  18
ATOM     18  C   UNL     1      -3.672   2.610   3.127  0.00  0.00    +0.050 C 
ATOM     19  C   UNL     1      -4.610   1.407   3.017  0.00  0.00    +0.015 C 
BRANCH  18  20
ATOM     20  C   UNL     1      -2.309   2.234   2.604  0.00  0.00    +0.108 A 
ATOM     21  C   UNL     1      -1.162   2.263   3.306  0.00  0.00    +0.045 A 
ATOM     22  C   UNL     1      -0.136   1.835   2.432  0.00  0.00    +0.044 A 
ATOM     23  C   UNL     1      -0.718   1.572   1.248  0.00  0.00    +0.102 A 
ATOM     24  O   UNL     1      -2.033   1.821   1.357  0.00  0.00    -0.465 OA
ATOM     25  C   UNL     1      -0.013   1.086   0.008  0.00  0.00    +0.086 C 
ENDBRANCH  18  20
ENDBRANCH  17  18
ENDBRANCH  16  17
ENDBRANCH  14  16
ENDBRANCH   1   9
BRANCH   1  27
ATOM     26  C   UNL     1      -7.414  11.323  -0.277  0.00  0.00    +0.006 C 
ATOM     27  C   UNL     1      -6.857  10.297   0.711  0.00  0.00    +0.032 C 
ENDBRANCH   1  27
BRANCH   4  28
ATOM     28  C   UNL     1     -11.305   9.143  -0.269  0.00  0.00    +0.173 C 
BRANCH  28  29
ATOM     29  C   UNL     1     -11.624  10.497  -0.848  0.00  0.00    +0.059 A 
ATOM     30  C   UNL     1     -11.803  10.632  -2.212  0.00  0.00    +0.025 A 
ATOM     31  C   UNL     1     -12.101  11.882  -2.733  0.00  0.00    +0.003 A 
ATOM     32  C   UNL     1     -12.198  12.955  -1.861  0.00  0.00    +0.020 A 
ATOM     33  C   UNL     1     -12.000  12.745  -0.510  0.00  0.00    +0.111 A 
ATOM     34  N   UNL     1     -11.723  11.541  -0.048  0.00  0.00    -0.258 NA
ENDBRANCH  28  29
ENDBRANCH   4  28
TORSDOF 8
