REMARK  Name = ZINC39412485
REMARK  7 active torsions:
REMARK  status: ('A' for Active; 'I' for Inactive)
REMARK    1  A    between atoms: C_1  and  C_2
REMARK    2  A    between atoms: C_2  and  C_3
REMARK    3  A    between atoms: C_3  and  C_5
REMARK    4  A    between atoms: C_3  and  N_19
REMARK    5  A    between atoms: N_7  and  N_8
REMARK    6  A    between atoms: C_9  and  C_10
REMARK    7  A    between atoms: N_19  and  C_20
REMARK                            x       y       z     vdW  Elec       q    Type
REMARK                         _______ _______ _______ _____ _____    ______ ____
ROOT
ATOM      1  C   UNL     1       0.847  -1.998  -1.206  0.00  0.00    +0.252 C 
ATOM      2  O   UNL     1       0.343  -2.680  -2.073  0.00  0.00    -0.272 OA
ATOM      3  N   UNL     1       1.523  -2.582  -0.197  0.00  0.00    -0.205 N 
ATOM      4  H   UNL     1       1.926  -2.037   0.497  0.00  0.00    +0.177 HD
ENDROOT
BRANCH   3   5
ATOM      5  N   UNL     1       1.643  -3.977  -0.149  0.00  0.00    -0.188 NA
ATOM      6  C   UNL     1       2.299  -4.545   0.831  0.00  0.00    +0.136 C 
BRANCH   6   7
ATOM      7  C   UNL     1       2.420  -5.941   0.879  0.00  0.00    +0.000 C 
ATOM      8  C   UNL     1       3.074  -6.698   1.848  0.00  0.00    +0.004 A 
ATOM      9  C   UNL     1       3.783  -6.343   3.017  0.00  0.00    +0.010 A 
ATOM     10  C   UNL     1       4.330  -7.314   3.792  0.00  0.00    +0.001 A 
ATOM     11  C   UNL     1       4.213  -8.667   3.463  0.00  0.00    +0.002 A 
ATOM     12  C   UNL     1       3.548  -9.080   2.358  0.00  0.00    +0.026 A 
ATOM     13  C   UNL     1       2.947  -8.123   1.497  0.00  0.00    +0.043 A 
ATOM     14  N   UNL     1       2.260  -8.264   0.383  0.00  0.00    -0.380 N 
ATOM     15  C   UNL     1       1.859  -6.942  -0.108  0.00  0.00    +0.150 C 
ATOM     16  H   UNL     1       2.049  -9.109  -0.043  0.00  0.00    +0.160 HD
ENDBRANCH   6   7
ENDBRANCH   3   5
BRANCH   1  17
ATOM     17  C   UNL     1       0.718  -0.497  -1.257  0.00  0.00    +0.158 C 
BRANCH  17  19
ATOM     18  C   UNL     1      -0.019   1.526   0.010  0.00  0.00    +0.006 C 
ATOM     19  C   UNL     1       0.002  -0.004   0.002  0.00  0.00    +0.028 C 
ENDBRANCH  17  19
BRANCH  17  20
ATOM     20  N   UNL     1      -0.055  -0.114  -2.441  0.00  0.00    -0.333 N 
ATOM     21  H   UNL     1      -0.683  -0.740  -2.833  0.00  0.00    +0.147 HD
BRANCH  20  22
ATOM     22  C   UNL     1       0.113   1.154  -3.004  0.00  0.00    +0.028 A 
ATOM     23  C   UNL     1       1.017   2.049  -2.446  0.00  0.00    +0.024 A 
ATOM     24  C   UNL     1       1.181   3.301  -3.005  0.00  0.00    +0.017 A 
ATOM     25  C   UNL     1       0.445   3.664  -4.120  0.00  0.00    +0.018 A 
ATOM     26  C   UNL     1      -0.456   2.775  -4.678  0.00  0.00    +0.017 A 
ATOM     27  C   UNL     1      -0.619   1.519  -4.126  0.00  0.00    +0.024 A 
ATOM     28 BR   UNL     1       0.671   5.380  -4.882  0.00  0.00    -0.050 Br
ENDBRANCH  20  22
ENDBRANCH  17  20
ENDBRANCH   1  17
TORSDOF 6
