REMARK  Name = ZINC08429519
REMARK  3 active torsions:
REMARK  status: ('A' for Active; 'I' for Inactive)
REMARK    1  A    between atoms: C_6  and  C_7
REMARK    2  A    between atoms: C_12  and  N_16
REMARK    3  A    between atoms: N_16  and  C_17
REMARK                            x       y       z     vdW  Elec       q    Type
REMARK                         _______ _______ _______ _____ _____    ______ ____
ROOT
ATOM      1  C   UNL     1      -0.923   3.566   0.029  0.00  0.00    +0.022 A 
ATOM      2  C   UNL     1      -1.119   2.220   0.019  0.00  0.00    +0.044 A 
ATOM      3  C   UNL     1      -0.016   1.353   0.009  0.00  0.00    +0.084 A 
ATOM      4  C   UNL     1       1.250   1.980   0.001  0.00  0.00    +0.078 A 
ATOM      5  S   UNL     1       0.856   3.708   0.013  0.00  0.00    -0.083 S 
ATOM      6  C   UNL     1       2.416   1.235  -0.014  0.00  0.00    +0.137 A 
ATOM      7  N   UNL     1       2.317  -0.095  -0.020  0.00  0.00    -0.220 NA
ATOM      8  C   UNL     1       1.127  -0.670  -0.012  0.00  0.00    +0.224 A 
ATOM      9  N   UNL     1       0.002  -0.004   0.002  0.00  0.00    -0.235 NA
ENDROOT
BRANCH   1  15
ATOM     10  C   UNL     1      -3.294   4.330   0.049  0.00  0.00    +0.012 A 
ATOM     11  C   UNL     1      -4.233   5.340   0.068  0.00  0.00    +0.039 A 
ATOM     12  C   UNL     1      -3.829   6.665   0.071  0.00  0.00    +0.123 A 
ATOM     13  C   UNL     1      -2.480   6.983   0.061  0.00  0.00    +0.039 A 
ATOM     14  C   UNL     1      -1.533   5.981   0.048  0.00  0.00    +0.012 A 
ATOM     15  C   UNL     1      -1.935   4.644   0.044  0.00  0.00    -0.011 A 
ATOM     16  F   UNL     1      -4.753   7.651   0.084  0.00  0.00    -0.205 F 
ENDBRANCH   1  15
BRANCH   6  17
ATOM     17  N   UNL     1       3.655   1.855  -0.022  0.00  0.00    -0.325 N 
ATOM     18  H   UNL     1       3.713   2.823  -0.017  0.00  0.00    +0.148 HD
BRANCH  17  19
ATOM     19  C   UNL     1       4.878   1.048  -0.038  0.00  0.00    +0.072 C 
ATOM     20  C   UNL     1       6.016   1.473   0.893  0.00  0.00    +0.024 C 
ATOM     21  C   UNL     1       6.140   1.690  -0.618  0.00  0.00    +0.024 C 
ENDBRANCH  17  19
ENDBRANCH   6  17
TORSDOF 3
