REMARK  Name = ZINC13014921
REMARK  10 active torsions:
REMARK  status: ('A' for Active; 'I' for Inactive)
REMARK    1  A    between atoms: C_1  and  C_2
REMARK    2  A    between atoms: C_3  and  C_25
REMARK    3  A    between atoms: C_4  and  C_24
REMARK    4  A    between atoms: C_7  and  C_8
REMARK    5  A    between atoms: C_8  and  C_10
REMARK    6  A    between atoms: C_10  and  O_11
REMARK    7  A    between atoms: O_11  and  C_12
REMARK    8  A    between atoms: C_17  and  C_18
REMARK    9  A    between atoms: C_25  and  O_27
REMARK   10  A    between atoms: O_27  and  C_28
REMARK                            x       y       z     vdW  Elec       q    Type
REMARK                         _______ _______ _______ _____ _____    ______ ____
ROOT
ATOM      1  C   UNL     1       0.032  -0.415   2.457  0.00  0.00    +0.216 C 
ATOM      2  O   UNL     1       0.019   0.769   2.728  0.00  0.00    -0.287 OA
ENDROOT
BRANCH   1   9
ATOM      3  C   UNL     1      -0.018   1.503   0.010  0.00  0.00    +0.047 C 
ATOM      4  C   UNL     1       0.002  -0.004   0.002  0.00  0.00    -0.008 A 
ATOM      5  C   UNL     1       0.008  -0.839  -1.136  0.00  0.00    +0.083 A 
ATOM      6  C   UNL     1       0.028  -2.147  -0.683  0.00  0.00    +0.028 A 
ATOM      7  N   UNL     1       0.034  -2.137   0.658  0.00  0.00    -0.355 N 
ATOM      8  H   UNL     1       0.048  -2.924   1.225  0.00  0.00    +0.166 HD
ATOM      9  C   UNL     1       0.024  -0.832   1.104  0.00  0.00    +0.090 A 
ATOM     10  C   UNL     1       0.040  -3.377  -1.553  0.00  0.00    +0.064 C 
BRANCH   5  11
ATOM     11  C   UNL     1      -0.004  -0.401  -2.542  0.00  0.00    +0.341 C 
ATOM     12  O   UNL     1       1.043  -0.205  -3.127  0.00  0.00    -0.245 OA
BRANCH  11  13
ATOM     13  O   UNL     1      -1.177  -0.216  -3.180  0.00  0.00    -0.464 OA
ATOM     14  C   UNL     1      -1.115   0.209  -4.542  0.00  0.00    +0.280 C 
ENDBRANCH  11  13
ENDBRANCH   5  11
ENDBRANCH   1   9
BRANCH   1  15
ATOM     15  C   UNL     1       0.057  -1.440   3.561  0.00  0.00    +0.310 C 
BRANCH  15  16
ATOM     16  O   UNL     1       0.061  -0.777   4.827  0.00  0.00    -0.482 OA
BRANCH  16  17
ATOM     17  C   UNL     1       0.083  -1.562   5.933  0.00  0.00    +0.155 A 
ATOM     18  C   UNL     1      -1.106  -1.985   6.510  0.00  0.00    +0.085 A 
ATOM     19  C   UNL     1      -1.083  -2.785   7.637  0.00  0.00    +0.045 A 
ATOM     20  C   UNL     1       0.123  -3.170   8.200  0.00  0.00    +0.062 A 
ATOM     21  C   UNL     1       1.316  -2.759   7.641  0.00  0.00    +0.077 A 
ATOM     22  C   UNL     1       1.307  -1.953   6.495  0.00  0.00    +0.126 A 
ATOM     23 CL   UNL     1       2.823  -3.245   8.351  0.00  0.00    -0.081 Cl
ATOM     24 CL   UNL     1       0.134  -4.173   9.617  0.00  0.00    -0.082 Cl
ATOM     25 CL   UNL     1      -2.624  -1.510   5.815  0.00  0.00    -0.080 Cl
BRANCH  22  26
ATOM     26  C   UNL     1       2.574  -1.515   5.889  0.00  0.00    +0.392 C 
ATOM     27  O   UNL     1       2.562  -0.806   4.892  0.00  0.00    -0.240 OA
ATOM     28  O   UNL     1       3.639  -1.858   6.383  0.00  0.00    -0.240 OA
ENDBRANCH  22  26
ENDBRANCH  16  17
ENDBRANCH  15  16
ENDBRANCH   1  15
TORSDOF 7
