REMARK  Name = ZINC33306452
REMARK  8 active torsions:
REMARK  status: ('A' for Active; 'I' for Inactive)
REMARK    1  A    between atoms: C_1  and  C_2
REMARK    2  A    between atoms: C_3  and  N_28
REMARK    3  A    between atoms: C_4  and  C_7
REMARK    4  A    between atoms: C_8  and  C_9
REMARK    5  A    between atoms: C_12  and  S_14
REMARK    6  A    between atoms: S_14  and  N_17
REMARK    7  A    between atoms: N_17  and  C_18
REMARK    8  A    between atoms: C_29  and  C_31
REMARK                            x       y       z     vdW  Elec       q    Type
REMARK                         _______ _______ _______ _____ _____    ______ ____
ROOT
ATOM      1  C   UNL     1       1.285   3.740  -5.415  0.00  0.00    +0.014 A 
ATOM      2  C   UNL     1       2.107   4.801  -5.066  0.00  0.00    +0.017 A 
ATOM      3  C   UNL     1       1.956   5.360  -3.819  0.00  0.00    +0.037 A 
ATOM      4  C   UNL     1       1.022   4.853  -2.970  0.00  0.00    +0.146 A 
ATOM      5  S   UNL     1       0.298   3.541  -3.940  0.00  0.00    -0.069 S 
ENDROOT
BRANCH   4   6
ATOM      6  S   UNL     1       0.624   5.365  -1.332  0.00  0.00    +0.079 S 
ATOM      7  O   UNL     1       1.779   6.014  -0.818  0.00  0.00    -0.149 OA
ATOM      8  O   UNL     1       0.029   4.246  -0.690  0.00  0.00    -0.149 OA
BRANCH   6   9
ATOM      9  N   UNL     1      -0.554   6.523  -1.454  0.00  0.00    -0.216 N 
ATOM     10  H   UNL     1      -0.345   7.556  -1.138  0.00  0.00    +0.174 HD
BRANCH   9  11
ATOM     11  C   UNL     1      -1.815   6.187  -1.960  0.00  0.00    +0.052 A 
ATOM     12  C   UNL     1      -2.450   5.030  -1.530  0.00  0.00    +0.028 A 
ATOM     13  C   UNL     1      -3.695   4.698  -2.030  0.00  0.00    +0.051 A 
ATOM     14  C   UNL     1      -4.313   5.519  -2.961  0.00  0.00    +0.162 A 
ATOM     15  C   UNL     1      -3.681   6.679  -3.392  0.00  0.00    +0.164 A 
ATOM     16  C   UNL     1      -2.432   7.011  -2.891  0.00  0.00    +0.074 A 
ATOM     17  O   UNL     1      -4.276   7.501  -4.299  0.00  0.00    -0.485 OA
ATOM     18  C   UNL     1      -5.357   6.948  -5.057  0.00  0.00    +0.270 C 
ATOM     19  C   UNL     1      -6.291   6.205  -4.092  0.00  0.00    +0.270 C 
ATOM     20  O   UNL     1      -5.537   5.170  -3.448  0.00  0.00    -0.485 OA
ENDBRANCH   9  11
ENDBRANCH   6   9
ENDBRANCH   4   6
BRANCH   1  22
ATOM     21  C   UNL     1       0.353   1.969  -6.810  0.00  0.00    +0.052 C 
ATOM     22  C   UNL     1       1.239   2.982  -6.665  0.00  0.00    +0.019 C 
BRANCH  21  26
ATOM     23  C   UNL     1      -0.934  -1.407 -10.377  0.00  0.00    +0.071 C 
ATOM     24  C   UNL     1      -0.250  -0.277  -9.651  0.00  0.00    +0.102 A 
ATOM     25  C   UNL     1      -0.541   0.158  -8.347  0.00  0.00    +0.103 A 
ATOM     26  C   UNL     1       0.307   1.212  -8.058  0.00  0.00    +0.182 A 
ATOM     27  O   UNL     1       1.080   1.415  -9.146  0.00  0.00    -0.353 OA
ATOM     28  N   UNL     1       0.713   0.464 -10.127  0.00  0.00    -0.081 NA
BRANCH  25  29
ATOM     29  N   UNL     1      -1.515  -0.379  -7.493  0.00  0.00    -0.281 N 
ATOM     30  C   UNL     1      -2.819  -0.106  -7.701  0.00  0.00    +0.214 C 
ATOM     31  O   UNL     1      -3.157   0.526  -8.680  0.00  0.00    -0.276 OA
ATOM     32  C   UNL     1      -3.855  -0.585  -6.718  0.00  0.00    +0.109 C 
ATOM     33  H   UNL     1      -1.216  -1.024  -6.653  0.00  0.00    +0.155 HD
ENDBRANCH  25  29
ENDBRANCH  21  26
ENDBRANCH   1  22
TORSDOF 6
