REMARK  Name = ZINC42176409
REMARK  4 active torsions:
REMARK  status: ('A' for Active; 'I' for Inactive)
REMARK    1  A    between atoms: C_1  and  C_2
REMARK    2  A    between atoms: C_2  and  N_7
REMARK    3  A    between atoms: N_7  and  C_8
REMARK    4  A    between atoms: C_13  and  N_14
REMARK                            x       y       z     vdW  Elec       q    Type
REMARK                         _______ _______ _______ _____ _____    ______ ____
ROOT
ATOM      1  C   UNL     1       0.275  -0.266  -2.453  0.00  0.00    +0.052 A 
ATOM      2  C   UNL     1      -0.716   0.683  -2.650  0.00  0.00    +0.074 A 
ATOM      3  C   UNL     1      -1.128   1.001  -3.936  0.00  0.00    +0.164 A 
ATOM      4  C   UNL     1      -0.547   0.370  -5.028  0.00  0.00    +0.164 A 
ATOM      5  C   UNL     1       0.444  -0.582  -4.832  0.00  0.00    +0.074 A 
ATOM      6  C   UNL     1       0.861  -0.897  -3.548  0.00  0.00    +0.049 A 
ATOM      7  O   UNL     1      -0.934   0.675  -6.298  0.00  0.00    -0.485 OA
ATOM      8  C   UNL     1      -2.185   1.357  -6.443  0.00  0.00    +0.270 C 
ATOM      9  C   UNL     1      -2.230   2.500  -5.419  0.00  0.00    +0.270 C 
ATOM     10  O   UNL     1      -2.106   1.934  -4.110  0.00  0.00    -0.485 OA
ENDROOT
BRANCH   6  11
ATOM     11  N   UNL     1       1.867  -1.854  -3.352  0.00  0.00    -0.356 N 
ATOM     12  H   UNL     1       2.156  -2.078  -2.453  0.00  0.00    +0.142 HD
ATOM     13  H   UNL     1       2.274  -2.293  -4.115  0.00  0.00    +0.142 HD
ENDBRANCH   6  11
BRANCH   1  14
ATOM     14  N   UNL     1       0.692  -0.586  -1.152  0.00  0.00    -0.337 N 
ATOM     15  H   UNL     1       1.444  -1.184  -1.017  0.00  0.00    +0.147 HD
BRANCH  14  17
ATOM     16  C   UNL     1      -1.470  -0.468   0.003  0.00  0.00    +0.031 C 
ATOM     17  C   UNL     1      -0.008  -0.017   0.002  0.00  0.00    +0.029 C 
ATOM     18  C   UNL     1       0.681  -0.458   1.310  0.00  0.00    +0.025 C 
ATOM     19  C   UNL     1       1.633   0.715   1.652  0.00  0.00    +0.002 C 
ATOM     20  C   UNL     1       0.804   1.958   1.245  0.00  0.00    +0.002 C 
ATOM     21  C   UNL     1       0.070   1.520  -0.039  0.00  0.00    +0.025 C 
ENDBRANCH  14  17
ENDBRANCH   1  14
TORSDOF 3
