REMARK  Name = ZINC49126473
REMARK  5 active torsions:
REMARK  status: ('A' for Active; 'I' for Inactive)
REMARK    1  A    between atoms: C_1  and  C_2
REMARK    2  A    between atoms: C_2  and  C_4
REMARK    3  A    between atoms: C_2  and  N_10
REMARK    4  A    between atoms: C_11  and  C_13
REMARK    5  A    between atoms: C_21  and  N_23
REMARK                            x       y       z     vdW  Elec       q    Type
REMARK                         _______ _______ _______ _____ _____    ______ ____
ROOT
ATOM      1  C   UNL     1       2.719  -1.061  -2.424  0.00  0.00    +0.062 A 
ATOM      2  C   UNL     1       2.139  -1.418  -3.605  0.00  0.00    +0.096 A 
ATOM      3  N   UNL     1       3.095  -1.801  -4.487  0.00  0.00    -0.360 N 
ATOM      4  H   UNL     1       2.923  -2.099  -5.394  0.00  0.00    +0.165 HD
ATOM      5  C   UNL     1       4.346  -1.708  -3.912  0.00  0.00    +0.049 A 
ATOM      6  C   UNL     1       4.173  -1.237  -2.600  0.00  0.00    +0.012 A 
ATOM      7  C   UNL     1       5.277  -1.040  -1.776  0.00  0.00    +0.012 A 
ATOM      8  C   UNL     1       6.534  -1.302  -2.245  0.00  0.00    +0.023 A 
ATOM      9  C   UNL     1       6.717  -1.767  -3.546  0.00  0.00    +0.027 A 
ATOM     10  C   UNL     1       5.628  -1.976  -4.376  0.00  0.00    +0.049 A 
ENDROOT
BRANCH   1  12
ATOM     11  N   UNL     1       0.688  -0.476  -1.203  0.00  0.00    -0.304 N 
ATOM     12  C   UNL     1       2.031  -0.587  -1.215  0.00  0.00    +0.247 C 
ATOM     13  O   UNL     1       2.674  -0.294  -0.224  0.00  0.00    -0.270 OA
ATOM     14  H   UNL     1       0.175  -0.710  -1.993  0.00  0.00    +0.150 HD
BRANCH  11  16
ATOM     15  C   UNL     1      -0.019   1.526   0.010  0.00  0.00    +0.033 C 
ATOM     16  C   UNL     1       0.002  -0.004   0.002  0.00  0.00    +0.107 C 
BRANCH  16  17
ATOM     17  C   UNL     1      -1.412  -0.526   0.013  0.00  0.00    +0.011 A 
ATOM     18  C   UNL     1      -2.141  -0.993   1.055  0.00  0.00    +0.014 A 
ATOM     19  C   UNL     1      -3.435  -1.425   0.828  0.00  0.00    +0.028 A 
ATOM     20  C   UNL     1      -3.935  -1.368  -0.431  0.00  0.00    +0.078 A 
ATOM     21  S   UNL     1      -2.563  -0.681  -1.343  0.00  0.00    -0.080 S 
ATOM     22 CL   UNL     1      -5.505  -1.836  -1.006  0.00  0.00    -0.076 Cl
ENDBRANCH  16  17
ENDBRANCH  11  16
ENDBRANCH   1  12
BRANCH   9  23
ATOM     23  N   UNL     1       8.007  -2.031  -4.013  0.00  0.00    -0.358 N 
ATOM     24  H   UNL     1       8.772  -1.891  -3.433  0.00  0.00    +0.142 HD
ATOM     25  H   UNL     1       8.139  -2.354  -4.918  0.00  0.00    +0.142 HD
ENDBRANCH   9  23
TORSDOF 4
