REMARK  Name = ZINC62826160
REMARK  9 active torsions:
REMARK  status: ('A' for Active; 'I' for Inactive)
REMARK    1  A    between atoms: C_1  and  C_2
REMARK    2  A    between atoms: C_4  and  C_22
REMARK    3  A    between atoms: C_5  and  N_11
REMARK    4  A    between atoms: C_6  and  C_8
REMARK    5  A    between atoms: N_14  and  C_15
REMARK    6  A    between atoms: C_15  and  C_17
REMARK    7  A    between atoms: C_15  and  C_18
REMARK    8  A    between atoms: C_18  and  O_20
REMARK    9  A    between atoms: O_20  and  C_21
REMARK                            x       y       z     vdW  Elec       q    Type
REMARK                         _______ _______ _______ _____ _____    ______ ____
ROOT
ATOM      1  N   UNL     1      -0.295  -4.140  -0.278  0.00  0.00    -0.268 N 
ATOM      2  C   UNL     1      -0.252  -4.899   0.835  0.00  0.00    +0.305 C 
ATOM      3  O   UNL     1      -0.001  -4.388   1.910  0.00  0.00    -0.252 OA
ATOM      4  N   UNL     1      -0.487  -6.223   0.757  0.00  0.00    -0.286 N 
ATOM      5  H   UNL     1      -0.415  -4.558  -1.145  0.00  0.00    +0.156 HD
ATOM      6  H   UNL     1      -0.688  -6.631  -0.100  0.00  0.00    +0.151 HD
ENDROOT
BRANCH   1  11
ATOM      7  C   UNL     1       0.243   1.498   0.113  0.00  0.00    +0.044 C 
ATOM      8  C   UNL     1       0.092   0.002   0.005  0.00  0.00    -0.049 A 
ATOM      9  C   UNL     1       1.088  -0.829   0.493  0.00  0.00    +0.008 A 
ATOM     10  C   UNL     1       0.963  -2.200   0.401  0.00  0.00    -0.028 A 
ATOM     11  C   UNL     1      -0.167  -2.758  -0.183  0.00  0.00    +0.052 A 
ATOM     12  C   UNL     1      -1.179  -1.919  -0.679  0.00  0.00    +0.085 A 
ATOM     13  C   UNL     1      -1.038  -0.532  -0.573  0.00  0.00    +0.020 A 
ATOM     14  C   UNL     1       2.053  -3.093   0.935  0.00  0.00    +0.046 C 
BRANCH  12  15
ATOM     15  C   UNL     1      -2.380  -2.497  -1.301  0.00  0.00    +0.388 C 
ATOM     16  O   UNL     1      -3.213  -1.765  -1.818  0.00  0.00    -0.241 OA
ATOM     17  O   UNL     1      -2.546  -3.709  -1.301  0.00  0.00    -0.241 OA
ENDBRANCH  12  15
ENDBRANCH   1  11
BRANCH   4  18
ATOM     18  C   UNL     1      -0.440  -7.048   1.968  0.00  0.00    +0.180 C 
ATOM     19  C   UNL     1       1.005  -7.469   2.242  0.00  0.00    +0.040 C 
BRANCH  18  20
ATOM     20  C   UNL     1      -1.293  -8.275   1.772  0.00  0.00    +0.327 C 
ATOM     21  O   UNL     1      -1.880  -8.444   0.730  0.00  0.00    -0.249 OA
BRANCH  20  22
ATOM     22  O   UNL     1      -1.401  -9.181   2.757  0.00  0.00    -0.467 OA
ATOM     23  C   UNL     1      -2.226 -10.320   2.503  0.00  0.00    +0.280 C 
ENDBRANCH  20  22
ENDBRANCH  18  20
ENDBRANCH   4  18
TORSDOF 5
