REMARK  Name = ZINC39671480
REMARK  5 active torsions:
REMARK  status: ('A' for Active; 'I' for Inactive)
REMARK    1  A    between atoms: C_1  and  C_2
REMARK    2  A    between atoms: C_6  and  C_9
REMARK    3  A    between atoms: C_13  and  C_22
REMARK    4  A    between atoms: N_24  and  C_25
REMARK    5  A    between atoms: C_25  and  C_26
REMARK                            x       y       z     vdW  Elec       q    Type
REMARK                         _______ _______ _______ _____ _____    ______ ____
ROOT
ATOM      1  C   UNL     1       0.088  -2.899   2.609  0.00  0.00    +0.252 C 
ATOM      2  O   UNL     1       1.131  -3.255   3.122  0.00  0.00    -0.270 OA
ATOM      3  N   UNL     1      -1.090  -3.272   3.149  0.00  0.00    -0.296 N 
ATOM      4  C   UNL     1      -2.453  -2.945   2.668  0.00  0.00    +0.121 C 
ATOM      5  C   UNL     1      -3.264  -4.243   2.883  0.00  0.00    +0.100 C 
ATOM      6  C   UNL     1      -2.512  -4.995   3.994  0.00  0.00    -0.004 C 
ATOM      7  C   UNL     1      -1.313  -4.106   4.354  0.00  0.00    +0.115 C 
ATOM      8  C   UNL     1      -3.415  -5.184   5.209  0.00  0.00    -0.010 C 
ATOM      9  C   UNL     1      -2.666  -5.985   6.277  0.00  0.00    -0.082 C 
ATOM     10  N   UNL     1      -2.273  -7.288   5.729  0.00  0.00    +0.379 N 
ATOM     11  C   UNL     1      -1.331  -7.100   4.619  0.00  0.00    -0.082 C 
ATOM     12  C   UNL     1      -2.024  -6.346   3.480  0.00  0.00    -0.010 C 
ATOM     13  H   UNL     1      -1.833  -7.838   6.452  0.00  0.00    -0.086 HD
ATOM     14  H   UNL     1      -3.093  -7.772   5.394  0.00  0.00    -0.086 HD
ENDROOT
BRANCH   1  20
ATOM     15  C   UNL     1       0.156   1.617   0.481  0.00  0.00    +0.047 C 
ATOM     16  C   UNL     1       0.143   0.114   0.365  0.00  0.00    -0.014 A 
ATOM     17  C   UNL     1       0.153  -0.481  -0.884  0.00  0.00    +0.009 A 
ATOM     18  C   UNL     1       0.142  -1.859  -1.002  0.00  0.00    +0.039 A 
ATOM     19  C   UNL     1       0.120  -2.653   0.130  0.00  0.00    +0.138 A 
ATOM     20  C   UNL     1       0.111  -2.060   1.396  0.00  0.00    +0.107 A 
ATOM     21  C   UNL     1       0.128  -0.665   1.506  0.00  0.00    +0.141 A 
ATOM     22  F   UNL     1       0.125  -0.081   2.725  0.00  0.00    -0.204 F 
ATOM     23  F   UNL     1       0.109  -3.999   0.012  0.00  0.00    -0.205 F 
ENDBRANCH   1  20
BRANCH   5  24
ATOM     24  C   UNL     1      -4.668  -3.917   3.324  0.00  0.00    +0.219 C 
ATOM     25  O   UNL     1      -4.882  -2.918   3.976  0.00  0.00    -0.275 OA
ATOM     26  N   UNL     1      -5.685  -4.738   2.993  0.00  0.00    -0.309 N 
ATOM     27  H   UNL     1      -5.513  -5.537   2.472  0.00  0.00    +0.149 HD
BRANCH  26  28
ATOM     28  C   UNL     1      -7.050  -4.421   3.421  0.00  0.00    +0.157 C 
BRANCH  28  29
ATOM     29  C   UNL     1      -7.992  -5.488   2.926  0.00  0.00    +0.034 A 
ATOM     30  H   UNL     1      -8.440  -4.840   0.998  0.00  0.00    +0.166 HD
ATOM     31  C   UNL     1      -8.389  -6.556   3.636  0.00  0.00    +0.032 A 
ATOM     32  C   UNL     1      -9.294  -7.326   2.781  0.00  0.00    -0.000 A 
ATOM     33  C   UNL     1     -10.015  -8.510   2.949  0.00  0.00    +0.010 A 
ATOM     34  C   UNL     1     -10.794  -8.981   1.929  0.00  0.00    +0.001 A 
ATOM     35  C   UNL     1     -10.873  -8.291   0.727  0.00  0.00    +0.002 A 
ATOM     36  C   UNL     1     -10.170  -7.121   0.539  0.00  0.00    +0.026 A 
ATOM     37  C   UNL     1      -9.372  -6.624   1.564  0.00  0.00    +0.047 A 
ATOM     38  N   UNL     1      -8.573  -5.509   1.687  0.00  0.00    -0.357 N 
ENDBRANCH  28  29
ENDBRANCH  26  28
ENDBRANCH   5  24
TORSDOF 4
