REMARK  Name = ZINC63862670
REMARK  10 active torsions:
REMARK  status: ('A' for Active; 'I' for Inactive)
REMARK    1  A    between atoms: C_1  and  C_2
REMARK    2  A    between atoms: C_4  and  S_20
REMARK    3  A    between atoms: C_6  and  C_7
REMARK    4  A    between atoms: N_9  and  C_10
REMARK    5  A    between atoms: C_10  and  C_11
REMARK    6  A    between atoms: C_11  and  C_12
REMARK    7  A    between atoms: C_11  and  N_17
REMARK    8  A    between atoms: N_17  and  C_18
REMARK    9  A    between atoms: N_17  and  C_19
REMARK   10  A    between atoms: S_20  and  N_23
REMARK                            x       y       z     vdW  Elec       q    Type
REMARK                         _______ _______ _______ _____ _____    ______ ____
ROOT
ATOM      1  C   UNL     1      -0.118  -0.477   2.502  0.00  0.00    +0.251 C 
ATOM      2  O   UNL     1      -0.311   0.710   2.687  0.00  0.00    -0.270 OA
ATOM      3  N   UNL     1      -0.004  -1.313   3.553  0.00  0.00    -0.312 N 
ATOM      4  H   UNL     1       0.150  -2.259   3.406  0.00  0.00    +0.149 HD
ENDROOT
BRANCH   1  10
ATOM      5  C   UNL     1      -0.329   1.171  -0.133  0.00  0.00    +0.045 C 
ATOM      6  C   UNL     1      -0.093  -0.316  -0.068  0.00  0.00    -0.029 A 
ATOM      7  C   UNL     1       0.057  -1.082  -1.199  0.00  0.00    +0.040 A 
ATOM      8  C   UNL     1       0.268  -2.415  -1.069  0.00  0.00    +0.143 A 
ATOM      9  S   UNL     1       0.269  -2.672   0.591  0.00  0.00    -0.064 S 
ATOM     10  C   UNL     1      -0.008  -0.997   1.136  0.00  0.00    +0.079 A 
BRANCH   8  11
ATOM     11  S   UNL     1       0.489  -3.606  -2.349  0.00  0.00    +0.062 S 
ATOM     12  O   UNL     1       0.119  -4.864  -1.802  0.00  0.00    -0.153 OA
ATOM     13  O   UNL     1      -0.127  -3.071  -3.513  0.00  0.00    -0.153 OA
BRANCH  11  14
ATOM     14  N   UNL     1       2.112  -3.686  -2.668  0.00  0.00    -0.203 NA
ATOM     15  H   UNL     1       2.732  -3.128  -2.172  0.00  0.00    +0.144 HD
ATOM     16  H   UNL     1       2.443  -4.292  -3.350  0.00  0.00    +0.144 HD
ENDBRANCH  11  14
ENDBRANCH   8  11
ENDBRANCH   1  10
BRANCH   3  17
ATOM     17  C   UNL     1      -0.114  -0.793   4.918  0.00  0.00    +0.094 C 
BRANCH  17  18
ATOM     18  C   UNL     1      -0.062  -1.955   5.912  0.00  0.00    -0.020 C 
BRANCH  18  19
ATOM     19  C   UNL     1       1.286  -2.624   5.833  0.00  0.00    -0.052 A 
ATOM     20  C   UNL     1       1.448  -3.792   5.112  0.00  0.00    +0.009 A 
ATOM     21  C   UNL     1       2.674  -4.368   5.061  0.00  0.00    +0.045 A 
ATOM     22  S   UNL     1       3.649  -3.249   6.052  0.00  0.00    -0.105 S 
ATOM     23  C   UNL     1       2.359  -2.086   6.463  0.00  0.00    +0.047 A 
ENDBRANCH  18  19
BRANCH  18  24
ATOM     24  N   UNL     1      -0.276  -1.445   7.273  0.00  0.00    +0.382 N 
ATOM     25  C   UNL     1      -1.586  -0.783   7.348  0.00  0.00    -0.096 C 
ATOM     26  C   UNL     1      -0.237  -2.562   8.227  0.00  0.00    -0.096 C 
ATOM     27  H   UNL     1       0.449  -0.782   7.502  0.00  0.00    -0.082 HD
ENDBRANCH  18  24
ENDBRANCH  17  18
ENDBRANCH   3  17
TORSDOF 7
