REMARK  Name = ZINC58217833
REMARK  9 active torsions:
REMARK  status: ('A' for Active; 'I' for Inactive)
REMARK    1  A    between atoms: C_1  and  C_2
REMARK    2  A    between atoms: C_2  and  O_3
REMARK    3  A    between atoms: O_3  and  C_4
REMARK    4  A    between atoms: C_7  and  C_13
REMARK    5  A    between atoms: C_9  and  O_10
REMARK    6  A    between atoms: O_10  and  C_11
REMARK    7  A    between atoms: C_11  and  C_12
REMARK    8  A    between atoms: N_15  and  C_16
REMARK    9  A    between atoms: C_23  and  N_25
REMARK                            x       y       z     vdW  Elec       q    Type
REMARK                         _______ _______ _______ _____ _____    ______ ____
ROOT
ATOM      1  C   UNL     1       1.105  -6.016  -1.839  0.00  0.00    +0.244 C 
ATOM      2  O   UNL     1       1.667  -6.471  -2.817  0.00  0.00    -0.270 OA
ATOM      3  N   UNL     1       0.585  -6.847  -0.914  0.00  0.00    -0.308 N 
ATOM      4  H   UNL     1       0.137  -6.484  -0.134  0.00  0.00    +0.149 HD
ENDROOT
BRANCH   3   5
ATOM      5  C   UNL     1       0.698  -8.297  -1.085  0.00  0.00    +0.082 C 
ATOM      6  C   UNL     1       2.080  -8.750  -0.562  0.00  0.00    +0.186 C 
ATOM      7  S   UNL     1       1.643  -9.367   1.122  0.00  0.00    -0.031 S 
ATOM      8  O   UNL     1       1.558  -8.268   2.019  0.00  0.00    -0.174 OA
ATOM      9  O   UNL     1       2.467 -10.479   1.444  0.00  0.00    -0.174 OA
ATOM     10  C   UNL     1      -0.059  -9.961   0.722  0.00  0.00    +0.152 C 
ATOM     11  C   UNL     1      -0.473  -8.962  -0.377  0.00  0.00    -0.025 C 
BRANCH  11  12
ATOM     12  N   UNL     1      -1.280  -9.677  -1.375  0.00  0.00    +0.384 N 
ATOM     13  C   UNL     1      -1.768  -8.725  -2.380  0.00  0.00    -0.078 C 
ATOM     14  C   UNL     1      -2.541  -9.476  -3.466  0.00  0.00    -0.019 C 
ATOM     15  C   UNL     1      -3.729 -10.203  -2.830  0.00  0.00    -0.004 C 
ATOM     16  C   UNL     1      -3.214 -11.138  -1.732  0.00  0.00    -0.019 C 
ATOM     17  C   UNL     1      -2.416 -10.326  -0.710  0.00  0.00    -0.078 C 
ATOM     18  H   UNL     1      -0.711 -10.377  -1.827  0.00  0.00    -0.081 HD
ENDBRANCH  11  12
ENDBRANCH   3   5
BRANCH   1  22
ATOM     19  C   UNL     1       0.777  -1.809  -1.336  0.00  0.00    +0.162 A 
ATOM     20  C   UNL     1       0.241  -2.666  -0.384  0.00  0.00    +0.050 A 
ATOM     21  C   UNL     1       0.346  -4.030  -0.544  0.00  0.00    +0.017 A 
ATOM     22  C   UNL     1       0.992  -4.555  -1.667  0.00  0.00    +0.040 A 
ATOM     23  C   UNL     1       1.530  -3.692  -2.625  0.00  0.00    +0.062 A 
ATOM     24  C   UNL     1       1.418  -2.325  -2.461  0.00  0.00    +0.163 A 
BRANCH  19  25
ATOM     25  O   UNL     1       0.671  -0.465  -1.174  0.00  0.00    -0.489 OA
BRANCH  25  27
ATOM     26  C   UNL     1      -0.019   1.526   0.010  0.00  0.00    +0.048 C 
ATOM     27  C   UNL     1       0.002  -0.004   0.002  0.00  0.00    +0.226 C 
ENDBRANCH  25  27
ENDBRANCH  19  25
BRANCH  24  28
ATOM     28  O   UNL     1       1.937  -1.483  -3.395  0.00  0.00    -0.489 OA
BRANCH  28  29
ATOM     29  C   UNL     1       2.579  -2.082  -4.522  0.00  0.00    +0.226 C 
ATOM     30  C   UNL     1       3.096  -0.985  -5.456  0.00  0.00    +0.048 C 
ENDBRANCH  28  29
ENDBRANCH  24  28
ENDBRANCH   1  22
TORSDOF 7
