REMARK  Name = ZINC39363102
REMARK  8 active torsions:
REMARK  status: ('A' for Active; 'I' for Inactive)
REMARK    1  A    between atoms: C_4  and  C_7
REMARK    2  A    between atoms: C_7  and  N_8
REMARK    3  A    between atoms: C_9  and  C_11
REMARK    4  A    between atoms: C_11  and  S_12
REMARK    5  A    between atoms: S_12  and  C_13
REMARK    6  A    between atoms: C_16  and  C_26
REMARK    7  A    between atoms: N_18  and  C_19
REMARK    8  A    between atoms: C_26  and  C_27
REMARK                            x       y       z     vdW  Elec       q    Type
REMARK                         _______ _______ _______ _____ _____    ______ ____
ROOT
ATOM      1  C   UNL     1       7.638  -3.157   4.687  0.00  0.00    +0.180 C 
ATOM      2  N   UNL     1       6.923  -2.686   5.652  0.00  0.00    -0.162 NA
ATOM      3  N   UNL     1       7.607  -2.744   6.872  0.00  0.00    -0.246 N 
ATOM      4  C   UNL     1       8.922  -3.339   6.578  0.00  0.00    +0.187 C 
ATOM      5  N   UNL     1       8.879  -3.594   5.128  0.00  0.00    -0.258 N 
ATOM      6  H   UNL     1       7.280  -2.451   7.737  0.00  0.00    +0.170 HD
ENDROOT
BRANCH   5   7
ATOM      7  C   UNL     1       9.892  -4.161   4.349  0.00  0.00    +0.038 A 
ATOM      8  C   UNL     1      10.247  -5.491   4.531  0.00  0.00    +0.025 A 
ATOM      9  C   UNL     1      11.248  -6.049   3.760  0.00  0.00    +0.022 A 
ATOM     10  C   UNL     1      11.897  -5.283   2.807  0.00  0.00    +0.041 A 
ATOM     11  C   UNL     1      11.545  -3.958   2.624  0.00  0.00    +0.022 A 
ATOM     12  C   UNL     1      10.541  -3.396   3.388  0.00  0.00    +0.025 A 
ATOM     13 CL   UNL     1      13.155  -5.988   1.839  0.00  0.00    -0.084 Cl
ENDBRANCH   5   7
BRANCH   1  14
ATOM     14  S   UNL     1       7.101  -3.244   3.011  0.00  0.00    -0.079 S 
BRANCH  14  15
ATOM     15  C   UNL     1       5.430  -2.539   3.049  0.00  0.00    +0.172 C 
BRANCH  15  17
ATOM     16  N   UNL     1       3.605  -2.075   1.445  0.00  0.00    -0.311 N 
ATOM     17  C   UNL     1       4.847  -2.553   1.659  0.00  0.00    +0.224 C 
ATOM     18  O   UNL     1       5.495  -2.995   0.734  0.00  0.00    -0.275 OA
ATOM     19  H   UNL     1       3.087  -1.722   2.184  0.00  0.00    +0.149 HD
BRANCH  16  20
ATOM     20  C   UNL     1       3.038  -2.089   0.094  0.00  0.00    +0.139 C 
BRANCH  20  24
ATOM     21  C   UNL     1      -0.897  -0.430   0.181  0.00  0.00    +0.000 A 
ATOM     22  C   UNL     1       0.194   0.391  -0.034  0.00  0.00    +0.000 A 
ATOM     23  C   UNL     1       1.468  -0.146  -0.062  0.00  0.00    +0.005 A 
ATOM     24  C   UNL     1       1.650  -1.504   0.126  0.00  0.00    -0.030 A 
ATOM     25  C   UNL     1       0.559  -2.324   0.342  0.00  0.00    +0.005 A 
ATOM     26  C   UNL     1      -0.715  -1.788   0.368  0.00  0.00    +0.000 A 
ENDBRANCH  20  24
ENDBRANCH  16  20
ENDBRANCH  15  17
ENDBRANCH  14  15
ENDBRANCH   1  14
BRANCH   4  27
ATOM     27  C   UNL     1      10.044  -2.360   6.927  0.00  0.00    +0.097 C 
BRANCH  27  28
ATOM     28  C   UNL     1      10.078  -2.144   8.418  0.00  0.00    +0.029 A 
ATOM     29  N   UNL     1       9.258  -1.212   8.996  0.00  0.00    -0.311 N 
ATOM     30  C   UNL     1       9.280  -1.012  10.326  0.00  0.00    +0.327 A 
ATOM     31  O   UNL     1       8.543  -0.180  10.819  0.00  0.00    -0.247 OA
ATOM     32  N   UNL     1      10.105  -1.721  11.119  0.00  0.00    -0.275 N 
ATOM     33  C   UNL     1      10.928  -2.647  10.588  0.00  0.00    +0.254 A 
ATOM     34  O   UNL     1      11.675  -3.289  11.305  0.00  0.00    -0.268 OA
ATOM     35  C   UNL     1      10.912  -2.872   9.191  0.00  0.00    +0.091 A 
ATOM     36  H   UNL     1      10.108  -1.563  12.076  0.00  0.00    +0.173 HD
ATOM     37  H   UNL     1       8.656  -0.692   8.441  0.00  0.00    +0.170 HD
ENDBRANCH  27  28
ENDBRANCH   4  27
TORSDOF 8
