REMARK  Name = ZINC29811864
REMARK  10 active torsions:
REMARK  status: ('A' for Active; 'I' for Inactive)
REMARK    1  A    between atoms: C_1  and  C_2
REMARK    2  A    between atoms: C_5  and  N_11
REMARK    3  A    between atoms: C_7  and  N_8
REMARK    4  A    between atoms: C_12  and  C_14
REMARK    5  A    between atoms: C_14  and  C_16
REMARK    6  A    between atoms: C_14  and  N_17
REMARK    7  A    between atoms: N_17  and  C_18
REMARK    8  A    between atoms: C_21  and  N_24
REMARK    9  A    between atoms: N_27  and  C_28
REMARK   10  A    between atoms: C_28  and  C_29
REMARK                            x       y       z     vdW  Elec       q    Type
REMARK                         _______ _______ _______ _____ _____    ______ ____
ROOT
ATOM      1  N   UNL     1      -0.447   7.416   0.477  0.00  0.00    -0.333 N 
ATOM      2  H   UNL     1      -1.289   7.941   0.953  0.00  0.00    +0.147 HD
ENDROOT
BRANCH   1   3
ATOM      3  C   UNL     1      -0.512   6.034   0.268  0.00  0.00    +0.028 A 
ATOM      4  C   UNL     1      -1.639   5.325   0.660  0.00  0.00    +0.025 A 
ATOM      5  C   UNL     1      -1.703   3.961   0.454  0.00  0.00    +0.025 A 
ATOM      6  C   UNL     1      -0.640   3.299  -0.146  0.00  0.00    +0.035 A 
ATOM      7  C   UNL     1       0.489   4.008  -0.534  0.00  0.00    +0.025 A 
ATOM      8  C   UNL     1       0.551   5.372  -0.332  0.00  0.00    +0.025 A 
BRANCH   6   9
ATOM      9  N   UNL     1      -0.705   1.914  -0.356  0.00  0.00    -0.269 N 
ATOM     10  C   UNL     1      -0.209   1.380  -1.489  0.00  0.00    +0.304 C 
ATOM     11  O   UNL     1       0.189   2.106  -2.380  0.00  0.00    -0.253 OA
ATOM     12  N   UNL     1      -0.158   0.042  -1.638  0.00  0.00    -0.296 N 
ATOM     13  H   UNL     1      -1.161   1.264   0.405  0.00  0.00    +0.156 HD
ATOM     14  H   UNL     1      -0.518  -0.615  -0.832  0.00  0.00    +0.151 HD
BRANCH  12  15
ATOM     15  C   UNL     1       0.376  -0.539  -2.872  0.00  0.00    +0.132 C 
BRANCH  15  16
ATOM     16  C   UNL     1       0.321  -2.042  -2.785  0.00  0.00    -0.016 C 
ATOM     17  C   UNL     1      -0.294  -2.731  -3.714  0.00  0.00    +0.005 C 
ENDBRANCH  15  16
ENDBRANCH  12  15
ENDBRANCH   6   9
ENDBRANCH   1   3
BRANCH   1  18
ATOM     18  C   UNL     1       0.742   8.165   0.063  0.00  0.00    +0.154 C 
ATOM     19  C   UNL     1       1.799   8.096   1.168  0.00  0.00    +0.038 C 
BRANCH  18  21
ATOM     20  N   UNL     1       1.309  10.486  -0.579  0.00  0.00    -0.284 N 
ATOM     21  C   UNL     1       0.369   9.604  -0.186  0.00  0.00    +0.237 C 
ATOM     22  O   UNL     1      -0.778   9.968  -0.032  0.00  0.00    -0.273 OA
ATOM     23  H   UNL     1       2.334  10.143  -0.781  0.00  0.00    +0.155 HD
BRANCH  20  28
ATOM     24  C   UNL     1      -0.022  15.966  -1.190  0.00  0.00    +0.046 C 
ATOM     25  C   UNL     1       0.332  14.510  -1.028  0.00  0.00    -0.020 A 
ATOM     26  C   UNL     1      -0.594  13.535  -1.354  0.00  0.00    +0.007 A 
ATOM     27  C   UNL     1      -0.271  12.200  -1.211  0.00  0.00    +0.024 A 
ATOM     28  C   UNL     1       0.981  11.837  -0.730  0.00  0.00    +0.036 A 
ATOM     29  C   UNL     1       1.907  12.819  -0.404  0.00  0.00    +0.056 A 
ATOM     30  C   UNL     1       1.580  14.152  -0.554  0.00  0.00    +0.131 A 
BRANCH  30  31
ATOM     31  N   UNL     1       2.567  15.199  -0.207  0.00  0.00    +0.057 N 
ATOM     32  O   UNL     1       3.621  14.892   0.320  0.00  0.00    -0.126 OA
ATOM     33  O   UNL     1       2.325  16.369  -0.447  0.00  0.00    -0.126 OA
ENDBRANCH  30  31
ENDBRANCH  20  28
ENDBRANCH  18  21
ENDBRANCH   1  18
TORSDOF 8
