REMARK  Name = ZINC05179063
REMARK  8 active torsions:
REMARK  status: ('A' for Active; 'I' for Inactive)
REMARK    1  A    between atoms: C_1  and  C_2
REMARK    2  A    between atoms: C_2  and  C_5
REMARK    3  A    between atoms: N_3  and  O_4
REMARK    4  A    between atoms: C_5  and  C_6
REMARK    5  A    between atoms: C_6  and  O_17
REMARK    6  A    between atoms: N_13  and  C_16
REMARK    7  A    between atoms: O_17  and  C_18
REMARK    8  A    between atoms: C_18  and  C_20
REMARK                            x       y       z     vdW  Elec       q    Type
REMARK                         _______ _______ _______ _____ _____    ______ ____
ROOT
ATOM      1  C   UNL     1       2.239   3.265   0.428  0.00  0.00    +0.221 C 
ATOM      2  C   UNL     1       1.016   3.007   1.277  0.00  0.00    +0.027 A 
ATOM      3  C   UNL     1      -0.051   3.795   1.646  0.00  0.00    +0.010 A 
ATOM      4  C   UNL     1      -1.048   3.273   2.452  0.00  0.00    +0.001 A 
ATOM      5  C   UNL     1      -0.971   1.960   2.879  0.00  0.00    +0.002 A 
ATOM      6  C   UNL     1       0.099   1.170   2.514  0.00  0.00    +0.024 A 
ATOM      7  C   UNL     1       1.107   1.688   1.703  0.00  0.00    +0.044 A 
ATOM      8  N   UNL     1       2.269   1.099   1.203  0.00  0.00    -0.270 N 
ATOM      9  C   UNL     1       2.986   1.949   0.449  0.00  0.00    +0.269 C 
ATOM     10  O   UNL     1       4.036   1.707  -0.109  0.00  0.00    -0.270 OA
ATOM     11  C   UNL     1       2.661  -0.287   1.469  0.00  0.00    +0.138 C 
ENDROOT
BRANCH   1  12
ATOM     12  C   UNL     1       3.093   4.376   1.043  0.00  0.00    +0.116 C 
BRANCH  12  14
ATOM     13  C   UNL     1       2.272   6.585  -0.080  0.00  0.00    +0.064 C 
ATOM     14  C   UNL     1       2.292   5.651   1.103  0.00  0.00    +0.059 C 
ATOM     15  N   UNL     1       1.628   5.940   2.158  0.00  0.00    -0.097 NA
BRANCH  15  16
ATOM     16  O   UNL     1       0.875   7.138   2.214  0.00  0.00    -0.409 OA
ATOM     17  H   UNL     1       0.304   7.386   3.121  0.00  0.00    +0.328 HD
ENDBRANCH  15  16
ENDBRANCH  12  14
ENDBRANCH   1  12
BRANCH   1  18
ATOM     18  O   UNL     1       1.853   3.613  -0.928  0.00  0.00    -0.443 OA
BRANCH  18  19
ATOM     19  C   UNL     1       2.844   3.870  -1.796  0.00  0.00    +0.305 C 
ATOM     20  O   UNL     1       3.996   3.755  -1.450  0.00  0.00    -0.251 OA
ATOM     21  C   UNL     1       2.519   4.302  -3.203  0.00  0.00    +0.136 C 
ENDBRANCH  18  19
ENDBRANCH   1  18
TORSDOF 5
