REMARK  Name = ZINC44793081
REMARK  5 active torsions:
REMARK  status: ('A' for Active; 'I' for Inactive)
REMARK    1  A    between atoms: C_4  and  C_6
REMARK    2  A    between atoms: C_4  and  C_10
REMARK    3  A    between atoms: N_7  and  O_8
REMARK    4  A    between atoms: N_12  and  C_13
REMARK    5  A    between atoms: N_17  and  C_19
REMARK                            x       y       z     vdW  Elec       q    Type
REMARK                         _______ _______ _______ _____ _____    ______ ____
ROOT
ATOM      1  C   UNL     1       2.103  -1.429   0.355  0.00  0.00    +0.227 C 
ATOM      2  O   UNL     1       3.103  -0.975   0.869  0.00  0.00    -0.275 OA
ATOM      3  N   UNL     1       1.661  -2.652   0.706  0.00  0.00    -0.313 N 
ATOM      4  H   UNL     1       0.903  -3.045   0.245  0.00  0.00    +0.149 HD
ENDROOT
BRANCH   3   5
ATOM      5  C   UNL     1       2.325  -3.390   1.784  0.00  0.00    +0.055 C 
ATOM      6  C   UNL     1       1.706  -3.016   3.150  0.00  0.00    +0.002 C 
ATOM      7  C   UNL     1       0.687  -4.158   3.393  0.00  0.00    -0.077 C 
ATOM      8  N   UNL     1       1.384  -5.355   2.856  0.00  0.00    +0.383 N 
ATOM      9  C   UNL     1       2.078  -4.902   1.628  0.00  0.00    -0.056 C 
ATOM     10  H   UNL     1       2.055  -5.698   3.527  0.00  0.00    -0.081 HD
BRANCH   8  11
ATOM     11  C   UNL     1       0.409  -6.404   2.529  0.00  0.00    -0.069 C 
ATOM     12  C   UNL     1       0.437  -7.681   3.371  0.00  0.00    -0.017 C 
ATOM     13  C   UNL     1       0.946  -7.705   1.928  0.00  0.00    -0.017 C 
ENDBRANCH   8  11
ENDBRANCH   3   5
BRANCH   1  17
ATOM     14  C   UNL     1      -0.095   1.295  -0.112  0.00  0.00    +0.001 C 
ATOM     15  C   UNL     1       1.390   1.729  -0.034  0.00  0.00    +0.001 C 
ATOM     16  C   UNL     1       2.095   0.700  -0.953  0.00  0.00    +0.024 C 
ATOM     17  C   UNL     1       1.354  -0.625  -0.677  0.00  0.00    +0.105 C 
ATOM     18  C   UNL     1      -0.038  -0.246  -0.141  0.00  0.00    +0.024 C 
BRANCH  17  19
ATOM     19  C   UNL     1       1.220  -1.417  -1.952  0.00  0.00    +0.147 C 
ATOM     20  N   UNL     1       0.486  -0.969  -2.916  0.00  0.00    -0.076 NA
ATOM     21  N   UNL     1       1.879  -2.618  -2.089  0.00  0.00    -0.343 N 
ATOM     22  H   UNL     1       2.496  -2.914  -1.401  0.00  0.00    +0.144 HD
ATOM     23  H   UNL     1       1.726  -3.168  -2.873  0.00  0.00    +0.144 HD
BRANCH  20  24
ATOM     24  O   UNL     1      -0.089   0.322  -2.827  0.00  0.00    -0.408 OA
ATOM     25  H   UNL     1      -0.621   0.570  -3.596  0.00  0.00    +0.328 HD
ENDBRANCH  20  24
ENDBRANCH  17  19
ENDBRANCH   1  17
TORSDOF 5
