REMARK  Name = ZINC14352310
REMARK  6 active torsions:
REMARK  status: ('A' for Active; 'I' for Inactive)
REMARK    1  A    between atoms: C_1  and  C_2
REMARK    2  A    between atoms: C_2  and  C_4
REMARK    3  A    between atoms: C_2  and  O_15
REMARK    4  A    between atoms: N_6  and  C_7
REMARK    5  A    between atoms: O_15  and  C_16
REMARK    6  A    between atoms: C_19  and  N_22
REMARK                            x       y       z     vdW  Elec       q    Type
REMARK                         _______ _______ _______ _____ _____    ______ ____
ROOT
ATOM      1  C   UNL     1      -1.113  -2.759   1.300  0.00  0.00    +0.062 C 
ATOM      2  C   UNL     1      -1.088  -2.122  -0.092  0.00  0.00    +0.256 C 
ENDROOT
BRANCH   2   3
ATOM      3  C   UNL     1      -2.252  -2.634  -0.899  0.00  0.00    +0.258 C 
ATOM      4  O   UNL     1      -3.081  -1.859  -1.327  0.00  0.00    -0.271 OA
ATOM      5  N   UNL     1      -2.373  -3.953  -1.147  0.00  0.00    -0.281 N 
ATOM      6  H   UNL     1      -1.746  -4.580  -0.753  0.00  0.00    +0.155 HD
BRANCH   5   7
ATOM      7  C   UNL     1      -3.402  -4.419  -1.973  0.00  0.00    +0.053 A 
ATOM      8  C   UNL     1      -4.639  -3.788  -1.967  0.00  0.00    +0.025 A 
ATOM      9  C   UNL     1      -5.653  -4.249  -2.783  0.00  0.00    +0.003 A 
ATOM     10  C   UNL     1      -5.439  -5.339  -3.607  0.00  0.00    +0.021 A 
ATOM     11  C   UNL     1      -4.208  -5.971  -3.617  0.00  0.00    +0.061 A 
ATOM     12  C   UNL     1      -3.187  -5.511  -2.805  0.00  0.00    +0.080 A 
ATOM     13 CL   UNL     1      -1.641  -6.299  -2.822  0.00  0.00    -0.080 Cl
ATOM     14 CL   UNL     1      -3.944  -7.340  -4.652  0.00  0.00    -0.082 Cl
ENDBRANCH   5   7
ENDBRANCH   2   3
BRANCH   2  15
ATOM     15  O   UNL     1      -1.182  -0.702   0.033  0.00  0.00    -0.480 OA
BRANCH  15  16
ATOM     16  C   UNL     1      -0.014  -0.006   0.061  0.00  0.00    +0.122 A 
ATOM     17  C   UNL     1       1.196  -0.684   0.098  0.00  0.00    +0.048 A 
ATOM     18  C   UNL     1       2.382   0.023   0.126  0.00  0.00    +0.031 A 
ATOM     19  C   UNL     1       2.363   1.411   0.117  0.00  0.00    +0.069 A 
ATOM     20  C   UNL     1       1.152   2.088   0.080  0.00  0.00    +0.031 A 
ATOM     21  C   UNL     1      -0.033   1.381   0.052  0.00  0.00    +0.048 A 
BRANCH  19  22
ATOM     22  N   UNL     1       3.569   2.129   0.146  0.00  0.00    -0.200 N 
ATOM     23  C   UNL     1       4.822   1.627   0.184  0.00  0.00    +0.250 A 
ATOM     24  N   UNL     1       5.646   2.641   0.200  0.00  0.00    -0.116 NA
ATOM     25  N   UNL     1       5.000   3.751   0.176  0.00  0.00    -0.023 NA
ATOM     26  N   UNL     1       3.731   3.526   0.136  0.00  0.00    -0.039 NA
ENDBRANCH  19  22
ENDBRANCH  15  16
ENDBRANCH   2  15
TORSDOF 5
