REMARK  Name = ZINC09217277
REMARK  9 active torsions:
REMARK  status: ('A' for Active; 'I' for Inactive)
REMARK    1  A    between atoms: C_1  and  C_2
REMARK    2  A    between atoms: C_2  and  O_3
REMARK    3  A    between atoms: O_3  and  C_4
REMARK    4  A    between atoms: C_4  and  C_6
REMARK    5  A    between atoms: C_7  and  C_28
REMARK    6  A    between atoms: C_12  and  C_22
REMARK    7  A    between atoms: C_14  and  S_15
REMARK    8  A    between atoms: S_15  and  C_16
REMARK    9  A    between atoms: C_22  and  N_49
REMARK                            x       y       z     vdW  Elec       q    Type
REMARK                         _______ _______ _______ _____ _____    ______ ____
ROOT
ATOM      1  C   UNL     1       0.012   0.018  -0.231  0.00  0.00    +0.102 A 
ATOM      2  C   UNL     1      -0.016   1.359   0.009  0.00  0.00    -0.018 A 
ATOM      3  C   UNL     1       1.178   2.050   0.242  0.00  0.00    +0.044 A 
ATOM      4  C   UNL     1       2.358   1.266   0.205  0.00  0.00    +0.114 A 
ATOM      5  S   UNL     1       1.754  -0.365  -0.145  0.00  0.00    -0.062 S 
ATOM      6  N   UNL     1       3.546   1.799   0.407  0.00  0.00    -0.227 NA
ATOM      7  C   UNL     1       3.666   3.090   0.652  0.00  0.00    +0.115 A 
ATOM      8  N   UNL     1       2.613   3.884   0.703  0.00  0.00    -0.227 NA
ATOM      9  C   UNL     1       1.381   3.437   0.512  0.00  0.00    +0.115 A 
ATOM     10  C   UNL     1      -1.331   2.096   0.020  0.00  0.00    +0.046 C 
ENDROOT
BRANCH   1  11
ATOM     11  C   UNL     1      -1.110  -0.888  -0.495  0.00  0.00    +0.346 C 
ATOM     12  O   UNL     1      -2.247  -0.456  -0.518  0.00  0.00    -0.244 OA
BRANCH  11  13
ATOM     13  O   UNL     1      -0.882  -2.199  -0.713  0.00  0.00    -0.461 OA
BRANCH  13  15
ATOM     14  C   UNL     1      -1.587  -4.481  -1.190  0.00  0.00    +0.048 C 
ATOM     15  C   UNL     1      -2.041  -3.036  -0.968  0.00  0.00    +0.229 C 
ENDBRANCH  13  15
ENDBRANCH  11  13
ENDBRANCH   1  11
BRANCH   9  16
ATOM     16  S   UNL     1       0.010   4.541   0.591  0.00  0.00    -0.041 S 
BRANCH  16  17
ATOM     17  C   UNL     1       0.850   6.049   0.941  0.00  0.00    +0.166 A 
ATOM     18  N   UNL     1       2.141   6.269   1.101  0.00  0.00    -0.133 NA
ATOM     19  N   UNL     1       2.591   7.542   1.367  0.00  0.00    -0.125 NA
ATOM     20  C   UNL     1       1.728   8.534   1.471  0.00  0.00    +0.180 A 
ATOM     21  S   UNL     1       0.182   7.689   1.180  0.00  0.00    -0.024 S 
ATOM     22  N   UNL     1       1.960   9.878   1.736  0.00  0.00    -0.336 N 
ATOM     23  H   UNL     1       1.216  10.499   1.782  0.00  0.00    +0.144 HD
ATOM     24  H   UNL     1       2.866  10.196   1.875  0.00  0.00    +0.144 HD
ENDBRANCH  16  17
ENDBRANCH   9  16
BRANCH   7  25
ATOM     25  C   UNL     1       5.038   3.671   0.880  0.00  0.00    -0.001 C 
BRANCH  25  31
ATOM     26  C   UNL     1       5.861   2.957  -1.283  0.00  0.00    -0.050 C 
ATOM     27  C   UNL     1       6.394   3.459  -2.628  0.00  0.00    +0.141 C 
ATOM     28  O   UNL     1       7.568   4.244  -2.406  0.00  0.00    -0.383 OA
ATOM     29  C   UNL     1       7.355   5.372  -1.554  0.00  0.00    +0.141 C 
ATOM     30  C   UNL     1       6.832   4.890  -0.199  0.00  0.00    -0.050 C 
ATOM     31  N   UNL     1       5.587   4.123  -0.417  0.00  0.00    +0.387 N 
ATOM     32  H   UNL     1       4.898   4.728  -0.879  0.00  0.00    -0.081 HD
ENDBRANCH  25  31
ENDBRANCH   7  25
TORSDOF 7
