REMARK  Name = ZINC00940722
REMARK  5 active torsions:
REMARK  status: ('A' for Active; 'I' for Inactive)
REMARK    1  A    between atoms: C_1  and  C_2
REMARK    2  A    between atoms: C_3  and  C_27
REMARK    3  A    between atoms: C_4  and  C_19
REMARK    4  A    between atoms: C_10  and  C_12
REMARK    5  A    between atoms: C_22  and  C_25
REMARK                            x       y       z     vdW  Elec       q    Type
REMARK                         _______ _______ _______ _____ _____    ______ ____
ROOT
ATOM      1  C   UNL     1       0.460   1.362   0.000  0.00  0.00    +0.066 C 
ATOM      2  C   UNL     1       0.267  -0.132   0.026  0.00  0.00    +0.052 C 
ATOM      3  C   UNL     1      -1.004  -0.637   0.005  0.00  0.00    +0.061 C 
ATOM      4  C   UNL     1      -1.150  -2.148   0.033  0.00  0.00    +0.164 C 
ATOM      5  N   UNL     1       0.099  -2.917   0.078  0.00  0.00    -0.207 N 
ATOM      6  C   UNL     1       1.296  -2.240   0.093  0.00  0.00    +0.237 C 
ATOM      7  N   UNL     1       1.333  -0.917   0.062  0.00  0.00    -0.218 NA
ATOM      8  N   UNL     1       2.275  -3.158   0.135  0.00  0.00    -0.196 NA
ATOM      9  C   UNL     1       1.765  -4.373   0.147  0.00  0.00    +0.147 C 
ATOM     10  N   UNL     1       0.399  -4.281   0.113  0.00  0.00    -0.244 N 
ATOM     11  H   UNL     1      -0.234  -5.016   0.113  0.00  0.00    +0.172 HD
ENDROOT
BRANCH   9  12
ATOM     12  C   UNL     1       2.539  -5.628   0.191  0.00  0.00    +0.035 A 
ATOM     13  C   UNL     1       1.879  -6.860   0.194  0.00  0.00    +0.013 A 
ATOM     14  C   UNL     1       2.609  -8.029   0.235  0.00  0.00    +0.001 A 
ATOM     15  C   UNL     1       3.993  -7.985   0.273  0.00  0.00    +0.001 A 
ATOM     16  C   UNL     1       4.654  -6.770   0.270  0.00  0.00    +0.021 A 
ATOM     17  C   UNL     1       3.936  -5.591   0.224  0.00  0.00    +0.051 A 
ATOM     18 CL   UNL     1       4.767  -4.066   0.213  0.00  0.00    -0.083 Cl
ENDBRANCH   9  12
BRANCH   4  19
ATOM     19  C   UNL     1      -1.969  -2.519   1.242  0.00  0.00    -0.021 A 
ATOM     20  C   UNL     1      -1.433  -2.369   2.509  0.00  0.00    +0.007 A 
ATOM     21  C   UNL     1      -2.178  -2.707   3.620  0.00  0.00    +0.019 A 
ATOM     22  C   UNL     1      -3.475  -3.200   3.464  0.00  0.00    +0.052 A 
ATOM     23  C   UNL     1      -4.009  -3.348   2.183  0.00  0.00    +0.019 A 
ATOM     24  C   UNL     1      -3.256  -3.002   1.080  0.00  0.00    +0.007 A 
BRANCH  22  25
ATOM     25  C   UNL     1      -4.253  -3.553   4.613  0.00  0.00    +0.099 C 
ATOM     26  N   UNL     1      -4.870  -3.833   5.525  0.00  0.00    -0.191 NA
ENDBRANCH  22  25
ENDBRANCH   4  19
BRANCH   3  27
ATOM     27  C   UNL     1      -2.127   0.208  -0.038  0.00  0.00    +0.241 C 
ATOM     28  O   UNL     1      -1.987   1.415   0.057  0.00  0.00    -0.271 OA
ATOM     29  N   UNL     1      -3.360  -0.317  -0.184  0.00  0.00    -0.325 N 
ATOM     30  H   UNL     1      -3.480  -1.280  -0.190  0.00  0.00    +0.145 HD
ATOM     31  H   UNL     1      -4.128   0.268  -0.284  0.00  0.00    +0.145 HD
ENDBRANCH   3  27
TORSDOF 4
