REMARK  Name = ZINC66746071
REMARK  6 active torsions:
REMARK  status: ('A' for Active; 'I' for Inactive)
REMARK    1  A    between atoms: C_1  and  O_2
REMARK    2  A    between atoms: O_2  and  C_3
REMARK    3  A    between atoms: N_5  and  C_6
REMARK    4  A    between atoms: C_8  and  N_13
REMARK    5  A    between atoms: C_14  and  C_16
REMARK    6  A    between atoms: C_18  and  C_21
REMARK                            x       y       z     vdW  Elec       q    Type
REMARK                         _______ _______ _______ _____ _____    ______ ____
ROOT
ATOM      1  N   UNL     1      -6.066  -1.991   0.207  0.00  0.00    -0.280 N 
ATOM      2  C   UNL     1      -7.194  -2.606  -0.199  0.00  0.00    +0.270 C 
ATOM      3  O   UNL     1      -7.143  -3.731  -0.654  0.00  0.00    -0.268 OA
ATOM      4  H   UNL     1      -6.094  -1.063   0.491  0.00  0.00    +0.155 HD
ENDROOT
BRANCH   1   7
ATOM      5  C   UNL     1      -2.454  -2.697   0.113  0.00  0.00    +0.073 A 
ATOM      6  C   UNL     1      -3.654  -2.002   0.100  0.00  0.00    +0.049 A 
ATOM      7  C   UNL     1      -4.854  -2.689   0.219  0.00  0.00    +0.036 A 
ATOM      8  C   UNL     1      -4.850  -4.072   0.351  0.00  0.00    +0.026 A 
ATOM      9  C   UNL     1      -3.654  -4.764   0.364  0.00  0.00    +0.042 A 
ATOM     10  C   UNL     1      -2.457  -4.082   0.240  0.00  0.00    +0.145 A 
ATOM     11  F   UNL     1      -1.289  -4.761   0.248  0.00  0.00    -0.204 F 
BRANCH   5  14
ATOM     12  C   UNL     1      -1.107  -0.781   0.539  0.00  0.00    +0.404 C 
ATOM     13  O   UNL     1      -2.062  -0.241   1.062  0.00  0.00    -0.226 OA
ATOM     14  N   UNL     1      -1.242  -2.006  -0.007  0.00  0.00    -0.248 N 
ATOM     15  H   UNL     1      -0.499  -2.409  -0.483  0.00  0.00    +0.158 HD
BRANCH  12  17
ATOM     16  C   UNL     1       0.155   1.140   1.103  0.00  0.00    +0.282 C 
ATOM     17  O   UNL     1       0.085  -0.156   0.505  0.00  0.00    -0.453 OA
ENDBRANCH  12  17
ENDBRANCH   5  14
ENDBRANCH   1   7
BRANCH   2  18
ATOM     18  C   UNL     1      -8.499  -1.909  -0.090  0.00  0.00    +0.169 A 
ATOM     19  C   UNL     1      -9.751  -2.433  -0.469  0.00  0.00    +0.086 A 
ATOM     20  C   UNL     1     -10.697  -1.484  -0.211  0.00  0.00    +0.175 A 
ATOM     21  O   UNL     1     -10.074  -0.409   0.308  0.00  0.00    -0.353 OA
ATOM     22  N   UNL     1      -8.690  -0.698   0.381  0.00  0.00    -0.073 NA
BRANCH  20  23
ATOM     23  C   UNL     1     -12.141  -1.613  -0.456  0.00  0.00    +0.059 A 
ATOM     24  C   UNL     1     -13.149  -0.696  -0.224  0.00  0.00    +0.021 A 
ATOM     25  C   UNL     1     -14.441  -1.049  -0.538  0.00  0.00    +0.028 A 
ATOM     26  C   UNL     1     -14.684  -2.281  -1.062  0.00  0.00    +0.079 A 
ATOM     27  S   UNL     1     -13.049  -2.992  -1.136  0.00  0.00    -0.074 S 
ATOM     28 CL   UNL     1     -16.198  -2.980  -1.544  0.00  0.00    -0.076 Cl
ENDBRANCH  20  23
ENDBRANCH   2  18
TORSDOF 5
