REMARK  Name = ZINC35675016
REMARK  7 active torsions:
REMARK  status: ('A' for Active; 'I' for Inactive)
REMARK    1  A    between atoms: C_1  and  C_2
REMARK    2  A    between atoms: C_4  and  C_19
REMARK    3  A    between atoms: C_5  and  C_18
REMARK    4  A    between atoms: C_6  and  O_8
REMARK    5  A    between atoms: O_8  and  C_9
REMARK    6  A    between atoms: C_12  and  C_16
REMARK    7  A    between atoms: C_14  and  N_15
REMARK                            x       y       z     vdW  Elec       q    Type
REMARK                         _______ _______ _______ _____ _____    ______ ____
ROOT
ATOM      1  C   UNL     1       0.157  -2.067   3.512  0.00  0.00    +0.149 A 
ATOM      2  C   UNL     1       1.409  -1.785   4.039  0.00  0.00    +0.049 A 
ATOM      3  C   UNL     1       1.523  -1.066   5.209  0.00  0.00    +0.022 A 
ATOM      4  C   UNL     1       0.375  -0.618   5.869  0.00  0.00    +0.054 A 
ATOM      5  C   UNL     1      -0.887  -0.901   5.340  0.00  0.00    +0.045 A 
ATOM      6  C   UNL     1      -0.994  -1.619   4.162  0.00  0.00    +0.069 A 
ENDROOT
BRANCH   6   7
ATOM      7  N   UNL     1      -2.256  -1.901   3.626  0.00  0.00    -0.355 N 
ATOM      8  H   UNL     1      -2.330  -2.407   2.802  0.00  0.00    +0.142 HD
ATOM      9  H   UNL     1      -3.055  -1.589   4.079  0.00  0.00    +0.142 HD
ENDBRANCH   6   7
BRANCH   4  10
ATOM     10  C   UNL     1       0.492   0.128   7.086  0.00  0.00    +0.099 C 
ATOM     11  N   UNL     1       0.585   0.720   8.051  0.00  0.00    -0.191 NA
ENDBRANCH   4  10
BRANCH   1  12
ATOM     12  O   UNL     1       0.051  -2.776   2.358  0.00  0.00    -0.454 OA
BRANCH  12  18
ATOM     13  C   UNL     1       0.071   1.500   0.005  0.00  0.00    +0.044 C 
ATOM     14  C   UNL     1      -0.048  -0.002   0.006  0.00  0.00    -0.047 A 
ATOM     15  C   UNL     1      -0.262  -0.679  -1.181  0.00  0.00    +0.007 A 
ATOM     16  C   UNL     1      -0.372  -2.057  -1.183  0.00  0.00    -0.044 A 
ATOM     17  C   UNL     1      -0.268  -2.762   0.001  0.00  0.00    -0.005 A 
ATOM     18  C   UNL     1      -0.052  -2.085   1.192  0.00  0.00    +0.132 A 
ATOM     19  C   UNL     1       0.063  -0.702   1.191  0.00  0.00    +0.050 A 
ATOM     20  C   UNL     1      -0.388  -4.264  -0.003  0.00  0.00    +0.048 C 
ATOM     21  C   UNL     1      -0.606  -2.792  -2.478  0.00  0.00    +0.044 C 
ENDBRANCH  12  18
ENDBRANCH   1  12
TORSDOF 4
