REMARK  Name = ZINC39696978
REMARK  7 active torsions:
REMARK  status: ('A' for Active; 'I' for Inactive)
REMARK    1  A    between atoms: C_1  and  C_2
REMARK    2  A    between atoms: C_5  and  C_8
REMARK    3  A    between atoms: C_8  and  N_9
REMARK    4  A    between atoms: C_10  and  C_12
REMARK    5  A    between atoms: C_23  and  C_25
REMARK    6  A    between atoms: C_25  and  C_26
REMARK    7  A    between atoms: C_26  and  C_27
REMARK                            x       y       z     vdW  Elec       q    Type
REMARK                         _______ _______ _______ _____ _____    ______ ____
ROOT
ATOM      1  C   UNL     1      -2.947  -6.540  -0.338  0.00  0.00    +0.100 C 
ATOM      2  C   UNL     1      -3.748  -6.224   0.946  0.00  0.00    +0.121 C 
ATOM      3  N   UNL     1      -4.607  -7.414   1.153  0.00  0.00    -0.300 N 
ATOM      4  C   UNL     1      -3.740  -8.562   0.792  0.00  0.00    +0.115 C 
ATOM      5  C   UNL     1      -2.944  -8.074  -0.434  0.00  0.00    -0.004 C 
ATOM      6  C   UNL     1      -3.629  -8.524  -1.721  0.00  0.00    -0.010 C 
ATOM      7  C   UNL     1      -3.564 -10.051  -1.822  0.00  0.00    -0.082 C 
ATOM      8  N   UNL     1      -2.161 -10.483  -1.814  0.00  0.00    +0.379 N 
ATOM      9  C   UNL     1      -1.535 -10.129  -0.535  0.00  0.00    -0.082 C 
ATOM     10  C   UNL     1      -1.515  -8.605  -0.380  0.00  0.00    -0.010 C 
ATOM     11  C   UNL     1      -5.887  -7.445   1.573  0.00  0.00    +0.216 C 
ATOM     12  O   UNL     1      -6.460  -8.507   1.694  0.00  0.00    -0.276 OA
ATOM     13  H   UNL     1      -2.118 -11.483  -1.942  0.00  0.00    -0.086 HD
ATOM     14  H   UNL     1      -1.666 -10.029  -2.567  0.00  0.00    -0.086 HD
ENDROOT
BRANCH   1  16
ATOM     15  N   UNL     1      -0.858  -5.655  -1.324  0.00  0.00    -0.309 N 
ATOM     16  C   UNL     1      -1.538  -6.019  -0.218  0.00  0.00    +0.219 C 
ATOM     17  O   UNL     1      -1.016  -5.927   0.872  0.00  0.00    -0.275 OA
ATOM     18  H   UNL     1      -1.276  -5.728  -2.196  0.00  0.00    +0.149 HD
BRANCH  15  19
ATOM     19  C   UNL     1       0.512  -5.149  -1.208  0.00  0.00    +0.161 C 
BRANCH  19  24
ATOM     20  C   UNL     1       2.498  -3.840  -6.375  0.00  0.00    +0.067 C 
ATOM     21  C   UNL     1       1.968  -4.173  -5.004  0.00  0.00    +0.056 A 
ATOM     22  C   UNL     1       2.054  -5.468  -4.525  0.00  0.00    +0.134 A 
ATOM     23  N   UNL     1       1.590  -5.760  -3.323  0.00  0.00    -0.255 NA
ATOM     24  C   UNL     1       1.042  -4.815  -2.578  0.00  0.00    +0.076 A 
ATOM     25  C   UNL     1       0.956  -3.521  -3.058  0.00  0.00    +0.136 A 
ATOM     26  N   UNL     1       1.425  -3.227  -4.258  0.00  0.00    -0.257 NA
ENDBRANCH  19  24
ENDBRANCH  15  19
ENDBRANCH   1  16
BRANCH  11  27
ATOM     27  C   UNL     1      -6.606  -6.160   1.893  0.00  0.00    +0.096 C 
BRANCH  27  28
ATOM     28  C   UNL     1      -8.034  -6.474   2.344  0.00  0.00    +0.013 C 
BRANCH  28  29
ATOM     29  C   UNL     1      -8.765  -5.170   2.669  0.00  0.00    -0.011 C 
ATOM     30  C   UNL     1      -8.148  -4.517   3.923  0.00  0.00    +0.003 C 
ATOM     31  C   UNL     1      -9.361  -3.910   4.671  0.00  0.00    +0.000 C 
ATOM     32  C   UNL     1     -10.466  -4.974   4.450  0.00  0.00    +0.000 C 
ATOM     33  C   UNL     1     -10.238  -5.460   3.004  0.00  0.00    +0.003 C 
ENDBRANCH  28  29
ENDBRANCH  27  28
ENDBRANCH  11  27
TORSDOF 6
