REMARK  Name = ZINC24216909
REMARK  7 active torsions:
REMARK  status: ('A' for Active; 'I' for Inactive)
REMARK    1  A    between atoms: C_2  and  C_3
REMARK    2  A    between atoms: C_3  and  N_4
REMARK    3  A    between atoms: N_4  and  C_5
REMARK    4  A    between atoms: N_4  and  S_14
REMARK    5  A    between atoms: C_5  and  C_6
REMARK    6  A    between atoms: S_14  and  C_17
REMARK    7  A    between atoms: C_21  and  C_23
REMARK                            x       y       z     vdW  Elec       q    Type
REMARK                         _______ _______ _______ _____ _____    ______ ____
ROOT
ATOM      1  N   UNL     1      -0.096   6.099  -1.549  0.00  0.00    -0.166 NA
ENDROOT
BRANCH   1   2
ATOM      2  S   UNL     1      -0.074   5.602   0.031  0.00  0.00    +0.062 S 
ATOM      3  O   UNL     1      -1.319   5.989   0.596  0.00  0.00    -0.153 OA
ATOM      4  O   UNL     1       1.171   6.022   0.572  0.00  0.00    -0.153 OA
BRANCH   2   5
ATOM      5  C   UNL     1      -0.050   3.840   0.022  0.00  0.00    +0.106 A 
ATOM      6  C   UNL     1       1.157   3.165   0.008  0.00  0.00    +0.028 A 
ATOM      7  C   UNL     1       1.175   1.783   0.000  0.00  0.00    +0.002 A 
ATOM      8  C   UNL     1      -0.013   1.076   0.008  0.00  0.00    +0.012 A 
ATOM      9  C   UNL     1      -1.219   1.750   0.017  0.00  0.00    +0.057 A 
ATOM     10  C   UNL     1      -1.238   3.133   0.030  0.00  0.00    +0.041 A 
BRANCH   9  11
ATOM     11  C   UNL     1      -2.514   0.979   0.019  0.00  0.00    +0.417 C 
ATOM     12  F   UNL     1      -2.239  -0.392   0.010  0.00  0.00    -0.166 F 
ATOM     13  F   UNL     1      -3.246   1.301   1.167  0.00  0.00    -0.166 F 
ATOM     14  F   UNL     1      -3.257   1.314  -1.118  0.00  0.00    -0.166 F 
ENDBRANCH   9  11
ENDBRANCH   2   5
ENDBRANCH   1   2
BRANCH   1  15
ATOM     15  C   UNL     1       1.163   6.336  -2.259  0.00  0.00    +0.136 C 
BRANCH  15  17
ATOM     16  C   UNL     1       1.773   5.173  -4.318  0.00  0.00    +0.005 C 
ATOM     17  C   UNL     1       1.546   5.099  -3.030  0.00  0.00    -0.018 C 
ENDBRANCH  15  17
ENDBRANCH   1  15
BRANCH   1  18
ATOM     18  C   UNL     1      -1.374   6.302  -2.235  0.00  0.00    +0.186 C 
BRANCH  18  19
ATOM     19  C   UNL     1      -1.766   7.754  -2.148  0.00  0.00    +0.152 A 
ATOM     20  N   UNL     1      -2.501   8.179  -1.135  0.00  0.00    -0.198 NA
ATOM     21  C   UNL     1      -2.845   9.462  -1.053  0.00  0.00    +0.217 A 
ATOM     22  N   UNL     1      -2.458  10.314  -1.996  0.00  0.00    -0.181 NA
ATOM     23  C   UNL     1      -1.724   9.882  -3.016  0.00  0.00    +0.217 A 
ATOM     24  N   UNL     1      -1.379   8.598  -3.088  0.00  0.00    -0.198 NA
ATOM     25  N   UNL     1      -1.319  10.763  -3.998  0.00  0.00    -0.327 N 
ATOM     26  N   UNL     1      -3.608   9.906   0.008  0.00  0.00    -0.327 N 
ATOM     27  H   UNL     1      -0.712  10.405  -4.842  0.00  0.00    +0.145 HD
ATOM     28  H   UNL     1      -1.605  11.824  -3.937  0.00  0.00    +0.145 HD
ATOM     29  H   UNL     1      -3.892  10.966   0.075  0.00  0.00    +0.145 HD
ATOM     30  H   UNL     1      -3.932   9.199   0.786  0.00  0.00    +0.145 HD
ENDBRANCH  18  19
ENDBRANCH   1  18
TORSDOF 7
