REMARK  Name = ZINC39457666
REMARK  7 active torsions:
REMARK  status: ('A' for Active; 'I' for Inactive)
REMARK    1  A    between atoms: C_1  and  C_2
REMARK    2  A    between atoms: C_3  and  C_28
REMARK    3  A    between atoms: C_10  and  S_18
REMARK    4  A    between atoms: S_18  and  C_21
REMARK    5  A    between atoms: C_21  and  C_22
REMARK    6  A    between atoms: C_21  and  C_23
REMARK    7  A    between atoms: C_33  and  O_34
REMARK                            x       y       z     vdW  Elec       q    Type
REMARK                         _______ _______ _______ _____ _____    ______ ____
ROOT
ATOM      1  C   UNL     1      -1.271   0.813  -1.031  0.00  0.00    +0.068 C 
ATOM      2  C   UNL     1      -1.065  -0.650  -0.736  0.00  0.00    +0.068 A 
ATOM      3  C   UNL     1      -1.226  -1.675  -1.625  0.00  0.00    +0.013 A 
ATOM      4  C   UNL     1      -0.938  -2.871  -0.946  0.00  0.00    -0.008 A 
ATOM      5  C   UNL     1      -0.595  -2.530   0.337  0.00  0.00    +0.115 A 
ATOM      6  N   UNL     1      -0.683  -1.174   0.462  0.00  0.00    -0.134 N 
ATOM      7  O   UNL     1      -0.422  -0.435   1.641  0.00  0.00    -0.164 OA
ATOM      8  C   UNL     1      -0.182  -3.533   1.337  0.00  0.00    +0.104 A 
ATOM      9  C   UNL     1       0.766  -4.560   0.881  0.00  0.00    +0.070 A 
ATOM     10  C   UNL     1       1.159  -5.551   1.764  0.00  0.00    +0.110 A 
ATOM     11  C   UNL     1       0.639  -5.507   3.072  0.00  0.00    +0.026 A 
ATOM     12  C   UNL     1       0.996  -6.489   4.014  0.00  0.00    +0.012 A 
ATOM     13  C   UNL     1       0.497  -6.424   5.279  0.00  0.00    +0.001 A 
ATOM     14  C   UNL     1      -0.367  -5.397   5.654  0.00  0.00    +0.002 A 
ATOM     15  C   UNL     1      -0.739  -4.434   4.768  0.00  0.00    +0.028 A 
ATOM     16  C   UNL     1      -0.249  -4.468   3.449  0.00  0.00    +0.074 A 
ATOM     17  N   UNL     1      -0.627  -3.530   2.571  0.00  0.00    -0.244 NA
ATOM     18  C   UNL     1       1.275  -4.479  -0.488  0.00  0.00    +0.167 C 
ATOM     19  O   UNL     1       2.413  -4.105  -0.680  0.00  0.00    -0.292 OA
ATOM     20  C   UNL     1       0.408  -4.853  -1.668  0.00  0.00    +0.084 C 
ATOM     21  C   UNL     1      -1.000  -4.278  -1.468  0.00  0.00    +0.046 C 
ENDROOT
BRANCH   3  22
ATOM     22  C   UNL     1      -1.630  -1.548  -3.048  0.00  0.00    +0.026 A 
ATOM     23  C   UNL     1      -0.663  -1.398  -4.039  0.00  0.00    +0.012 A 
ATOM     24  C   UNL     1      -1.044  -1.280  -5.361  0.00  0.00    +0.001 A 
ATOM     25  C   UNL     1      -2.384  -1.311  -5.705  0.00  0.00    +0.004 A 
ATOM     26  C   UNL     1      -3.351  -1.460  -4.729  0.00  0.00    +0.046 A 
ATOM     27  C   UNL     1      -2.982  -1.585  -3.399  0.00  0.00    +0.125 A 
BRANCH  27  28
ATOM     28  O   UNL     1      -3.932  -1.737  -2.439  0.00  0.00    -0.506 OA
ATOM     29  H   UNL     1      -4.255  -0.904  -2.070  0.00  0.00    +0.292 HD
ENDBRANCH  27  28
ENDBRANCH   3  22
BRANCH  10  30
ATOM     30  S   UNL     1       2.272  -6.824   1.269  0.00  0.00    +0.001 S 
ATOM     31  O   UNL     1       2.774  -6.397   0.010  0.00  0.00    -0.169 OA
ATOM     32  O   UNL     1       3.145  -6.993   2.377  0.00  0.00    -0.169 OA
BRANCH  30  33
ATOM     33  C   UNL     1       1.234  -8.296   1.061  0.00  0.00    +0.130 C 
ATOM     34  C   UNL     1       0.172  -8.025  -0.008  0.00  0.00    +0.032 C 
ATOM     35  C   UNL     1       2.104  -9.477   0.627  0.00  0.00    +0.032 C 
ENDBRANCH  30  33
ENDBRANCH  10  30
TORSDOF 4
