REMARK  Name = ZINC66397243
REMARK  9 active torsions:
REMARK  status: ('A' for Active; 'I' for Inactive)
REMARK    1  A    between atoms: C_1  and  C_2
REMARK    2  A    between atoms: C_2  and  C_3
REMARK    3  A    between atoms: C_2  and  C_4
REMARK    4  A    between atoms: C_2  and  C_5
REMARK    5  A    between atoms: C_8  and  C_11
REMARK    6  A    between atoms: C_11  and  C_13
REMARK    7  A    between atoms: C_11  and  N_15
REMARK    8  A    between atoms: C_16  and  C_18
REMARK    9  A    between atoms: C_19  and  C_20
REMARK                            x       y       z     vdW  Elec       q    Type
REMARK                         _______ _______ _______ _____ _____    ______ ____
ROOT
ATOM      1  C   UNL     1       2.707  -1.868  -4.752  0.00  0.00    +0.207 C 
ENDROOT
BRANCH   1   5
ATOM      2  C   UNL     1       0.707  -0.490  -1.238  0.00  0.00    -0.042 A 
ATOM      3  C   UNL     1       0.036  -1.284  -2.148  0.00  0.00    +0.004 A 
ATOM      4  C   UNL     1       0.683  -1.730  -3.286  0.00  0.00    +0.007 A 
ATOM      5  C   UNL     1       2.001  -1.381  -3.513  0.00  0.00    -0.013 A 
ATOM      6  C   UNL     1       2.672  -0.586  -2.603  0.00  0.00    +0.007 A 
ATOM      7  C   UNL     1       2.024  -0.137  -1.467  0.00  0.00    +0.004 A 
BRANCH   2   9
ATOM      8  C   UNL     1      -0.019   1.526   0.010  0.00  0.00    +0.015 C 
ATOM      9  C   UNL     1       0.002  -0.004   0.002  0.00  0.00    -0.013 C 
ATOM     10  C   UNL     1       0.742  -0.511   1.242  0.00  0.00    +0.015 C 
ATOM     11  C   UNL     1      -1.433  -0.534   0.013  0.00  0.00    +0.015 C 
ENDBRANCH   2   9
ENDBRANCH   1   5
BRANCH   1  12
ATOM     12  N   UNL     1       3.548  -0.795  -5.289  0.00  0.00    -0.293 N 
ATOM     13  C   UNL     1       3.868  -0.781  -6.598  0.00  0.00    +0.238 C 
ATOM     14  O   UNL     1       3.459  -1.659  -7.334  0.00  0.00    -0.271 OA
ATOM     15  H   UNL     1       3.874  -0.095  -4.702  0.00  0.00    +0.151 HD
BRANCH  13  16
ATOM     16  C   UNL     1       4.710   0.294  -7.135  0.00  0.00    +0.069 C 
ATOM     17  C   UNL     1       5.030   0.308  -8.443  0.00  0.00    +0.034 C 
BRANCH  17  18
ATOM     18  C   UNL     1       5.875   1.387  -8.983  0.00  0.00    +0.082 A 
ATOM     19  C   UNL     1       6.204   1.408 -10.342  0.00  0.00    +0.138 A 
ATOM     20  N   UNL     1       6.962   2.378 -10.819  0.00  0.00    -0.260 NA
ATOM     21  C   UNL     1       7.408   3.328 -10.015  0.00  0.00    +0.130 A 
ATOM     22  C   UNL     1       7.084   3.311  -8.667  0.00  0.00    +0.131 A 
ATOM     23  N   UNL     1       6.324   2.350  -8.179  0.00  0.00    -0.253 NA
ENDBRANCH  17  18
ENDBRANCH  13  16
ENDBRANCH   1  12
BRANCH   1  24
ATOM     24  C   UNL     1       3.548  -3.028  -4.414  0.00  0.00    +0.090 C 
ATOM     25  N   UNL     1       4.197  -3.923  -4.154  0.00  0.00    -0.194 NA
ENDBRANCH   1  24
TORSDOF 6
