REMARK  Name = ZINC28286712
REMARK  6 active torsions:
REMARK  status: ('A' for Active; 'I' for Inactive)
REMARK    1  A    between atoms: C_1  and  C_2
REMARK    2  A    between atoms: C_2  and  O_3
REMARK    3  A    between atoms: O_3  and  C_4
REMARK    4  A    between atoms: C_4  and  C_6
REMARK    5  A    between atoms: C_10  and  N_11
REMARK    6  A    between atoms: N_14  and  C_15
REMARK                            x       y       z     vdW  Elec       q    Type
REMARK                         _______ _______ _______ _____ _____    ______ ____
ROOT
ATOM      1  C   UNL     1       1.322   2.063   0.011  0.00  0.00    +0.068 A 
ATOM      2  C   UNL     1       2.286   0.978  -0.008  0.00  0.00    -0.023 A 
ATOM      3  C   UNL     1       1.753  -0.264  -0.020  0.00  0.00    -0.004 A 
ATOM      4  S   UNL     1       0.002  -0.004  -0.006  0.00  0.00    -0.077 S 
ATOM      5  C   UNL     1      -0.021   1.729   0.015  0.00  0.00    +0.086 A 
ATOM      6  C   UNL     1       2.495  -1.565  -0.041  0.00  0.00    +0.043 C 
ATOM      7  C   UNL     1       3.955  -1.283  -0.425  0.00  0.00    +0.005 C 
ATOM      8  C   UNL     1       4.472  -0.117   0.423  0.00  0.00    +0.005 C 
ATOM      9  C   UNL     1       3.796   1.184  -0.014  0.00  0.00    +0.037 C 
ENDROOT
BRANCH   5  10
ATOM     10  N   UNL     1      -1.121   2.577   0.028  0.00  0.00    -0.263 N 
ATOM     11  C   UNL     1      -2.368   2.063   0.024  0.00  0.00    +0.308 C 
ATOM     12  O   UNL     1      -2.529   0.859   0.010  0.00  0.00    -0.252 OA
ATOM     13  N   UNL     1      -3.435   2.886   0.035  0.00  0.00    -0.269 N 
ATOM     14  H   UNL     1      -0.976   3.667   0.040  0.00  0.00    +0.157 HD
ATOM     15  H   UNL     1      -3.291   3.973   0.125  0.00  0.00    +0.156 HD
BRANCH  13  16
ATOM     16  C   UNL     1      -4.727   2.358  -0.066  0.00  0.00    +0.036 A 
ATOM     17  C   UNL     1      -5.713   3.058  -0.749  0.00  0.00    +0.023 A 
ATOM     18  C   UNL     1      -6.986   2.532  -0.852  0.00  0.00    +0.003 A 
ATOM     19  C   UNL     1      -7.282   1.314  -0.267  0.00  0.00    +0.020 A 
ATOM     20  C   UNL     1      -6.304   0.617   0.419  0.00  0.00    +0.043 A 
ATOM     21  C   UNL     1      -5.026   1.136   0.520  0.00  0.00    +0.043 A 
ATOM     22 CL   UNL     1      -6.680  -0.911   1.152  0.00  0.00    -0.083 Cl
ENDBRANCH  13  16
ENDBRANCH   5  10
BRANCH   1  23
ATOM     23  C   UNL     1       1.758   3.468   0.025  0.00  0.00    +0.217 C 
ATOM     24  N   UNL     1       1.958   4.078   1.161  0.00  0.00    -0.267 NA
ATOM     25  H   UNL     1       1.801   3.541   2.108  0.00  0.00    +0.190 HD
BRANCH  23  26
ATOM     26  O   UNL     1       1.950   4.128  -1.140  0.00  0.00    -0.477 OA
BRANCH  26  28
ATOM     27  C   UNL     1       2.537   6.066  -2.460  0.00  0.00    +0.048 C 
ATOM     28  C   UNL     1       2.373   5.490  -1.052  0.00  0.00    +0.227 C 
ENDBRANCH  26  28
ENDBRANCH  23  26
ENDBRANCH   1  23
TORSDOF 5
