REMARK  Name = ZINC39969907
REMARK  2 active torsions:
REMARK  status: ('A' for Active; 'I' for Inactive)
REMARK    1  A    between atoms: C_1  and  C_2
REMARK    2  A    between atoms: C_7  and  C_8
REMARK                            x       y       z     vdW  Elec       q    Type
REMARK                         _______ _______ _______ _____ _____    ______ ____
ROOT
ATOM      1  C   UNL     1       0.243   0.050   2.491  0.00  0.00    +0.047 C 
ATOM      2  C   UNL     1       1.615  -0.214   3.119  0.00  0.00    +0.105 C 
ATOM      3  C   UNL     1       1.655   0.258   4.542  0.00  0.00    +0.219 C 
ATOM      4  O   UNL     1       2.737   0.455   5.050  0.00  0.00    -0.275 OA
ATOM      5  N   UNL     1       0.559   0.475   5.283  0.00  0.00    -0.273 N 
ATOM      6  C   UNL     1      -0.689   0.347   4.744  0.00  0.00    +0.117 C 
ATOM      7  N   UNL     1      -1.722   0.896   5.318  0.00  0.00    -0.205 NA
ATOM      8  C   UNL     1      -2.937   0.888   4.758  0.00  0.00    +0.206 C 
ATOM      9  N   UNL     1      -3.161   0.358   3.565  0.00  0.00    -0.147 NA
ATOM     10  C   UNL     1      -2.205  -0.263   2.888  0.00  0.00    +0.250 C 
ATOM     11  O   UNL     1      -2.445  -0.698   1.779  0.00  0.00    -0.273 OA
ATOM     12  C   UNL     1      -0.834  -0.436   3.464  0.00  0.00    +0.148 C 
ATOM     13  N   UNL     1      -3.983   1.445   5.441  0.00  0.00    -0.329 N 
ATOM     14  H   UNL     1       0.654   0.726   6.215  0.00  0.00    +0.156 HD
ATOM     15  H   UNL     1      -3.838   1.837   6.316  0.00  0.00    +0.145 HD
ATOM     16  H   UNL     1      -4.871   1.447   5.050  0.00  0.00    +0.145 HD
ENDROOT
BRANCH   1  23
ATOM     17  C   UNL     1      -0.070   1.502   0.013  0.00  0.00    +0.044 C 
ATOM     18  C   UNL     1      -0.022  -0.005   0.003  0.00  0.00    -0.047 A 
ATOM     19  C   UNL     1      -0.123  -0.692  -1.192  0.00  0.00    +0.003 A 
ATOM     20  C   UNL     1      -0.080  -2.073  -1.201  0.00  0.00    +0.000 A 
ATOM     21  C   UNL     1       0.065  -2.768  -0.014  0.00  0.00    +0.000 A 
ATOM     22  C   UNL     1       0.166  -2.081   1.181  0.00  0.00    +0.004 A 
ATOM     23  C   UNL     1       0.127  -0.699   1.189  0.00  0.00    -0.040 A 
ENDBRANCH   1  23
TORSDOF 1
