REMARK  Name = ZINC05055768
REMARK  4 active torsions:
REMARK  status: ('A' for Active; 'I' for Inactive)
REMARK    1  A    between atoms: C_1  and  N_2
REMARK    2  A    between atoms: C_3  and  C_5
REMARK    3  A    between atoms: C_9  and  N_10
REMARK    4  A    between atoms: C_11  and  C_13
REMARK                            x       y       z     vdW  Elec       q    Type
REMARK                         _______ _______ _______ _____ _____    ______ ____
ROOT
ATOM      1  C   UNL     1       2.999  -1.642   1.746  0.00  0.00    +0.069 A 
ATOM      2  C   UNL     1       2.179  -0.684   1.016  0.00  0.00    -0.023 A 
ATOM      3  C   UNL     1       2.847   0.061   0.110  0.00  0.00    -0.004 A 
ATOM      4  S   UNL     1       4.530  -0.479   0.225  0.00  0.00    -0.077 S 
ATOM      5  C   UNL     1       4.353  -1.687   1.453  0.00  0.00    +0.085 A 
ATOM      6  C   UNL     1       2.288   1.105  -0.807  0.00  0.00    +0.043 C 
ATOM      7  C   UNL     1       1.406   2.068  -0.000  0.00  0.00    +0.005 C 
ATOM      8  C   UNL     1      -0.019   1.523   0.010  0.00  0.00    +0.001 C 
ATOM      9  C   UNL     1       0.002  -0.004   0.002  0.00  0.00    +0.005 C 
ATOM     10  C   UNL     1       0.683  -0.535   1.259  0.00  0.00    +0.037 C 
ENDROOT
BRANCH   1  13
ATOM     11  C   UNL     1       1.760  -3.017   5.053  0.00  0.00    +0.128 C 
ATOM     12  N   UNL     1       2.346  -2.132   4.043  0.00  0.00    -0.314 N 
ATOM     13  C   UNL     1       2.412  -2.527   2.756  0.00  0.00    +0.246 C 
ATOM     14  O   UNL     1       1.983  -3.620   2.433  0.00  0.00    -0.270 OA
ATOM     15  H   UNL     1       2.688  -1.261   4.301  0.00  0.00    +0.149 HD
ENDBRANCH   1  13
BRANCH   5  16
ATOM     16  N   UNL     1       5.327  -2.501   2.008  0.00  0.00    -0.275 N 
ATOM     17  C   UNL     1       6.606  -2.402   1.592  0.00  0.00    +0.249 C 
ATOM     18  O   UNL     1       6.903  -1.598   0.730  0.00  0.00    -0.270 OA
ATOM     19  H   UNL     1       5.090  -3.142   2.696  0.00  0.00    +0.156 HD
BRANCH  17  20
ATOM     20  C   UNL     1       7.645  -3.270   2.184  0.00  0.00    +0.040 A 
ATOM     21  C   UNL     1       7.307  -4.189   3.178  0.00  0.00    +0.033 A 
ATOM     22  C   UNL     1       8.282  -5.001   3.724  0.00  0.00    +0.043 A 
ATOM     23  C   UNL     1       9.594  -4.897   3.294  0.00  0.00    +0.040 A 
ATOM     24  C   UNL     1       9.936  -3.982   2.312  0.00  0.00    +0.043 A 
ATOM     25  C   UNL     1       8.970  -3.169   1.755  0.00  0.00    +0.033 A 
ATOM     26 CL   UNL     1      11.584  -3.859   1.780  0.00  0.00    -0.083 Cl
ATOM     27 CL   UNL     1       7.863  -6.149   4.956  0.00  0.00    -0.083 Cl
ENDBRANCH  17  20
ENDBRANCH   5  16
TORSDOF 3
