REMARK  Name = ZINC45135001
REMARK  6 active torsions:
REMARK  status: ('A' for Active; 'I' for Inactive)
REMARK    1  A    between atoms: C_1  and  C_2
REMARK    2  A    between atoms: C_2  and  C_21
REMARK    3  A    between atoms: C_4  and  N_6
REMARK    4  A    between atoms: N_6  and  S_7
REMARK    5  A    between atoms: S_7  and  C_10
REMARK    6  A    between atoms: C_14  and  C_17
REMARK                            x       y       z     vdW  Elec       q    Type
REMARK                         _______ _______ _______ _____ _____    ______ ____
ROOT
ATOM      1  C   UNL     1       2.370  -1.883   3.740  0.00  0.00    +0.142 A 
ATOM      2  C   UNL     1       3.480  -1.911   4.563  0.00  0.00    +0.046 A 
ATOM      3  C   UNL     1       4.321  -3.011   4.567  0.00  0.00    +0.021 A 
ATOM      4  C   UNL     1       4.058  -4.089   3.748  0.00  0.00    +0.033 A 
ATOM      5  C   UNL     1       2.938  -4.071   2.912  0.00  0.00    +0.101 A 
ATOM      6  C   UNL     1       2.089  -2.958   2.917  0.00  0.00    +0.164 A 
ATOM      7  F   UNL     1       1.001  -2.932   2.116  0.00  0.00    -0.203 F 
ATOM      8 BR   UNL     1       5.836  -3.036   5.700  0.00  0.00    -0.050 Br
ENDROOT
BRANCH   1   9
ATOM      9  S   UNL     1       1.308  -0.477   3.744  0.00  0.00    +0.061 S 
ATOM     10  O   UNL     1       1.865   0.451   4.664  0.00  0.00    -0.153 OA
ATOM     11  O   UNL     1      -0.019  -0.971   3.869  0.00  0.00    -0.153 OA
BRANCH   9  12
ATOM     12  N   UNL     1       1.413   0.221   2.245  0.00  0.00    -0.186 NA
ATOM     13  H   UNL     1       0.636   0.243   1.665  0.00  0.00    +0.148 HD
BRANCH  12  17
ATOM     14  C   UNL     1       2.033  -0.057  -0.588  0.00  0.00    +0.012 C 
ATOM     15  C   UNL     1       3.031   0.673   0.313  0.00  0.00    -0.016 C 
ATOM     16  C   UNL     1       2.608   2.029   0.882  0.00  0.00    +0.029 C 
ATOM     17  C   UNL     1       2.679   0.804   1.797  0.00  0.00    +0.083 C 
ATOM     18  C   UNL     1       4.506   0.487  -0.049  0.00  0.00    +0.012 C 
ENDBRANCH  12  17
ENDBRANCH   9  12
ENDBRANCH   1   9
BRANCH   5  19
ATOM     19  C   UNL     1       2.651  -5.218   2.033  0.00  0.00    +0.389 C 
ATOM     20  O   UNL     1       3.393  -6.190   2.034  0.00  0.00    -0.240 OA
ATOM     21  O   UNL     1       1.670  -5.198   1.302  0.00  0.00    -0.240 OA
ENDBRANCH   5  19
TORSDOF 4
