REMARK  Name = ZINC47873445
REMARK  3 active torsions:
REMARK  status: ('A' for Active; 'I' for Inactive)
REMARK    1  A    between atoms: C_1  and  C_2
REMARK    2  A    between atoms: C_2  and  C_3
REMARK    3  A    between atoms: C_9  and  N_11
REMARK                            x       y       z     vdW  Elec       q    Type
REMARK                         _______ _______ _______ _____ _____    ______ ____
ROOT
ATOM      1  N   UNL     1       1.270  -2.607   0.097  0.00  0.00    -0.324 N 
ATOM      2  C   UNL     1       0.887  -3.854  -0.348  0.00  0.00    +0.150 C 
ATOM      3  N   UNL     1      -0.018  -4.527   0.289  0.00  0.00    -0.113 NA
ATOM      4  S   UNL     1      -0.196  -5.963  -0.552  0.00  0.00    +0.101 S 
ATOM      5  O   UNL     1       0.288  -7.012   0.275  0.00  0.00    -0.146 OA
ATOM      6  O   UNL     1      -1.489  -5.962  -1.141  0.00  0.00    -0.146 OA
ATOM      7  C   UNL     1       0.987  -5.706  -1.846  0.00  0.00    +0.123 A 
ATOM      8  C   UNL     1       1.498  -4.433  -1.554  0.00  0.00    +0.043 A 
ATOM      9  C   UNL     1       2.480  -3.919  -2.414  0.00  0.00    +0.013 A 
ATOM     10  C   UNL     1       2.906  -4.652  -3.500  0.00  0.00    +0.001 A 
ATOM     11  C   UNL     1       2.380  -5.903  -3.765  0.00  0.00    +0.002 A 
ATOM     12  C   UNL     1       1.414  -6.431  -2.919  0.00  0.00    +0.030 A 
ATOM     13  H   UNL     1       1.945  -2.106  -0.387  0.00  0.00    +0.148 HD
ENDROOT
BRANCH   1  19
ATOM     14  C   UNL     1       0.742  -0.511   1.242  0.00  0.00    +0.009 C 
ATOM     15  C   UNL     1       2.210  -0.086   1.169  0.00  0.00    +0.005 C 
ATOM     16  C   UNL     1       2.950  -0.593   2.408  0.00  0.00    +0.000 C 
ATOM     17  C   UNL     1       2.863  -2.119   2.465  0.00  0.00    +0.002 C 
ATOM     18  C   UNL     1       1.395  -2.544   2.538  0.00  0.00    +0.022 C 
ATOM     19  C   UNL     1       0.655  -2.037   1.299  0.00  0.00    +0.075 C 
BRANCH  14  21
ATOM     20  C   UNL     1      -0.019   1.526   0.010  0.00  0.00    +0.004 C 
ATOM     21  C   UNL     1       0.002  -0.004   0.002  0.00  0.00    +0.002 C 
ENDBRANCH  14  21
ENDBRANCH   1  19
TORSDOF 2
