REMARK  Name = ZINC04515374
REMARK  4 active torsions:
REMARK  status: ('A' for Active; 'I' for Inactive)
REMARK    1  A    between atoms: C_1  and  C_2
REMARK    2  A    between atoms: N_11  and  C_15
REMARK    3  A    between atoms: C_15  and  C_16
REMARK    4  A    between atoms: N_18  and  C_19
REMARK                            x       y       z     vdW  Elec       q    Type
REMARK                         _______ _______ _______ _____ _____    ______ ____
ROOT
ATOM      1  C   UNL     1      -2.132   7.259  -0.950  0.00  0.00    +0.213 C 
ENDROOT
BRANCH   1  11
ATOM      2  C   UNL     1      -2.932  10.817  -3.471  0.00  0.00    +0.010 C 
ATOM      3  C   UNL     1      -3.099   9.910  -4.692  0.00  0.00    +0.018 C 
ATOM      4  C   UNL     1      -1.823   9.955  -5.538  0.00  0.00    +0.006 C 
ATOM      5  C   UNL     1      -1.983   9.032  -6.748  0.00  0.00    +0.000 C 
ATOM      6  C   UNL     1      -2.216   7.598  -6.269  0.00  0.00    +0.003 C 
ATOM      7  C   UNL     1      -3.492   7.543  -5.426  0.00  0.00    +0.035 C 
ATOM      8  C   UNL     1      -3.356   8.480  -4.231  0.00  0.00    +0.115 C 
ATOM      9  C   UNL     1      -2.246   8.017  -3.316  0.00  0.00    +0.247 C 
ATOM     10  O   UNL     1      -1.069   7.910  -3.586  0.00  0.00    -0.273 OA
ATOM     11  N   UNL     1      -2.841   7.744  -2.136  0.00  0.00    -0.215 N 
ATOM     12  C   UNL     1      -4.158   7.978  -2.183  0.00  0.00    +0.310 C 
ATOM     13  O   UNL     1      -4.908   7.810  -1.242  0.00  0.00    -0.252 OA
ATOM     14  N   UNL     1      -4.559   8.419  -3.391  0.00  0.00    -0.285 N 
ATOM     15  H   UNL     1      -5.463   8.651  -3.653  0.00  0.00    +0.151 HD
ENDBRANCH   1  11
BRANCH   1  16
ATOM     16  C   UNL     1      -2.112   5.752  -0.958  0.00  0.00    +0.231 C 
ATOM     17  O   UNL     1      -2.637   5.143  -1.866  0.00  0.00    -0.274 OA
ATOM     18  N   UNL     1      -1.510   5.081   0.044  0.00  0.00    -0.308 N 
ATOM     19  H   UNL     1      -1.089   5.567   0.770  0.00  0.00    +0.149 HD
BRANCH  18  20
ATOM     20  C   UNL     1      -1.490   3.616   0.036  0.00  0.00    +0.035 C 
ATOM     21  C   UNL     1      -0.773   3.123  -1.223  0.00  0.00    +0.029 C 
ATOM     22  C   UNL     1      -0.753   1.593  -1.232  0.00  0.00    -0.008 C 
ATOM     23  C   UNL     1      -0.013   1.086   0.008  0.00  0.00    +0.007 C 
ATOM     24  C   UNL     1      -0.729   1.579   1.267  0.00  0.00    -0.008 C 
ATOM     25  C   UNL     1      -0.750   3.109   1.275  0.00  0.00    +0.029 C 
ATOM     26  C   UNL     1      -2.164   1.050   1.278  0.00  0.00    +0.007 C 
ATOM     27  C   UNL     1      -2.904   1.556   0.038  0.00  0.00    -0.008 C 
ATOM     28  C   UNL     1      -2.188   1.063  -1.221  0.00  0.00    +0.007 C 
ATOM     29  C   UNL     1      -2.925   3.086   0.047  0.00  0.00    +0.029 C 
ENDBRANCH  18  20
ENDBRANCH   1  16
TORSDOF 3
