REMARK  Name = ZINC21846685
REMARK  3 active torsions:
REMARK  status: ('A' for Active; 'I' for Inactive)
REMARK    1  A    between atoms: C_3  and  N_17
REMARK    2  A    between atoms: C_6  and  C_7
REMARK    3  A    between atoms: C_18  and  C_20
REMARK                            x       y       z     vdW  Elec       q    Type
REMARK                         _______ _______ _______ _____ _____    ______ ____
ROOT
ATOM      1  C   UNL     1      -5.995  -1.046   0.099  0.00  0.00    +0.006 A 
ATOM      2  C   UNL     1      -4.847  -0.281   0.027  0.00  0.00    +0.023 A 
ATOM      3  C   UNL     1      -3.602  -0.895   0.044  0.00  0.00    +0.034 A 
ATOM      4  C   UNL     1      -3.515  -2.279   0.128  0.00  0.00    +0.023 A 
ATOM      5  C   UNL     1      -4.666  -3.038   0.204  0.00  0.00    +0.006 A 
ATOM      6  C   UNL     1      -5.904  -2.423   0.188  0.00  0.00    -0.041 A 
ENDROOT
BRANCH   6   7
ATOM      7  C   UNL     1      -7.158  -3.255   0.266  0.00  0.00    -0.003 C 
ATOM      8  C   UNL     1      -8.006  -3.019  -0.986  0.00  0.00    +0.015 C 
ATOM      9  C   UNL     1      -9.279  -3.864  -0.907  0.00  0.00    -0.010 C 
ATOM     10  C   UNL     1      -8.904  -5.345  -0.816  0.00  0.00    +0.007 C 
ATOM     11  C   UNL     1      -8.056  -5.580   0.435  0.00  0.00    -0.010 C 
ATOM     12  C   UNL     1      -6.783  -4.736   0.356  0.00  0.00    +0.015 C 
ATOM     13  C   UNL     1      -8.857  -5.181   1.676  0.00  0.00    +0.007 C 
ATOM     14  C   UNL     1      -9.232  -3.700   1.586  0.00  0.00    -0.010 C 
ATOM     15  C   UNL     1     -10.080  -3.464   0.334  0.00  0.00    +0.007 C 
ATOM     16  C   UNL     1      -7.959  -2.855   1.506  0.00  0.00    +0.015 C 
ENDBRANCH   6   7
BRANCH   3  17
ATOM     17  N   UNL     1      -2.438  -0.123  -0.028  0.00  0.00    -0.281 N 
ATOM     18  C   UNL     1      -2.394   1.087   0.565  0.00  0.00    +0.249 C 
ATOM     19  O   UNL     1      -3.392   1.543   1.090  0.00  0.00    -0.270 OA
ATOM     20  H   UNL     1      -1.558  -0.503  -0.568  0.00  0.00    +0.155 HD
BRANCH  18  21
ATOM     21  C   UNL     1      -1.139   1.856   0.577  0.00  0.00    +0.051 C 
ATOM     22  C   UNL     1      -1.081   3.089   1.178  0.00  0.00    +0.089 C 
ATOM     23  N   UNL     1       0.067   3.818   1.201  0.00  0.00    -0.288 N 
ATOM     24  C   UNL     1      -0.040   5.147   1.813  0.00  0.00    +0.136 C 
ATOM     25  C   UNL     1       1.232   5.481   2.598  0.00  0.00    +0.212 C 
ATOM     26  S   UNL     1       2.622   5.373   1.427  0.00  0.00    +0.073 S 
ATOM     27  O   UNL     1       3.853   5.255   2.128  0.00  0.00    -0.151 OA
ATOM     28  O   UNL     1       2.466   6.324   0.382  0.00  0.00    -0.151 OA
ATOM     29  N   UNL     1       2.393   3.902   0.707  0.00  0.00    -0.118 NA
ATOM     30  C   UNL     1       1.220   3.313   0.667  0.00  0.00    +0.147 C 
ATOM     31  C   UNL     1       1.204   2.047   0.007  0.00  0.00    +0.046 C 
ATOM     32  C   UNL     1       0.070   1.318  -0.051  0.00  0.00    +0.018 C 
ENDBRANCH  18  21
ENDBRANCH   3  17
TORSDOF 3
