REMARK  Name = ZINC17087259
REMARK  6 active torsions:
REMARK  status: ('A' for Active; 'I' for Inactive)
REMARK    1  A    between atoms: C_1  and  C_2
REMARK    2  A    between atoms: N_4  and  C_22
REMARK    3  A    between atoms: C_8  and  C_9
REMARK    4  A    between atoms: C_8  and  N_13
REMARK    5  A    between atoms: N_13  and  N_14
REMARK    6  A    between atoms: C_15  and  C_17
REMARK                            x       y       z     vdW  Elec       q    Type
REMARK                         _______ _______ _______ _____ _____    ______ ____
ROOT
ATOM      1  C   UNL     1      -4.112  -2.193   0.961  0.00  0.00    +0.068 C 
ATOM      2  C   UNL     1      -3.368  -0.891   0.810  0.00  0.00    +0.071 C 
ATOM      3  N   UNL     1      -2.131  -0.672   1.135  0.00  0.00    -0.176 NA
ATOM      4  N   UNL     1      -1.761   0.645   0.865  0.00  0.00    -0.156 N 
ATOM      5  C   UNL     1      -2.800   1.318   0.330  0.00  0.00    +0.274 C 
ATOM      6  O   UNL     1      -2.813   2.485  -0.024  0.00  0.00    -0.268 OA
ATOM      7  C   UNL     1      -3.911   0.361   0.261  0.00  0.00    +0.088 C 
ATOM      8  C   UNL     1      -5.190   0.588  -0.218  0.00  0.00    +0.139 C 
ENDROOT
BRANCH   4   9
ATOM      9  C   UNL     1      -0.493   1.188   1.108  0.00  0.00    +0.060 A 
ATOM     10  C   UNL     1       0.506   0.400   1.664  0.00  0.00    +0.025 A 
ATOM     11  C   UNL     1       1.758   0.937   1.898  0.00  0.00    +0.002 A 
ATOM     12  C   UNL     1       2.014   2.258   1.582  0.00  0.00    +0.000 A 
ATOM     13  C   UNL     1       1.020   3.047   1.033  0.00  0.00    +0.002 A 
ATOM     14  C   UNL     1      -0.233   2.516   0.798  0.00  0.00    +0.025 A 
ENDBRANCH   4   9
BRANCH   8  15
ATOM     15  C   UNL     1      -5.605   1.976  -0.630  0.00  0.00    +0.432 C 
ATOM     16  F   UNL     1      -4.510   2.645  -1.187  0.00  0.00    -0.165 F 
ATOM     17  F   UNL     1      -6.633   1.894  -1.576  0.00  0.00    -0.165 F 
ATOM     18  F   UNL     1      -6.059   2.679   0.491  0.00  0.00    -0.165 F 
ENDBRANCH   8  15
BRANCH   8  19
ATOM     19  N   UNL     1      -6.064  -0.434  -0.315  0.00  0.00    -0.260 N 
ATOM     20  H   UNL     1      -5.765  -1.344  -0.162  0.00  0.00    +0.170 HD
BRANCH  19  21
ATOM     21  N   UNL     1      -7.404  -0.182  -0.637  0.00  0.00    -0.230 N 
ATOM     22  C   UNL     1      -8.249  -1.208  -0.858  0.00  0.00    +0.295 C 
ATOM     23  O   UNL     1      -7.848  -2.354  -0.778  0.00  0.00    -0.265 OA
ATOM     24  H   UNL     1      -7.724   0.732  -0.700  0.00  0.00    +0.173 HD
BRANCH  22  25
ATOM     25  C   UNL     1      -9.652  -0.944  -1.195  0.00  0.00    +0.190 A 
ATOM     26  C   UNL     1     -10.608  -1.885  -1.447  0.00  0.00    +0.054 A 
ATOM     27  C   UNL     1     -11.797  -1.191  -1.719  0.00  0.00    +0.042 A 
ATOM     28  C   UNL     1     -11.516   0.128  -1.631  0.00  0.00    +0.196 A 
ATOM     29  O   UNL     1     -10.223   0.273  -1.315  0.00  0.00    -0.458 OA
ENDBRANCH  22  25
ENDBRANCH  19  21
ENDBRANCH   8  19
TORSDOF 5
