REMARK  Name = ZINC08825304
REMARK  12 active torsions:
REMARK  status: ('A' for Active; 'I' for Inactive)
REMARK    1  A    between atoms: C_1  and  C_2
REMARK    2  A    between atoms: C_2  and  C_4
REMARK    3  A    between atoms: C_2  and  N_19
REMARK    4  A    between atoms: C_4  and  O_6
REMARK    5  A    between atoms: O_6  and  C_7
REMARK    6  A    between atoms: C_7  and  C_8
REMARK    7  A    between atoms: N_10  and  C_11
REMARK    8  A    between atoms: C_12  and  C_16
REMARK    9  A    between atoms: C_20  and  C_22
REMARK   10  A    between atoms: C_23  and  C_24
REMARK   11  A    between atoms: C_27  and  O_30
REMARK   12  A    between atoms: O_30  and  C_31
REMARK                            x       y       z     vdW  Elec       q    Type
REMARK                         _______ _______ _______ _____ _____    ______ ____
ROOT
ATOM      1  C   UNL     1      -3.667   1.482   0.028  0.00  0.00    +0.328 C 
ATOM      2  O   UNL     1      -3.842   2.678   0.035  0.00  0.00    -0.249 OA
ENDROOT
BRANCH   1   4
ATOM      3  C   UNL     1      -4.809  -0.328  -1.226  0.00  0.00    +0.040 C 
ATOM      4  C   UNL     1      -4.850   0.548   0.028  0.00  0.00    +0.179 C 
BRANCH   4   5
ATOM      5  N   UNL     1      -6.089   1.329   0.038  0.00  0.00    -0.299 N 
ATOM      6  C   UNL     1      -7.221   0.791   0.534  0.00  0.00    +0.238 C 
ATOM      7  O   UNL     1      -7.214  -0.344   0.973  0.00  0.00    -0.271 OA
ATOM      8  H   UNL     1      -6.095   2.233  -0.312  0.00  0.00    +0.150 HD
BRANCH   6   9
ATOM      9  C   UNL     1      -8.459   1.571   0.544  0.00  0.00    +0.068 C 
ATOM     10  C   UNL     1      -9.592   1.031   1.040  0.00  0.00    +0.013 C 
BRANCH  10  11
ATOM     11  C   UNL     1     -10.835   1.815   1.051  0.00  0.00    -0.025 A 
ATOM     12  C   UNL     1     -10.846   3.123   0.551  0.00  0.00    +0.011 A 
ATOM     13  C   UNL     1     -12.014   3.850   0.557  0.00  0.00    +0.046 A 
ATOM     14  C   UNL     1     -13.180   3.293   1.069  0.00  0.00    +0.120 A 
ATOM     15  C   UNL     1     -13.174   1.997   1.572  0.00  0.00    +0.046 A 
ATOM     16  C   UNL     1     -12.012   1.258   1.565  0.00  0.00    +0.011 A 
BRANCH  14  17
ATOM     17  O   UNL     1     -14.329   4.016   1.079  0.00  0.00    -0.495 OA
ATOM     18  C   UNL     1     -14.265   5.341   0.547  0.00  0.00    +0.277 C 
ENDBRANCH  14  17
ENDBRANCH  10  11
ENDBRANCH   6   9
ENDBRANCH   4   5
ENDBRANCH   1   4
BRANCH   1  19
ATOM     19  O   UNL     1      -2.420   0.986   0.019  0.00  0.00    -0.454 OA
BRANCH  19  20
ATOM     20  C   UNL     1      -1.330   1.944   0.019  0.00  0.00    +0.328 C 
BRANCH  20  21
ATOM     21  C   UNL     1      -0.014   1.209   0.009  0.00  0.00    +0.255 C 
ATOM     22  O   UNL     1       0.002  -0.004   0.002  0.00  0.00    -0.272 OA
ATOM     23  N   UNL     1       1.143   1.898   0.001  0.00  0.00    -0.277 N 
ATOM     24  H   UNL     1       1.130   2.868   0.007  0.00  0.00    +0.155 HD
BRANCH  23  25
ATOM     25  C   UNL     1       2.354   1.221  -0.014  0.00  0.00    +0.084 A 
ATOM     26  C   UNL     1       3.639   1.750  -0.029  0.00  0.00    +0.065 A 
ATOM     27  C   UNL     1       4.730   0.805  -0.038  0.00  0.00    +0.022 A 
ATOM     28  C   UNL     1       4.410  -0.501  -0.043  0.00  0.00    +0.048 A 
ATOM     29  S   UNL     1       2.630  -0.488  -0.026  0.00  0.00    -0.081 S 
BRANCH  26  30
ATOM     30  C   UNL     1       3.875   3.198  -0.031  0.00  0.00    +0.244 C 
ATOM     31  O   UNL     1       2.932   3.968  -0.019  0.00  0.00    -0.270 OA
ATOM     32  N   UNL     1       5.135   3.675  -0.046  0.00  0.00    -0.325 N 
ATOM     33  H   UNL     1       5.886   3.061  -0.055  0.00  0.00    +0.145 HD
ATOM     34  H   UNL     1       5.291   4.632  -0.047  0.00  0.00    +0.145 HD
ENDBRANCH  26  30
ENDBRANCH  23  25
ENDBRANCH  20  21
ENDBRANCH  19  20
ENDBRANCH   1  19
TORSDOF 10
