REMARK  Name = ZINC64869511
REMARK  9 active torsions:
REMARK  status: ('A' for Active; 'I' for Inactive)
REMARK    1  A    between atoms: C_1  and  C_2
REMARK    2  A    between atoms: C_6  and  N_9
REMARK    3  A    between atoms: C_10  and  C_12
REMARK    4  A    between atoms: C_12  and  S_13
REMARK    5  A    between atoms: S_13  and  C_14
REMARK    6  A    between atoms: C_23  and  C_25
REMARK    7  A    between atoms: C_25  and  C_26
REMARK    8  A    between atoms: C_26  and  O_28
REMARK    9  A    between atoms: O_28  and  C_29
REMARK                            x       y       z     vdW  Elec       q    Type
REMARK                         _______ _______ _______ _____ _____    ______ ____
ROOT
ATOM      1  C   UNL     1      -0.338  -7.416   4.940  0.00  0.00    +0.100 C 
ATOM      2  N   UNL     1      -0.332  -6.614   5.957  0.00  0.00    -0.239 NA
ATOM      3  C   UNL     1      -0.398  -6.956   7.277  0.00  0.00    +0.086 A 
ATOM      4  C   UNL     1       0.383  -6.264   8.203  0.00  0.00    +0.029 A 
ATOM      5  C   UNL     1       0.296  -6.569   9.550  0.00  0.00    +0.002 A 
ATOM      6  C   UNL     1      -0.566  -7.556   9.985  0.00  0.00    +0.002 A 
ATOM      7  C   UNL     1      -1.335  -8.262   9.071  0.00  0.00    +0.025 A 
ATOM      8  C   UNL     1      -1.239  -7.981   7.722  0.00  0.00    +0.057 A 
ATOM      9  N   UNL     1      -1.947  -8.775   6.795  0.00  0.00    -0.316 N 
ATOM     10  C   UNL     1      -1.228  -9.493   5.864  0.00  0.00    +0.021 C 
ATOM     11  C   UNL     1      -0.432  -8.868   4.993  0.00  0.00    +0.054 C 
ATOM     12  H   UNL     1      -2.916  -8.815   6.813  0.00  0.00    +0.152 HD
ENDROOT
BRANCH   1  13
ATOM     13  S   UNL     1      -0.231  -6.680   3.343  0.00  0.00    -0.096 S 
BRANCH  13  14
ATOM     14  C   UNL     1      -0.132  -4.902   3.684  0.00  0.00    +0.171 C 
BRANCH  14  16
ATOM     15  N   UNL     1       0.050  -2.800   2.393  0.00  0.00    -0.284 N 
ATOM     16  C   UNL     1      -0.034  -4.145   2.385  0.00  0.00    +0.227 C 
ATOM     17  O   UNL     1      -0.031  -4.747   1.332  0.00  0.00    -0.275 OA
ATOM     18  H   UNL     1       0.129  -2.324   3.234  0.00  0.00    +0.155 HD
BRANCH  15  24
ATOM     19  C   UNL     1       1.205   1.236  -0.171  0.00  0.00    +0.045 C 
ATOM     20  C   UNL     1       0.577  -0.131  -0.084  0.00  0.00    -0.030 A 
ATOM     21  C   UNL     1      -0.027  -0.686  -1.198  0.00  0.00    +0.005 A 
ATOM     22  C   UNL     1      -0.606  -1.940  -1.122  0.00  0.00    +0.002 A 
ATOM     23  C   UNL     1      -0.582  -2.643   0.067  0.00  0.00    +0.025 A 
ATOM     24  C   UNL     1       0.024  -2.090   1.187  0.00  0.00    +0.052 A 
ATOM     25  C   UNL     1       0.610  -0.832   1.106  0.00  0.00    +0.065 A 
ATOM     26 CL   UNL     1       1.375  -0.138   2.502  0.00  0.00    -0.081 Cl
ENDBRANCH  15  24
ENDBRANCH  14  16
ENDBRANCH  13  14
ENDBRANCH   1  13
BRANCH  10  27
ATOM     27  C   UNL     1      -1.346 -10.995   5.825  0.00  0.00    +0.171 C 
BRANCH  27  28
ATOM     28  C   UNL     1      -0.389 -11.599   6.820  0.00  0.00    +0.312 C 
ATOM     29  O   UNL     1       0.316 -10.883   7.492  0.00  0.00    -0.250 OA
BRANCH  28  30
ATOM     30  O   UNL     1      -0.320 -12.932   6.961  0.00  0.00    -0.468 OA
ATOM     31  C   UNL     1       0.609 -13.436   7.923  0.00  0.00    +0.280 C 
ENDBRANCH  28  30
ENDBRANCH  27  28
ENDBRANCH  10  27
TORSDOF 7
