REMARK  Name = ZINC09210892
REMARK  7 active torsions:
REMARK  status: ('A' for Active; 'I' for Inactive)
REMARK    1  A    between atoms: C_1  and  C_2
REMARK    2  A    between atoms: C_9  and  N_33
REMARK    3  A    between atoms: C_10  and  C_29
REMARK    4  A    between atoms: N_18  and  C_21
REMARK    5  A    between atoms: C_21  and  C_22
REMARK    6  A    between atoms: C_29  and  O_31
REMARK    7  A    between atoms: O_31  and  C_32
REMARK                            x       y       z     vdW  Elec       q    Type
REMARK                         _______ _______ _______ _____ _____    ______ ____
ROOT
ATOM      1  C   UNL     1       0.361   1.529  -0.061  0.00  0.00    +0.065 C 
ATOM      2  C   UNL     1       0.215   0.029  -0.037  0.00  0.00    +0.042 A 
ATOM      3  C   UNL     1       0.126  -0.775  -1.107  0.00  0.00    +0.060 A 
ATOM      4  C   UNL     1       0.002  -2.106  -0.647  0.00  0.00    +0.245 A 
ATOM      5  N   UNL     1       0.018  -2.084   0.654  0.00  0.00    -0.135 NA
ATOM      6  N   UNL     1       0.156  -0.750   1.068  0.00  0.00    -0.278 N 
ATOM      7  H   UNL     1       0.200  -0.440   1.986  0.00  0.00    +0.189 HD
ATOM      8  O   UNL     1      -0.110  -3.156  -1.504  0.00  0.00    -0.422 OA
ATOM      9  C   UNL     1      -0.363  -2.886  -2.798  0.00  0.00    +0.198 C 
ATOM     10  C   UNL     1      -0.266  -1.655  -3.356  0.00  0.00    +0.117 C 
ATOM     11  C   UNL     1       0.145  -0.440  -2.572  0.00  0.00    +0.142 C 
ATOM     12  C   UNL     1       1.490   0.055  -3.000  0.00  0.00    -0.002 A 
ATOM     13  C   UNL     1       2.732  -0.543  -2.985  0.00  0.00    +0.007 A 
ATOM     14  C   UNL     1       3.799   0.210  -3.463  0.00  0.00    +0.000 A 
ATOM     15  C   UNL     1       3.620   1.496  -3.929  0.00  0.00    +0.002 A 
ATOM     16  C   UNL     1       2.374   2.103  -3.947  0.00  0.00    +0.024 A 
ATOM     17  C   UNL     1       1.294   1.359  -3.471  0.00  0.00    +0.041 A 
ATOM     18  N   UNL     1      -0.041   1.710  -3.376  0.00  0.00    -0.265 N 
ATOM     19  C   UNL     1      -0.791   0.713  -2.860  0.00  0.00    +0.240 C 
ATOM     20  O   UNL     1      -1.988   0.737  -2.664  0.00  0.00    -0.274 OA
ENDROOT
BRANCH   9  21
ATOM     21  N   UNL     1      -0.744  -3.925  -3.605  0.00  0.00    -0.329 N 
ATOM     22  H   UNL     1      -0.749  -4.831  -3.258  0.00  0.00    +0.145 HD
ATOM     23  H   UNL     1      -1.007  -3.755  -4.522  0.00  0.00    +0.145 HD
ENDBRANCH   9  21
BRANCH  10  24
ATOM     24  C   UNL     1      -0.559  -1.509  -4.720  0.00  0.00    +0.341 C 
ATOM     25  O   UNL     1       0.344  -1.428  -5.532  0.00  0.00    -0.245 OA
BRANCH  24  26
ATOM     26  O   UNL     1      -1.845  -1.458  -5.132  0.00  0.00    -0.465 OA
ATOM     27  C   UNL     1      -2.071  -1.308  -6.535  0.00  0.00    +0.280 C 
ENDBRANCH  24  26
ENDBRANCH  10  24
BRANCH  18  28
ATOM     28  C   UNL     1      -0.578   3.009  -3.787  0.00  0.00    +0.148 C 
BRANCH  28  29
ATOM     29  C   UNL     1      -0.988   2.948  -5.236  0.00  0.00    -0.030 A 
ATOM     30  C   UNL     1      -0.077   3.264  -6.226  0.00  0.00    +0.008 A 
ATOM     31  C   UNL     1      -0.452   3.208  -7.555  0.00  0.00    +0.038 A 
ATOM     32  C   UNL     1      -1.741   2.834  -7.895  0.00  0.00    +0.123 A 
ATOM     33  C   UNL     1      -2.653   2.517  -6.902  0.00  0.00    +0.038 A 
ATOM     34  C   UNL     1      -2.274   2.569  -5.574  0.00  0.00    +0.008 A 
ATOM     35  F   UNL     1      -2.109   2.779  -9.194  0.00  0.00    -0.205 F 
ENDBRANCH  28  29
ENDBRANCH  18  28
TORSDOF 5
