REMARK  Name = ZINC67556937
REMARK  7 active torsions:
REMARK  status: ('A' for Active; 'I' for Inactive)
REMARK    1  A    between atoms: C_1  and  C_2
REMARK    2  A    between atoms: C_5  and  N_11
REMARK    3  A    between atoms: C_7  and  C_8
REMARK    4  A    between atoms: C_12  and  C_14
REMARK    5  A    between atoms: N_16  and  C_17
REMARK    6  A    between atoms: C_17  and  C_18
REMARK    7  A    between atoms: C_23  and  N_24
REMARK                            x       y       z     vdW  Elec       q    Type
REMARK                         _______ _______ _______ _____ _____    ______ ____
ROOT
ATOM      1  C   UNL     1       0.279  -6.072  -3.158  0.00  0.00    +0.300 C 
ATOM      2  O   UNL     1       0.329  -7.074  -2.475  0.00  0.00    -0.265 OA
ATOM      3  N   UNL     1       0.253  -6.172  -4.502  0.00  0.00    -0.303 N 
ATOM      4  H   UNL     1       0.213  -5.371  -5.047  0.00  0.00    +0.149 HD
ENDROOT
BRANCH   1   6
ATOM      5  N   UNL     1       0.274  -4.627  -1.165  0.00  0.00    -0.278 N 
ATOM      6  C   UNL     1       0.248  -4.727  -2.509  0.00  0.00    +0.303 C 
ATOM      7  O   UNL     1       0.198  -3.725  -3.191  0.00  0.00    -0.265 OA
ATOM      8  H   UNL     1       0.241  -5.428  -0.618  0.00  0.00    +0.155 HD
BRANCH   5  13
ATOM      9  C   UNL     1       0.562   0.473   1.321  0.00  0.00    +0.044 C 
ATOM     10  C   UNL     1       0.487  -0.878   0.659  0.00  0.00    -0.038 A 
ATOM     11  C   UNL     1      -0.286  -1.877   1.215  0.00  0.00    +0.006 A 
ATOM     12  C   UNL     1      -0.357  -3.119   0.612  0.00  0.00    +0.023 A 
ATOM     13  C   UNL     1       0.349  -3.370  -0.559  0.00  0.00    +0.035 A 
ATOM     14  C   UNL     1       1.129  -2.373  -1.126  0.00  0.00    +0.036 A 
ATOM     15  C   UNL     1       1.196  -1.118  -0.520  0.00  0.00    +0.041 A 
BRANCH  15  16
ATOM     16  C   UNL     1       2.020  -0.048  -1.121  0.00  0.00    +0.242 C 
ATOM     17  O   UNL     1       1.993   1.074  -0.654  0.00  0.00    -0.270 OA
ATOM     18  N   UNL     1       2.802  -0.316  -2.185  0.00  0.00    -0.325 N 
ATOM     19  H   UNL     1       2.823  -1.212  -2.558  0.00  0.00    +0.145 HD
ATOM     20  H   UNL     1       3.342   0.386  -2.579  0.00  0.00    +0.145 HD
ENDBRANCH  15  16
ENDBRANCH   5  13
ENDBRANCH   1   6
BRANCH   3  21
ATOM     21  C   UNL     1       0.284  -7.491  -5.139  0.00  0.00    +0.143 C 
BRANCH  21  22
ATOM     22  C   UNL     1       0.245  -7.327  -6.636  0.00  0.00    +0.008 A 
ATOM     23  C   UNL     1      -0.943  -7.482  -7.328  0.00  0.00    +0.010 A 
ATOM     24  C   UNL     1      -0.933  -7.322  -8.707  0.00  0.00    +0.018 A 
ATOM     25  C   UNL     1       0.253  -7.014  -9.343  0.00  0.00    +0.084 A 
ATOM     26  N   UNL     1       1.372  -6.873  -8.658  0.00  0.00    -0.349 N 
ATOM     27  C   UNL     1       1.402  -7.012  -7.341  0.00  0.00    +0.103 A 
ATOM     28  H   UNL     1       2.192  -6.657  -9.130  0.00  0.00    +0.167 HD
BRANCH  27  29
ATOM     29  N   UNL     1       2.601  -6.848  -6.658  0.00  0.00    -0.316 N 
ATOM     30  C   UNL     1       3.517  -7.981  -6.470  0.00  0.00    +0.106 C 
ATOM     31  C   UNL     1       4.904  -7.586  -6.984  0.00  0.00    +0.019 C 
ATOM     32  C   UNL     1       5.351  -6.295  -6.293  0.00  0.00    +0.003 C 
ATOM     33  C   UNL     1       4.372  -5.169  -6.630  0.00  0.00    +0.019 C 
ATOM     34  C   UNL     1       2.981  -5.536  -6.117  0.00  0.00    +0.106 C 
ENDBRANCH  27  29
ENDBRANCH  21  22
ENDBRANCH   3  21
TORSDOF 6
