REMARK  Name = ZINC49683742
REMARK  6 active torsions:
REMARK  status: ('A' for Active; 'I' for Inactive)
REMARK    1  A    between atoms: C_1  and  C_2
REMARK    2  A    between atoms: C_5  and  C_8
REMARK    3  A    between atoms: C_11  and  C_13
REMARK    4  A    between atoms: N_15  and  C_16
REMARK    5  A    between atoms: C_16  and  C_17
REMARK    6  A    between atoms: C_17  and  C_18
REMARK                            x       y       z     vdW  Elec       q    Type
REMARK                         _______ _______ _______ _____ _____    ______ ____
ROOT
ATOM      1  C   UNL     1       0.058  -4.250  -0.021  0.00  0.00    +0.249 A 
ATOM      2  N   UNL     1       0.069  -5.024  -1.089  0.00  0.00    -0.107 NA
ATOM      3  N   UNL     1       0.085  -6.257  -0.720  0.00  0.00    -0.102 NA
ATOM      4  C   UNL     1       0.086  -6.319   0.593  0.00  0.00    +0.304 A 
ATOM      5  O   UNL     1       0.074  -5.051   1.058  0.00  0.00    -0.412 OA
ENDROOT
BRANCH   1  10
ATOM      6  C   UNL     1      -0.018   1.503   0.010  0.00  0.00    +0.044 C 
ATOM      7  C   UNL     1       0.002  -0.004   0.002  0.00  0.00    -0.050 A 
ATOM      8  C   UNL     1       0.006  -0.686  -1.202  0.00  0.00    +0.004 A 
ATOM      9  C   UNL     1       0.024  -2.065  -1.217  0.00  0.00    +0.013 A 
ATOM     10  C   UNL     1       0.039  -2.773  -0.013  0.00  0.00    +0.039 A 
ATOM     11  C   UNL     1       0.036  -2.078   1.198  0.00  0.00    +0.013 A 
ATOM     12  C   UNL     1       0.023  -0.699   1.198  0.00  0.00    +0.004 A 
ENDBRANCH   1  10
BRANCH   4  13
ATOM     13  C   UNL     1       0.102  -7.546   1.407  0.00  0.00    +0.301 C 
ATOM     14  O   UNL     1       0.101  -7.470   2.621  0.00  0.00    -0.265 OA
ATOM     15  N   UNL     1       0.119  -8.753   0.807  0.00  0.00    -0.307 N 
ATOM     16  H   UNL     1       0.120  -8.813  -0.161  0.00  0.00    +0.149 HD
BRANCH  15  17
ATOM     17  C   UNL     1       0.136  -9.973   1.617  0.00  0.00    +0.109 C 
BRANCH  17  18
ATOM     18  C   UNL     1       0.153 -11.196   0.697  0.00  0.00    +0.049 C 
BRANCH  18  19
ATOM     19  C   UNL     1       0.170 -12.451   1.530  0.00  0.00    -0.072 C 
ATOM     20  C   UNL     1      -0.961 -13.030   1.778  0.00  0.00    -0.028 C 
ATOM     21  C   UNL     1      -1.105 -14.278   2.599  0.00  0.00    +0.027 C 
ATOM     22  C   UNL     1       0.248 -14.982   2.729  0.00  0.00    +0.004 C 
ATOM     23  C   UNL     1       1.293 -13.947   3.165  0.00  0.00    +0.005 C 
ATOM     24  C   UNL     1       1.497 -12.956   2.016  0.00  0.00    +0.030 C 
ENDBRANCH  18  19
ENDBRANCH  17  18
ENDBRANCH  15  17
ENDBRANCH   4  13
TORSDOF 5
