REMARK  Name = ZINC22851578
REMARK  8 active torsions:
REMARK  status: ('A' for Active; 'I' for Inactive)
REMARK    1  A    between atoms: C_5  and  N_7
REMARK    2  A    between atoms: N_10  and  C_13
REMARK    3  A    between atoms: C_13  and  C_15
REMARK    4  A    between atoms: C_13  and  C_29
REMARK    5  A    between atoms: C_15  and  N_16
REMARK    6  A    between atoms: C_17  and  C_19
REMARK    7  A    between atoms: N_21  and  C_22
REMARK    8  A    between atoms: C_22  and  C_23
REMARK                            x       y       z     vdW  Elec       q    Type
REMARK                         _______ _______ _______ _____ _____    ______ ____
ROOT
ATOM      1  C   UNL     1       5.110  -0.671   2.254  0.00  0.00    +0.104 C 
ENDROOT
BRANCH   1   2
ATOM      2  C   UNL     1       3.762  -0.829   1.600  0.00  0.00    -0.025 A 
ATOM      3  C   UNL     1       3.153  -2.070   1.566  0.00  0.00    +0.009 A 
ATOM      4  C   UNL     1       1.916  -2.220   0.967  0.00  0.00    +0.050 A 
ATOM      5  C   UNL     1       1.284  -1.126   0.398  0.00  0.00    +0.166 A 
ATOM      6  C   UNL     1       1.897   0.124   0.432  0.00  0.00    +0.167 A 
ATOM      7  C   UNL     1       3.136   0.267   1.035  0.00  0.00    +0.054 A 
ATOM      8  O   UNL     1       1.082   1.027  -0.187  0.00  0.00    -0.453 OA
ATOM      9  C   UNL     1      -0.214   0.402  -0.239  0.00  0.00    +0.466 C 
ATOM     10  O   UNL     1       0.085  -1.006  -0.243  0.00  0.00    -0.453 OA
ENDBRANCH   1   2
BRANCH   1  14
ATOM     11  N   UNL     1       5.470  -1.912   6.276  0.00  0.00    -0.325 N 
ATOM     12  C   UNL     1       6.517  -2.325   5.331  0.00  0.00    +0.120 C 
ATOM     13  C   UNL     1       6.485  -1.409   4.106  0.00  0.00    +0.104 C 
ATOM     14  N   UNL     1       5.157  -1.480   3.479  0.00  0.00    -0.291 NA
ATOM     15  C   UNL     1       4.110  -1.067   4.424  0.00  0.00    +0.104 C 
ATOM     16  C   UNL     1       4.142  -1.983   5.650  0.00  0.00    +0.120 C 
BRANCH  11  21
ATOM     17  C   UNL     1       6.702  -3.451   9.380  0.00  0.00    +0.002 A 
ATOM     18  C   UNL     1       5.606  -4.208   9.751  0.00  0.00    +0.003 A 
ATOM     19  C   UNL     1       4.463  -4.205   8.971  0.00  0.00    +0.040 A 
ATOM     20  C   UNL     1       4.414  -3.445   7.817  0.00  0.00    +0.144 A 
ATOM     21  C   UNL     1       5.515  -2.682   7.442  0.00  0.00    +0.065 A 
ATOM     22  C   UNL     1       6.661  -2.692   8.226  0.00  0.00    +0.026 A 
ATOM     23  F   UNL     1       3.298  -3.443   7.056  0.00  0.00    -0.204 F 
ENDBRANCH  11  21
ENDBRANCH   1  14
BRANCH   1  24
ATOM     24  C   UNL     1       6.202  -1.139   1.291  0.00  0.00    +0.128 C 
BRANCH  24  25
ATOM     25  N   UNL     1       6.215  -0.275   0.108  0.00  0.00    -0.306 N 
ATOM     26  C   UNL     1       7.025  -0.563  -0.929  0.00  0.00    +0.299 C 
ATOM     27  O   UNL     1       7.745  -1.539  -0.883  0.00  0.00    -0.265 OA
ATOM     28  H   UNL     1       5.562   0.610   0.067  0.00  0.00    +0.149 HD
BRANCH  26  29
ATOM     29  C   UNL     1       7.038   0.319  -2.135  0.00  0.00    +0.299 C 
ATOM     30  O   UNL     1       6.318   1.295  -2.181  0.00  0.00    -0.265 OA
ATOM     31  N   UNL     1       7.848   0.031  -3.173  0.00  0.00    -0.305 N 
ATOM     32  H   UNL     1       8.501  -0.854  -3.131  0.00  0.00    +0.149 HD
BRANCH  31  33
ATOM     33  C   UNL     1       7.860   0.896  -4.355  0.00  0.00    +0.136 C 
BRANCH  33  34
ATOM     34  C   UNL     1       8.860   0.349  -5.377  0.00  0.00    +0.135 C 
ATOM     35  C   UNL     1       8.982   1.312  -6.578  0.00  0.00    +0.035 C 
ATOM     36  C   UNL     1       9.137   0.374  -7.796  0.00  0.00    +0.031 C 
ATOM     37  C   UNL     1       9.091  -1.044  -7.187  0.00  0.00    +0.160 C 
ATOM     38  O   UNL     1       8.374  -0.888  -5.943  0.00  0.00    -0.375 OA
ENDBRANCH  33  34
ENDBRANCH  31  33
ENDBRANCH  26  29
ENDBRANCH  24  25
ENDBRANCH   1  24
TORSDOF 8
