REMARK  Name = ZINC25061925
REMARK  6 active torsions:
REMARK  status: ('A' for Active; 'I' for Inactive)
REMARK    1  A    between atoms: C_1  and  C_2
REMARK    2  A    between atoms: C_2  and  C_4
REMARK    3  A    between atoms: C_2  and  N_17
REMARK    4  A    between atoms: N_6  and  C_7
REMARK    5  A    between atoms: N_20  and  S_23
REMARK    6  A    between atoms: S_23  and  C_26
REMARK                            x       y       z     vdW  Elec       q    Type
REMARK                         _______ _______ _______ _____ _____    ______ ____
ROOT
ATOM      1  N   UNL     1       1.207   2.209   0.526  0.00  0.00    +0.389 N 
ATOM      2  C   UNL     1       1.588   2.316   1.941  0.00  0.00    -0.060 C 
ATOM      3  C   UNL     1       1.219   1.017   2.665  0.00  0.00    +0.091 C 
ATOM      4  N   UNL     1       1.826  -0.110   1.941  0.00  0.00    -0.180 NA
ATOM      5  C   UNL     1       1.601  -0.207   0.491  0.00  0.00    +0.091 C 
ATOM      6  C   UNL     1       1.955   1.140  -0.148  0.00  0.00    -0.060 C 
ATOM      7  H   UNL     1       0.139   1.947   0.486  0.00  0.00    -0.081 HD
ENDROOT
BRANCH   4   8
ATOM      8  S   UNL     1       2.738  -1.240   2.737  0.00  0.00    +0.062 S 
ATOM      9  O   UNL     1       3.602  -1.820   1.769  0.00  0.00    -0.153 OA
ATOM     10  O   UNL     1       3.226  -0.612   3.914  0.00  0.00    -0.153 OA
BRANCH   8  11
ATOM     11  C   UNL     1       1.643  -2.516   3.264  0.00  0.00    +0.124 A 
ATOM     12  C   UNL     1       1.763  -3.790   2.740  0.00  0.00    +0.030 A 
ATOM     13  C   UNL     1       0.907  -4.792   3.157  0.00  0.00    +0.002 A 
ATOM     14  C   UNL     1      -0.075  -4.519   4.090  0.00  0.00    +0.002 A 
ATOM     15  C   UNL     1      -0.199  -3.245   4.611  0.00  0.00    +0.022 A 
ATOM     16  C   UNL     1       0.661  -2.243   4.198  0.00  0.00    +0.067 A 
ATOM     17 CL   UNL     1       0.505  -0.642   4.851  0.00  0.00    -0.082 Cl
ENDBRANCH   8  11
ENDBRANCH   4   8
BRANCH   1  19
ATOM     18  C   UNL     1       1.162   3.299  -1.667  0.00  0.00    -0.004 C 
ATOM     19  C   UNL     1       1.385   3.493  -0.166  0.00  0.00    +0.016 C 
BRANCH  19  20
ATOM     20  C   UNL     1       2.784   4.002   0.073  0.00  0.00    +0.200 C 
ATOM     21  O   UNL     1       3.690   3.219   0.263  0.00  0.00    -0.278 OA
ATOM     22  N   UNL     1       3.027   5.327   0.074  0.00  0.00    -0.311 N 
ATOM     23  H   UNL     1       2.205   6.038  -0.099  0.00  0.00    +0.149 HD
BRANCH  22  24
ATOM     24  C   UNL     1       4.387   5.822   0.306  0.00  0.00    +0.035 C 
ATOM     25  C   UNL     1       5.319   5.276  -0.777  0.00  0.00    +0.029 C 
ATOM     26  C   UNL     1       6.739   5.793  -0.535  0.00  0.00    -0.008 C 
ATOM     27  C   UNL     1       6.741   7.322  -0.585  0.00  0.00    +0.007 C 
ATOM     28  C   UNL     1       5.808   7.868   0.498  0.00  0.00    -0.008 C 
ATOM     29  C   UNL     1       4.388   7.351   0.256  0.00  0.00    +0.029 C 
ATOM     30  C   UNL     1       6.293   7.402   1.872  0.00  0.00    +0.007 C 
ATOM     31  C   UNL     1       6.292   5.872   1.921  0.00  0.00    -0.008 C 
ATOM     32  C   UNL     1       7.224   5.326   0.839  0.00  0.00    +0.007 C 
ATOM     33  C   UNL     1       4.872   5.356   1.680  0.00  0.00    +0.029 C 
ENDBRANCH  22  24
ENDBRANCH  19  20
ENDBRANCH   1  19
TORSDOF 5
