REMARK  Name = ZINC63874061
REMARK  6 active torsions:
REMARK  status: ('A' for Active; 'I' for Inactive)
REMARK    1  A    between atoms: C_7  and  C_10
REMARK    2  A    between atoms: C_13  and  S_15
REMARK    3  A    between atoms: S_15  and  C_16
REMARK    4  A    between atoms: C_16  and  C_17
REMARK    5  A    between atoms: N_19  and  C_20
REMARK    6  A    between atoms: C_23  and  C_27
REMARK                            x       y       z     vdW  Elec       q    Type
REMARK                         _______ _______ _______ _____ _____    ______ ____
ROOT
ATOM      1  C   UNL     1       0.675  -3.129   0.001  0.00  0.00    +0.248 A 
ATOM      2  N   UNL     1      -0.647  -3.061   0.014  0.00  0.00    -0.107 NA
ATOM      3  N   UNL     1      -1.132  -4.253   0.008  0.00  0.00    -0.101 NA
ATOM      4  C   UNL     1      -0.142  -5.131  -0.011  0.00  0.00    +0.278 A 
ATOM      5  O   UNL     1       1.012  -4.441  -0.021  0.00  0.00    -0.411 OA
ENDROOT
BRANCH   1  12
ATOM      6  C   UNL     1      -0.017   1.354   0.066  0.00  0.00    +0.001 A 
ATOM      7  C   UNL     1       1.162   2.102   0.059  0.00  0.00    +0.002 A 
ATOM      8  C   UNL     1       2.383   1.512   0.034  0.00  0.00    +0.026 A 
ATOM      9  C   UNL     1       2.482   0.097   0.015  0.00  0.00    +0.043 A 
ATOM     10  N   UNL     1       3.530  -0.704  -0.010  0.00  0.00    -0.380 N 
ATOM     11  C   UNL     1       3.074  -2.097  -0.021  0.00  0.00    +0.154 C 
ATOM     12  C   UNL     1       1.562  -2.043   0.002  0.00  0.00    +0.044 C 
ATOM     13  C   UNL     1       1.236  -0.687   0.024  0.00  0.00    +0.008 A 
ATOM     14  C   UNL     1       0.001  -0.004   0.049  0.00  0.00    +0.010 A 
ATOM     15  H   UNL     1       4.456  -0.416  -0.019  0.00  0.00    +0.160 HD
ENDBRANCH   1  12
BRANCH   4  16
ATOM     16  S   UNL     1      -0.306  -6.885  -0.025  0.00  0.00    -0.056 S 
BRANCH  16  17
ATOM     17  C   UNL     1      -2.099  -7.158  -0.010  0.00  0.00    +0.175 C 
BRANCH  17  18
ATOM     18  C   UNL     1      -2.382  -8.639  -0.021  0.00  0.00    +0.228 C 
ATOM     19  O   UNL     1      -1.464  -9.431  -0.037  0.00  0.00    -0.275 OA
ATOM     20  N   UNL     1      -3.655  -9.082  -0.012  0.00  0.00    -0.285 N 
ATOM     21  H   UNL     1      -4.387  -8.451   0.069  0.00  0.00    +0.155 HD
BRANCH  20  22
ATOM     22  C   UNL     1      -3.919 -10.448  -0.119  0.00  0.00    +0.035 A 
ATOM     23  C   UNL     1      -3.060 -11.369   0.473  0.00  0.00    +0.024 A 
ATOM     24  C   UNL     1      -3.316 -12.717   0.370  0.00  0.00    +0.022 A 
ATOM     25  C   UNL     1      -4.441 -13.162  -0.331  0.00  0.00    +0.070 A 
ATOM     26  C   UNL     1      -5.303 -12.233  -0.924  0.00  0.00    +0.060 A 
ATOM     27  C   UNL     1      -5.042 -10.884  -0.811  0.00  0.00    +0.044 A 
ATOM     28 CL   UNL     1      -6.702 -12.779  -1.795  0.00  0.00    -0.082 Cl
BRANCH  25  29
ATOM     29  C   UNL     1      -4.711 -14.564  -0.440  0.00  0.00    +0.101 C 
ATOM     30  N   UNL     1      -4.925 -15.676  -0.528  0.00  0.00    -0.191 NA
ENDBRANCH  25  29
ENDBRANCH  20  22
ENDBRANCH  17  18
ENDBRANCH  16  17
ENDBRANCH   4  16
TORSDOF 6
