REMARK  Name = ZINC63763219
REMARK  9 active torsions:
REMARK  status: ('A' for Active; 'I' for Inactive)
REMARK    1  A    between atoms: C_1  and  C_2
REMARK    2  A    between atoms: C_4  and  C_28
REMARK    3  A    between atoms: C_5  and  N_9
REMARK    4  A    between atoms: C_6  and  C_8
REMARK    5  A    between atoms: N_9  and  S_10
REMARK    6  A    between atoms: S_10  and  C_13
REMARK    7  A    between atoms: C_15  and  C_19
REMARK    8  A    between atoms: C_17  and  C_18
REMARK    9  A    between atoms: C_22  and  C_24
REMARK                            x       y       z     vdW  Elec       q    Type
REMARK                         _______ _______ _______ _____ _____    ______ ____
ROOT
ATOM      1  C   UNL     1      -0.232  -6.718   0.941  0.00  0.00    +0.121 A 
ATOM      2  C   UNL     1       0.759  -7.597   1.311  0.00  0.00    +0.046 A 
ATOM      3  C   UNL     1       0.566  -8.918   0.923  0.00  0.00    +0.038 A 
ATOM      4  S   UNL     1      -0.995  -8.824   0.067  0.00  0.00    -0.090 S 
ATOM      5  C   UNL     1      -1.301  -7.182   0.249  0.00  0.00    +0.014 A 
ATOM      6  C   UNL     1      -2.491  -6.402  -0.247  0.00  0.00    +0.053 C 
ENDROOT
BRANCH   3   7
ATOM      7  C   UNL     1       1.394 -10.045   1.149  0.00  0.00    +0.083 C 
ATOM      8  N   UNL     1       2.536 -10.071   1.790  0.00  0.00    -0.153 NA
ATOM      9  N   UNL     1       3.086 -11.348   1.827  0.00  0.00    -0.149 NA
ATOM     10  C   UNL     1       2.350 -12.223   1.222  0.00  0.00    +0.149 C 
ATOM     11  C   UNL     1       1.139 -11.472   0.704  0.00  0.00    +0.120 C 
BRANCH  10  12
ATOM     12  C   UNL     1       2.635 -13.694   1.067  0.00  0.00    +0.432 C 
ATOM     13  F   UNL     1       3.850 -14.001   1.690  0.00  0.00    -0.165 F 
ATOM     14  F   UNL     1       1.607 -14.434   1.660  0.00  0.00    -0.165 F 
ATOM     15  F   UNL     1       2.715 -14.013  -0.293  0.00  0.00    -0.165 F 
ENDBRANCH  10  12
ENDBRANCH   3   7
BRANCH   1  16
ATOM     16  S   UNL     1      -0.116  -5.012   1.367  0.00  0.00    +0.092 S 
ATOM     17  O   UNL     1       1.117  -4.848   2.055  0.00  0.00    -0.148 OA
ATOM     18  O   UNL     1      -1.364  -4.652   1.944  0.00  0.00    -0.148 OA
BRANCH  16  19
ATOM     19  N   UNL     1       0.015  -4.162  -0.047  0.00  0.00    -0.097 NA
BRANCH  19  24
ATOM     20  C   UNL     1       0.511   1.486   0.074  0.00  0.00    +0.044 C 
ATOM     21  C   UNL     1       0.379  -0.015   0.042  0.00  0.00    -0.050 A 
ATOM     22  C   UNL     1       1.403  -0.808   0.527  0.00  0.00    +0.008 A 
ATOM     23  C   UNL     1       1.285  -2.184   0.499  0.00  0.00    -0.025 A 
ATOM     24  C   UNL     1       0.137  -2.771  -0.017  0.00  0.00    +0.080 A 
ATOM     25  C   UNL     1      -0.890  -1.971  -0.504  0.00  0.00    -0.025 A 
ATOM     26  C   UNL     1      -0.768  -0.596  -0.467  0.00  0.00    +0.008 A 
ATOM     27  C   UNL     1      -2.137  -2.603  -1.065  0.00  0.00    +0.046 C 
ATOM     28  C   UNL     1       2.401  -3.047   1.027  0.00  0.00    +0.046 C 
ENDBRANCH  19  24
ENDBRANCH  16  19
ENDBRANCH   1  16
TORSDOF 5
