REMARK  Name = ZINC21895659
REMARK  7 active torsions:
REMARK  status: ('A' for Active; 'I' for Inactive)
REMARK    1  A    between atoms: C_1  and  C_2
REMARK    2  A    between atoms: C_5  and  C_9
REMARK    3  A    between atoms: C_7  and  C_8
REMARK    4  A    between atoms: N_11  and  C_12
REMARK    5  A    between atoms: C_12  and  C_13
REMARK    6  A    between atoms: C_17  and  C_24
REMARK    7  A    between atoms: C_20  and  C_23
REMARK                            x       y       z     vdW  Elec       q    Type
REMARK                         _______ _______ _______ _____ _____    ______ ____
ROOT
ATOM      1  C   UNL     1      -5.448   4.298  -1.655  0.00  0.00    +0.244 C 
ATOM      2  O   UNL     1      -5.765   3.125  -1.636  0.00  0.00    -0.270 OA
ATOM      3  N   UNL     1      -4.149   4.647  -1.573  0.00  0.00    -0.303 N 
ATOM      4  H   UNL     1      -3.863   5.709  -1.589  0.00  0.00    +0.150 HD
ENDROOT
BRANCH   1   9
ATOM      5  C   UNL     1      -9.497   8.364  -2.092  0.00  0.00    +0.044 C 
ATOM      6  C   UNL     1      -8.437   7.300  -1.978  0.00  0.00    -0.047 A 
ATOM      7  C   UNL     1      -7.104   7.661  -1.894  0.00  0.00    +0.004 A 
ATOM      8  C   UNL     1      -6.129   6.692  -1.784  0.00  0.00    +0.013 A 
ATOM      9  C   UNL     1      -6.488   5.343  -1.768  0.00  0.00    +0.037 A 
ATOM     10  C   UNL     1      -7.835   4.985  -1.854  0.00  0.00    +0.016 A 
ATOM     11  C   UNL     1      -8.800   5.965  -1.958  0.00  0.00    -0.047 A 
ATOM     12  C   UNL     1     -10.255   5.580  -2.051  0.00  0.00    +0.044 C 
ENDBRANCH   1   9
BRANCH   3  13
ATOM     13  C   UNL     1      -3.118   3.612  -1.460  0.00  0.00    +0.200 C 
BRANCH  13  14
ATOM     14  C   UNL     1      -1.761   4.261  -1.385  0.00  0.00    +0.233 C 
ATOM     15  O   UNL     1      -1.663   5.470  -1.420  0.00  0.00    -0.274 OA
ATOM     16  N   UNL     1      -0.654   3.499  -1.277  0.00  0.00    -0.300 N 
ATOM     17  C   UNL     1      -0.756   2.034  -1.232  0.00  0.00    +0.111 C 
ATOM     18  C   UNL     1      -0.019   1.526   0.010  0.00  0.00    +0.004 C 
ATOM     19  C   UNL     1       1.417   2.056  -0.000  0.00  0.00    +0.009 C 
ATOM     20  C   UNL     1       1.398   3.586   0.041  0.00  0.00    +0.004 C 
ATOM     21  C   UNL     1       0.676   4.117  -1.202  0.00  0.00    +0.111 C 
ATOM     22  C   UNL     1       0.661   4.053   1.298  0.00  0.00    +0.009 C 
ATOM     23  C   UNL     1       0.002  -0.004   0.002  0.00  0.00    +0.009 C 
ENDBRANCH  13  14
ENDBRANCH   3  13
TORSDOF 3
