REMARK  Name = ZINC46280642
REMARK  11 active torsions:
REMARK  status: ('A' for Active; 'I' for Inactive)
REMARK    1  A    between atoms: C_1  and  C_2
REMARK    2  A    between atoms: C_2  and  N_3
REMARK    3  A    between atoms: N_3  and  C_4
REMARK    4  A    between atoms: N_3  and  C_6
REMARK    5  A    between atoms: C_4  and  C_5
REMARK    6  A    between atoms: C_6  and  C_8
REMARK    7  A    between atoms: C_6  and  C_9
REMARK    8  A    between atoms: C_9  and  N_10
REMARK    9  A    between atoms: N_13  and  N_14
REMARK   10  A    between atoms: C_15  and  C_17
REMARK   11  A    between atoms: C_17  and  C_18
REMARK                            x       y       z     vdW  Elec       q    Type
REMARK                         _______ _______ _______ _____ _____    ______ ____
ROOT
ATOM      1  N   UNL     1      -1.648  -1.590  -0.345  0.00  0.00    -0.300 N 
ATOM      2  C   UNL     1      -2.952  -1.826  -0.103  0.00  0.00    +0.316 C 
ATOM      3  O   UNL     1      -3.543  -2.681  -0.736  0.00  0.00    -0.251 OA
ATOM      4  N   UNL     1      -3.603  -1.115   0.839  0.00  0.00    -0.218 N 
ATOM      5  H   UNL     1      -1.177  -0.908   0.159  0.00  0.00    +0.150 HD
ATOM      6  H   UNL     1      -4.542  -1.285   1.013  0.00  0.00    +0.174 HD
ENDROOT
BRANCH   4   7
ATOM      7  N   UNL     1      -2.922  -0.130   1.567  0.00  0.00    -0.233 N 
ATOM      8  C   UNL     1      -3.573   0.581   2.510  0.00  0.00    +0.230 C 
ATOM      9  O   UNL     1      -4.747   0.368   2.727  0.00  0.00    -0.274 OA
ATOM     10  H   UNL     1      -1.984   0.040   1.393  0.00  0.00    +0.173 HD
BRANCH   8  11
ATOM     11  C   UNL     1      -2.841   1.640   3.293  0.00  0.00    +0.104 C 
BRANCH  11  12
ATOM     12  C   UNL     1      -3.802   2.292   4.290  0.00  0.00    -0.020 C 
ATOM     13  C   UNL     1      -4.967   2.932   3.531  0.00  0.00    +0.011 C 
ATOM     14  C   UNL     1      -5.927   3.583   4.528  0.00  0.00    -0.010 C 
ATOM     15  C   UNL     1      -5.184   4.659   5.324  0.00  0.00    +0.007 C 
ATOM     16  C   UNL     1      -4.019   4.019   6.082  0.00  0.00    -0.010 C 
ATOM     17  C   UNL     1      -3.059   3.367   5.085  0.00  0.00    +0.011 C 
ATOM     18  C   UNL     1      -4.558   2.956   7.041  0.00  0.00    +0.007 C 
ATOM     19  C   UNL     1      -5.301   1.880   6.246  0.00  0.00    -0.010 C 
ATOM     20  C   UNL     1      -6.466   2.520   5.487  0.00  0.00    +0.007 C 
ATOM     21  C   UNL     1      -4.340   1.228   5.249  0.00  0.00    +0.011 C 
ENDBRANCH  11  12
ENDBRANCH   8  11
ENDBRANCH   4   7
BRANCH   1  22
ATOM     22  C   UNL     1      -0.941  -2.363  -1.369  0.00  0.00    +0.090 C 
BRANCH  22  23
ATOM     23  C   UNL     1       0.540  -1.978  -1.367  0.00  0.00    -0.054 C 
ATOM     24  C   UNL     1       1.265  -2.734  -2.482  0.00  0.00    -0.012 C 
BRANCH  23  25
ATOM     25  N   UNL     1       0.671  -0.532  -1.590  0.00  0.00    +0.382 N 
ATOM     26  H   UNL     1       0.115  -0.035  -0.910  0.00  0.00    -0.081 HD
BRANCH  25  28
ATOM     27  C   UNL     1       2.523  -0.343   0.002  0.00  0.00    -0.017 C 
ATOM     28  C   UNL     1       2.080  -0.141  -1.449  0.00  0.00    -0.082 C 
ENDBRANCH  25  28
BRANCH  25  29
ATOM     29  C   UNL     1       0.204  -0.201  -2.942  0.00  0.00    -0.082 C 
ATOM     30  C   UNL     1       0.194   1.318  -3.121  0.00  0.00    -0.017 C 
ENDBRANCH  25  29
ENDBRANCH  23  25
ENDBRANCH  22  23
ENDBRANCH   1  22
TORSDOF 8
