REMARK  Name = ZINC42970464
REMARK  7 active torsions:
REMARK  status: ('A' for Active; 'I' for Inactive)
REMARK    1  A    between atoms: C_1  and  C_2
REMARK    2  A    between atoms: C_6  and  C_8
REMARK    3  A    between atoms: C_8  and  C_10
REMARK    4  A    between atoms: C_8  and  S_12
REMARK    5  A    between atoms: C_10  and  N_11
REMARK    6  A    between atoms: S_12  and  C_13
REMARK    7  A    between atoms: C_19  and  N_21
REMARK                            x       y       z     vdW  Elec       q    Type
REMARK                         _______ _______ _______ _____ _____    ______ ____
ROOT
ATOM      1  C   UNL     1       0.035  -2.886   2.467  0.00  0.00    +0.067 C 
ENDROOT
BRANCH   1   7
ATOM      2  C   UNL     1       0.265   1.142  -0.493  0.00  0.00    +0.044 C 
ATOM      3  C   UNL     1       0.262  -0.356  -0.325  0.00  0.00    -0.050 A 
ATOM      4  C   UNL     1       0.367  -1.176  -1.433  0.00  0.00    +0.003 A 
ATOM      5  C   UNL     1       0.364  -2.549  -1.278  0.00  0.00    +0.001 A 
ATOM      6  C   UNL     1       0.257  -3.103  -0.016  0.00  0.00    +0.005 A 
ATOM      7  C   UNL     1       0.153  -2.283   1.091  0.00  0.00    -0.036 A 
ATOM      8  C   UNL     1       0.160  -0.909   0.938  0.00  0.00    +0.008 A 
ENDBRANCH   1   7
BRANCH   1   9
ATOM      9  C   UNL     1       1.270  -3.743   2.756  0.00  0.00    -0.067 C 
BRANCH   9  10
ATOM     10  N   UNL     1       1.217  -4.225   4.143  0.00  0.00    +0.379 N 
ATOM     11  H   UNL     1       1.115  -3.441   4.768  0.00  0.00    -0.090 HD
ATOM     12  H   UNL     1       0.431  -4.848   4.252  0.00  0.00    -0.090 HD
ATOM     13  H   UNL     1       2.070  -4.719   4.359  0.00  0.00    -0.090 HD
ENDBRANCH   9  10
ENDBRANCH   1   9
BRANCH   1  14
ATOM     14  S   UNL     1      -1.452  -3.923   2.548  0.00  0.00    -0.082 S 
BRANCH  14  15
ATOM     15  C   UNL     1      -2.781  -2.771   2.438  0.00  0.00    +0.171 A 
ATOM     16  N   UNL     1      -4.060  -3.233   2.366  0.00  0.00    -0.302 N 
ATOM     17  H   UNL     1      -4.231  -4.188   2.376  0.00  0.00    +0.171 HD
ATOM     18  C   UNL     1      -5.090  -2.366   2.282  0.00  0.00    +0.254 A 
ATOM     19  O   UNL     1      -6.240  -2.772   2.217  0.00  0.00    -0.268 OA
ATOM     20  C   UNL     1      -4.819  -0.994   2.270  0.00  0.00    +0.113 A 
ATOM     21  C   UNL     1      -3.498  -0.575   2.346  0.00  0.00    +0.124 A 
ATOM     22  N   UNL     1      -2.517  -1.481   2.433  0.00  0.00    -0.209 NA
BRANCH  21  23
ATOM     23  N   UNL     1      -3.197   0.773   2.337  0.00  0.00    -0.343 N 
ATOM     24  H   UNL     1      -3.910   1.428   2.277  0.00  0.00    +0.144 HD
ATOM     25  H   UNL     1      -2.273   1.064   2.389  0.00  0.00    +0.144 HD
ENDBRANCH  21  23
ENDBRANCH  14  15
ENDBRANCH   1  14
TORSDOF 6
