REMARK  Name = ZINC40804808
REMARK  10 active torsions:
REMARK  status: ('A' for Active; 'I' for Inactive)
REMARK    1  A    between atoms: C_1  and  C_2
REMARK    2  A    between atoms: C_5  and  C_8
REMARK    3  A    between atoms: N_10  and  N_11
REMARK    4  A    between atoms: C_18  and  C_34
REMARK    5  A    between atoms: C_19  and  C_21
REMARK    6  A    between atoms: N_23  and  C_24
REMARK    7  A    between atoms: C_26  and  C_32
REMARK    8  A    between atoms: C_26  and  C_33
REMARK    9  A    between atoms: C_28  and  C_30
REMARK   10  A    between atoms: C_28  and  C_31
REMARK                            x       y       z     vdW  Elec       q    Type
REMARK                         _______ _______ _______ _____ _____    ______ ____
ROOT
ATOM      1  N   UNL     1      -0.303  -6.312   1.036  0.00  0.00    -0.184 NA
ATOM      2  C   UNL     1      -0.206  -6.974   2.147  0.00  0.00    +0.070 C 
ATOM      3  C   UNL     1      -0.123  -6.287   3.503  0.00  0.00    +0.058 C 
ATOM      4  C   UNL     1       0.936  -7.009   4.343  0.00  0.00    +0.014 C 
ATOM      5  C   UNL     1       0.505  -8.450   4.632  0.00  0.00    +0.075 C 
ATOM      6  C   UNL     1       0.157  -9.138   3.337  0.00  0.00    +0.115 A 
ATOM      7  C   UNL     1      -0.175  -8.453   2.190  0.00  0.00    +0.042 A 
ATOM      8  C   UNL     1      -0.440  -9.401   1.194  0.00  0.00    +0.009 A 
ATOM      9  C   UNL     1      -0.265 -10.626   1.776  0.00  0.00    +0.193 A 
ATOM     10  O   UNL     1       0.101 -10.440   3.068  0.00  0.00    -0.454 OA
ATOM     11  C   UNL     1      -0.837  -9.126  -0.234  0.00  0.00    +0.048 C 
ENDROOT
BRANCH   1  14
ATOM     12  C   UNL     1      -0.427  -4.223  -0.100  0.00  0.00    +0.263 C 
ATOM     13  O   UNL     1      -0.496  -4.818  -1.158  0.00  0.00    -0.268 OA
ATOM     14  N   UNL     1      -0.327  -4.911   1.055  0.00  0.00    -0.203 N 
ATOM     15  H   UNL     1      -0.272  -4.436   1.899  0.00  0.00    +0.178 HD
BRANCH  12  20
ATOM     16  C   UNL     1      -0.529   1.530  -0.021  0.00  0.00    +0.044 C 
ATOM     17  C   UNL     1      -0.503   0.023  -0.041  0.00  0.00    -0.050 A 
ATOM     18  C   UNL     1      -0.581  -0.650  -1.247  0.00  0.00    +0.004 A 
ATOM     19  C   UNL     1      -0.557  -2.030  -1.273  0.00  0.00    +0.013 A 
ATOM     20  C   UNL     1      -0.453  -2.745  -0.079  0.00  0.00    +0.038 A 
ATOM     21  C   UNL     1      -0.374  -2.059   1.134  0.00  0.00    +0.013 A 
ATOM     22  C   UNL     1      -0.394  -0.680   1.145  0.00  0.00    +0.004 A 
ENDBRANCH  12  20
ENDBRANCH   1  14
BRANCH   9  23
ATOM     23  C   UNL     1      -0.434 -11.922   1.110  0.00  0.00    +0.280 C 
ATOM     24  O   UNL     1      -0.757 -11.967  -0.062  0.00  0.00    -0.267 OA
ATOM     25  N   UNL     1      -0.231 -13.064   1.798  0.00  0.00    -0.306 N 
ATOM     26  H   UNL     1       0.026 -13.028   2.732  0.00  0.00    +0.149 HD
BRANCH  25  27
ATOM     27  C   UNL     1      -0.400 -14.362   1.132  0.00  0.00    +0.071 C 
ATOM     28  C   UNL     1      -1.868 -14.783   1.218  0.00  0.00    +0.009 C 
ATOM     29  C   UNL     1      -2.059 -16.139   0.539  0.00  0.00    -0.072 C 
ATOM     30  N   UNL     1      -1.156 -17.150   1.071  0.00  0.00    +0.386 N 
ATOM     31  C   UNL     1       0.244 -16.789   1.229  0.00  0.00    -0.072 C 
ATOM     32  C   UNL     1       0.443 -15.412   1.853  0.00  0.00    +0.009 C 
ATOM     33  C   UNL     1       1.004 -16.876  -0.097  0.00  0.00    -0.010 C 
ATOM     34  C   UNL     1       0.885 -17.823   2.185  0.00  0.00    -0.010 C 
ATOM     35  C   UNL     1      -1.932 -15.994  -0.977  0.00  0.00    -0.010 C 
ATOM     36  C   UNL     1      -3.504 -16.602   0.836  0.00  0.00    -0.010 C 
ATOM     37  H   UNL     1      -1.514 -17.454   1.979  0.00  0.00    -0.084 HD
ATOM     38  H   UNL     1      -1.210 -17.976   0.471  0.00  0.00    -0.084 HD
ENDBRANCH  25  27
ENDBRANCH   9  23
TORSDOF 4
