REMARK  Name = ZINC05698415
REMARK  6 active torsions:
REMARK  status: ('A' for Active; 'I' for Inactive)
REMARK    1  A    between atoms: C_1  and  C_2
REMARK    2  A    between atoms: C_5  and  C_8
REMARK    3  A    between atoms: C_9  and  C_10
REMARK    4  A    between atoms: C_9  and  C_12
REMARK    5  A    between atoms: N_14  and  C_15
REMARK    6  A    between atoms: C_16  and  C_24
REMARK                            x       y       z     vdW  Elec       q    Type
REMARK                         _______ _______ _______ _____ _____    ______ ____
ROOT
ATOM      1  C   UNL     1      -2.465   1.336   0.055  0.00  0.00    +0.259 C 
ATOM      2  O   UNL     1      -2.613   0.137   0.196  0.00  0.00    -0.269 OA
ATOM      3  N   UNL     1      -3.541   2.146  -0.004  0.00  0.00    -0.275 N 
ATOM      4  H   UNL     1      -3.422   3.102  -0.117  0.00  0.00    +0.156 HD
ENDROOT
BRANCH   3   5
ATOM      5  C   UNL     1      -4.815   1.612   0.096  0.00  0.00    +0.085 A 
ATOM      6  C   UNL     1      -6.033   2.277   0.064  0.00  0.00    +0.068 A 
ATOM      7  C   UNL     1      -7.239   1.476   0.187  0.00  0.00    -0.023 A 
ATOM      8  C   UNL     1      -7.035   0.148   0.333  0.00  0.00    -0.004 A 
ATOM      9  S   UNL     1      -5.276  -0.045   0.300  0.00  0.00    -0.077 S 
ATOM     10  C   UNL     1      -8.079  -0.914   0.487  0.00  0.00    +0.043 C 
ATOM     11  C   UNL     1      -9.413  -0.235   0.832  0.00  0.00    +0.005 C 
ATOM     12  C   UNL     1      -9.639   0.929  -0.137  0.00  0.00    +0.005 C 
ATOM     13  C   UNL     1      -8.648   2.055   0.164  0.00  0.00    +0.037 C 
BRANCH   6  14
ATOM     14  C   UNL     1      -6.101   3.733  -0.092  0.00  0.00    +0.244 C 
ATOM     15  O   UNL     1      -6.164   4.223  -1.205  0.00  0.00    -0.270 OA
ATOM     16  N   UNL     1      -6.093   4.529   0.995  0.00  0.00    -0.325 N 
ATOM     17  H   UNL     1      -6.043   4.138   1.882  0.00  0.00    +0.145 HD
ATOM     18  H   UNL     1      -6.138   5.492   0.892  0.00  0.00    +0.145 HD
ENDBRANCH   6  14
ENDBRANCH   3   5
BRANCH   1  20
ATOM     19  C   UNL     1      -0.013   1.076   0.008  0.00  0.00    +0.032 C 
ATOM     20  C   UNL     1      -1.111   1.902  -0.052  0.00  0.00    +0.114 C 
BRANCH  19  25
ATOM     21  C   UNL     1       5.223   3.171  -1.092  0.00  0.00    +0.044 C 
ATOM     22  C   UNL     1       3.849   2.621  -0.803  0.00  0.00    -0.050 A 
ATOM     23  C   UNL     1       3.696   1.605   0.125  0.00  0.00    +0.004 A 
ATOM     24  C   UNL     1       2.443   1.097   0.395  0.00  0.00    +0.008 A 
ATOM     25  C   UNL     1       1.324   1.611  -0.273  0.00  0.00    -0.024 A 
ATOM     26  C   UNL     1       1.490   2.634  -1.215  0.00  0.00    +0.008 A 
ATOM     27  C   UNL     1       2.749   3.134  -1.468  0.00  0.00    +0.004 A 
ENDBRANCH  19  25
BRANCH  20  28
ATOM     28  C   UNL     1      -0.936   3.314  -0.218  0.00  0.00    +0.104 C 
ATOM     29  N   UNL     1      -0.798   4.434  -0.350  0.00  0.00    -0.191 NA
ENDBRANCH  20  28
ENDBRANCH   1  20
TORSDOF 5
