REMARK  Name = ZINC04839671
REMARK  1 active torsions:
REMARK  status: ('A' for Active; 'I' for Inactive)
REMARK    1  A    between atoms: C_4  and  N_7
REMARK                            x       y       z     vdW  Elec       q    Type
REMARK                         _______ _______ _______ _____ _____    ______ ____
ROOT
ATOM      1  N   UNL     1      -0.016   1.360   0.009  0.00  0.00    -0.187 N 
ATOM      2  C   UNL     1       1.210   1.838  -0.234  0.00  0.00    +0.322 C 
ATOM      3  O   UNL     1       1.453   3.006  -0.472  0.00  0.00    -0.251 OA
ATOM      4  N   UNL     1       2.141   0.870  -0.183  0.00  0.00    -0.279 N 
ATOM      5  C   UNL     1       1.437  -0.391   0.128  0.00  0.00    +0.103 C 
ATOM      6  N   UNL     1       0.018   0.016   0.241  0.00  0.00    -0.209 NA
ATOM      7  C   UNL     1       1.566  -1.317  -1.103  0.00  0.00    +0.043 C 
ATOM      8  C   UNL     1       2.987  -1.282  -1.589  0.00  0.00    +0.003 C 
ATOM      9  C   UNL     1       3.844  -2.421  -1.002  0.00  0.00    +0.000 C 
ATOM     10  C   UNL     1       3.575  -2.661   0.495  0.00  0.00    +0.000 C 
ATOM     11  C   UNL     1       3.431  -1.375   1.263  0.00  0.00    +0.003 C 
ATOM     12  C   UNL     1       1.934  -1.021   1.345  0.00  0.00    +0.043 C 
ATOM     13  H   UNL     1       3.094   0.978  -0.323  0.00  0.00    +0.152 HD
ATOM     14  H   UNL     1      -0.555  -0.480  -0.426  0.00  0.00    +0.147 HD
ENDROOT
BRANCH   1  18
ATOM     15  C   UNL     1      -3.483   3.670   0.038  0.00  0.00    +0.000 A 
ATOM     16  C   UNL     1      -2.362   4.101   0.723  0.00  0.00    +0.002 A 
ATOM     17  C   UNL     1      -1.211   3.337   0.716  0.00  0.00    +0.025 A 
ATOM     18  C   UNL     1      -1.181   2.136   0.019  0.00  0.00    +0.054 A 
ATOM     19  C   UNL     1      -2.308   1.709  -0.671  0.00  0.00    +0.025 A 
ATOM     20  C   UNL     1      -3.457   2.475  -0.656  0.00  0.00    +0.002 A 
ENDBRANCH   1  18
TORSDOF 1
