REMARK  Name = ZINC66235440
REMARK  7 active torsions:
REMARK  status: ('A' for Active; 'I' for Inactive)
REMARK    1  A    between atoms: C_1  and  C_2
REMARK    2  A    between atoms: C_2  and  C_4
REMARK    3  A    between atoms: C_2  and  N_15
REMARK    4  A    between atoms: N_18  and  C_19
REMARK    5  A    between atoms: C_19  and  C_20
REMARK    6  A    between atoms: C_20  and  C_21
REMARK    7  A    between atoms: C_25  and  O_27
REMARK                            x       y       z     vdW  Elec       q    Type
REMARK                         _______ _______ _______ _____ _____    ______ ____
ROOT
ATOM      1  N   UNL     1       0.235  -0.849  -1.170  0.00  0.00    -0.288 N 
ATOM      2  C   UNL     1      -0.708  -0.944  -2.129  0.00  0.00    +0.300 C 
ATOM      3  O   UNL     1      -1.749  -0.326  -2.022  0.00  0.00    -0.253 OA
ATOM      4  N   UNL     1      -0.495  -1.724  -3.208  0.00  0.00    -0.299 N 
ATOM      5  H   UNL     1       1.066  -1.342  -1.256  0.00  0.00    +0.151 HD
ATOM      6  H   UNL     1       0.336  -2.217  -3.294  0.00  0.00    +0.150 HD
ENDROOT
BRANCH   1   8
ATOM      7  C   UNL     1       0.400   1.440  -0.325  0.00  0.00    +0.038 C 
ATOM      8  C   UNL     1       0.004  -0.001   0.002  0.00  0.00    +0.158 C 
BRANCH   8   9
ATOM      9  C   UNL     1       0.835  -0.501   1.155  0.00  0.00    +0.240 C 
ATOM     10  O   UNL     1       1.863  -1.109   0.943  0.00  0.00    -0.273 OA
ATOM     11  N   UNL     1       0.436  -0.273   2.422  0.00  0.00    -0.269 N 
ATOM     12  C   UNL     1      -0.836   0.346   2.804  0.00  0.00    +0.118 C 
ATOM     13  C   UNL     1      -0.821   0.384   4.341  0.00  0.00    +0.056 C 
ATOM     14  C   UNL     1       0.503  -0.237   4.724  0.00  0.00    -0.024 A 
ATOM     15  C   UNL     1       1.173  -0.598   3.566  0.00  0.00    +0.040 A 
ATOM     16  C   UNL     1       2.427  -1.202   3.668  0.00  0.00    +0.024 A 
ATOM     17  C   UNL     1       2.986  -1.438   4.906  0.00  0.00    +0.002 A 
ATOM     18  C   UNL     1       2.308  -1.078   6.056  0.00  0.00    +0.000 A 
ATOM     19  C   UNL     1       1.069  -0.472   5.962  0.00  0.00    +0.005 A 
ENDBRANCH   8   9
ENDBRANCH   1   8
BRANCH   4  20
ATOM     20  C   UNL     1      -1.519  -1.827  -4.250  0.00  0.00    +0.110 C 
BRANCH  20  21
ATOM     21  C   UNL     1      -1.031  -2.768  -5.353  0.00  0.00    +0.054 C 
BRANCH  21  22
ATOM     22  C   UNL     1      -2.085  -2.874  -6.426  0.00  0.00    -0.042 A 
ATOM     23  C   UNL     1      -3.063  -3.848  -6.339  0.00  0.00    +0.004 A 
ATOM     24  C   UNL     1      -4.031  -3.948  -7.321  0.00  0.00    +0.004 A 
ATOM     25  C   UNL     1      -4.023  -3.075  -8.392  0.00  0.00    +0.045 A 
ATOM     26  C   UNL     1      -3.043  -2.097  -8.481  0.00  0.00    +0.117 A 
ATOM     27  C   UNL     1      -2.076  -1.995  -7.491  0.00  0.00    +0.049 A 
BRANCH  26  28
ATOM     28  O   UNL     1      -3.033  -1.237  -9.533  0.00  0.00    -0.507 OA
ATOM     29  H   UNL     1      -3.546  -0.430  -9.387  0.00  0.00    +0.292 HD
ENDBRANCH  26  28
ENDBRANCH  21  22
ENDBRANCH  20  21
ENDBRANCH   4  20
TORSDOF 6
