REMARK  Name = ZINC43771918
REMARK  6 active torsions:
REMARK  status: ('A' for Active; 'I' for Inactive)
REMARK    1  A    between atoms: C_1  and  C_2
REMARK    2  A    between atoms: C_2  and  C_3
REMARK    3  A    between atoms: C_6  and  O_29
REMARK    4  A    between atoms: C_25  and  C_26
REMARK    5  A    between atoms: C_25  and  O_28
REMARK    6  A    between atoms: C_26  and  C_27
REMARK                            x       y       z     vdW  Elec       q    Type
REMARK                         _______ _______ _______ _____ _____    ______ ____
ROOT
ATOM      1  C   UNL     1       0.707  -0.490  -1.238  0.00  0.00    -0.021 A 
ATOM      2  C   UNL     1      -0.012  -0.812  -2.348  0.00  0.00    +0.009 A 
ATOM      3  C   UNL     1       0.614  -1.263  -3.505  0.00  0.00    +0.046 A 
ATOM      4  C   UNL     1       1.985  -1.397  -3.557  0.00  0.00    +0.126 A 
ATOM      5  C   UNL     1       2.754  -1.071  -2.424  0.00  0.00    +0.042 A 
ATOM      6  C   UNL     1       2.109  -0.605  -1.250  0.00  0.00    +0.078 A 
ATOM      7  N   UNL     1       2.830  -0.288  -0.173  0.00  0.00    -0.244 NA
ATOM      8  C   UNL     1       4.150  -0.391  -0.170  0.00  0.00    +0.093 A 
ATOM      9  C   UNL     1       4.838  -0.842  -1.309  0.00  0.00    +0.000 A 
ATOM     10  C   UNL     1       4.157  -1.192  -2.433  0.00  0.00    +0.021 A 
ATOM     11  C   UNL     1       6.305  -0.837  -0.961  0.00  0.00    +0.162 C 
ATOM     12  N   UNL     1       6.405  -0.362   0.425  0.00  0.00    -0.302 N 
ATOM     13  C   UNL     1       5.146  -0.099   0.887  0.00  0.00    +0.071 A 
ATOM     14  C   UNL     1       4.971   0.369   2.172  0.00  0.00    +0.035 A 
ATOM     15  C   UNL     1       6.079   0.567   3.006  0.00  0.00    +0.008 A 
ATOM     16  C   UNL     1       7.326   0.291   2.540  0.00  0.00    +0.061 A 
ATOM     17  C   UNL     1       7.478  -0.171   1.216  0.00  0.00    +0.259 A 
ATOM     18  O   UNL     1       8.595  -0.401   0.782  0.00  0.00    -0.267 OA
ATOM     19  C   UNL     1       8.557   0.444   3.393  0.00  0.00    +0.273 C 
ATOM     20  O   UNL     1       8.284   1.256   4.535  0.00  0.00    -0.457 OA
ATOM     21  C   UNL     1       7.138   0.958   5.188  0.00  0.00    +0.344 C 
ATOM     22  O   UNL     1       7.139   0.601   6.342  0.00  0.00    -0.247 OA
ATOM     23  C   UNL     1       5.854   1.094   4.401  0.00  0.00    +0.188 C 
ENDROOT
BRANCH   1  25
ATOM     24  C   UNL     1      -0.019   1.526   0.010  0.00  0.00    +0.009 C 
ATOM     25  C   UNL     1       0.002  -0.004   0.002  0.00  0.00    +0.034 C 
ENDBRANCH   1  25
BRANCH  23  26
ATOM     26  C   UNL     1       5.448   2.568   4.333  0.00  0.00    +0.048 C 
ATOM     27  C   UNL     1       5.342   3.133   5.751  0.00  0.00    +0.007 C 
ENDBRANCH  23  26
BRANCH  23  28
ATOM     28  O   UNL     1       4.820   0.340   5.037  0.00  0.00    -0.373 OA
ATOM     29  H   UNL     1       4.623   0.625   5.939  0.00  0.00    +0.211 HD
ENDBRANCH  23  28
BRANCH   4  30
ATOM     30  O   UNL     1       2.588  -1.838  -4.691  0.00  0.00    -0.506 OA
ATOM     31  H   UNL     1       2.832  -1.134  -5.306  0.00  0.00    +0.292 HD
ENDBRANCH   4  30
TORSDOF 4
