REMARK  Name = ZINC06865991
REMARK  8 active torsions:
REMARK  status: ('A' for Active; 'I' for Inactive)
REMARK    1  A    between atoms: C_1  and  C_2
REMARK    2  A    between atoms: C_2  and  C_3
REMARK    3  A    between atoms: C_3  and  C_4
REMARK    4  A    between atoms: C_4  and  N_5
REMARK    5  A    between atoms: N_5  and  C_6
REMARK    6  A    between atoms: N_9  and  C_10
REMARK    7  A    between atoms: C_10  and  C_11
REMARK    8  A    between atoms: C_14  and  C_20
REMARK                            x       y       z     vdW  Elec       q    Type
REMARK                         _______ _______ _______ _____ _____    ______ ____
ROOT
ATOM      1  C   UNL     1       0.002  -0.004   0.002  0.00  0.00    +0.165 C 
ENDROOT
BRANCH   1   2
ATOM      2  C   UNL     1      -1.412  -0.526   0.013  0.00  0.00    +0.108 A 
ATOM      3  C   UNL     1      -2.212  -0.838   1.200  0.00  0.00    +0.046 A 
ATOM      4  C   UNL     1      -1.974  -0.757   2.574  0.00  0.00    +0.017 A 
ATOM      5  C   UNL     1      -2.951  -1.126   3.455  0.00  0.00    -0.050 A 
ATOM      6  C   UNL     1      -4.181  -1.576   2.996  0.00  0.00    +0.007 A 
ATOM      7  C   UNL     1      -4.438  -1.658   1.645  0.00  0.00    +0.050 A 
ATOM      8  C   UNL     1      -3.458  -1.288   0.732  0.00  0.00    +0.168 A 
ATOM      9  O   UNL     1      -3.409  -1.258  -0.615  0.00  0.00    -0.354 OA
ATOM     10  N   UNL     1      -2.142  -0.786  -1.028  0.00  0.00    -0.080 NA
ATOM     11  C   UNL     1      -2.690  -1.043   4.937  0.00  0.00    +0.044 C 
ENDBRANCH   1   2
BRANCH   1  16
ATOM     12  N   UNL     1       1.122   3.498   0.010  0.00  0.00    -0.289 N 
ATOM     13  C   UNL     1      -0.157   4.213   0.026  0.00  0.00    +0.133 C 
ATOM     14  C   UNL     1       1.140   2.151   0.003  0.00  0.00    +0.302 C 
ATOM     15  O   UNL     1       2.201   1.557  -0.011  0.00  0.00    -0.253 OA
ATOM     16  N   UNL     1      -0.018   1.461   0.010  0.00  0.00    -0.294 N 
ATOM     17  H   UNL     1      -0.864   1.934   0.017  0.00  0.00    +0.151 HD
BRANCH  12  18
ATOM     18  C   UNL     1       2.380   4.248   0.002  0.00  0.00    +0.109 C 
BRANCH  18  19
ATOM     19  C   UNL     1       2.805   4.516  -1.443  0.00  0.00    +0.019 C 
BRANCH  19  21
ATOM     20  C   UNL     1       4.544   5.568  -2.897  0.00  0.00    +0.004 C 
ATOM     21  C   UNL     1       4.119   5.300  -1.451  0.00  0.00    -0.002 C 
ENDBRANCH  19  21
ENDBRANCH  18  19
ENDBRANCH  12  18
ENDBRANCH   1  16
TORSDOF 5
