REMARK  Name = ZINC62756142
REMARK  4 active torsions:
REMARK  status: ('A' for Active; 'I' for Inactive)
REMARK    1  A    between atoms: C_1  and  C_2
REMARK    2  A    between atoms: C_6  and  C_20
REMARK    3  A    between atoms: C_8  and  N_11
REMARK    4  A    between atoms: N_14  and  C_17
REMARK                            x       y       z     vdW  Elec       q    Type
REMARK                         _______ _______ _______ _____ _____    ______ ____
ROOT
ATOM      1  C   UNL     1       1.957  -0.478  -2.716  0.00  0.00    +0.007 C 
ATOM      2  C   UNL     1       1.061  -0.221  -1.503  0.00  0.00    -0.016 C 
ATOM      3  C   UNL     1       1.848   0.553  -0.443  0.00  0.00    +0.004 C 
ATOM      4  C   UNL     1       0.952   0.810   0.770  0.00  0.00    +0.013 C 
ATOM      5  C   UNL     1       0.488  -0.526   1.354  0.00  0.00    +0.089 C 
ATOM      6  C   UNL     1      -0.299  -1.300   0.294  0.00  0.00    -0.054 C 
ATOM      7  C   UNL     1       0.597  -1.557  -0.919  0.00  0.00    -0.011 C 
ENDROOT
BRANCH   6   8
ATOM      8  N   UNL     1      -0.745  -2.583   0.854  0.00  0.00    +0.384 N 
ATOM      9  C   UNL     1       0.425  -3.423   1.144  0.00  0.00    -0.063 C 
ATOM     10  C   UNL     1      -0.037  -4.752   1.745  0.00  0.00    +0.066 C 
ATOM     11  N   UNL     1      -0.928  -5.433   0.794  0.00  0.00    -0.303 NA
ATOM     12  C   UNL     1      -2.091  -4.593   0.475  0.00  0.00    +0.066 C 
ATOM     13  C   UNL     1      -1.612  -3.265  -0.116  0.00  0.00    -0.063 C 
ATOM     14  H   UNL     1      -1.258  -2.417   1.706  0.00  0.00    -0.081 HD
BRANCH  11  15
ATOM     15  C   UNL     1      -1.349  -6.741   1.312  0.00  0.00    +0.057 C 
ATOM     16  C   UNL     1      -0.817  -7.987   0.600  0.00  0.00    +0.020 C 
ATOM     17  C   UNL     1      -2.283  -7.580   0.437  0.00  0.00    +0.020 C 
ENDBRANCH  11  15
ENDBRANCH   6   8
BRANCH   5  18
ATOM     18  C   UNL     1      -0.395  -0.273   2.549  0.00  0.00    +0.357 C 
ATOM     19  O   UNL     1      -1.439   0.341   2.416  0.00  0.00    -0.246 OA
ATOM     20  O   UNL     1      -0.064  -0.683   3.649  0.00  0.00    -0.246 OA
ENDBRANCH   5  18
TORSDOF 3
