REMARK  Name = ZINC40466354
REMARK  7 active torsions:
REMARK  status: ('A' for Active; 'I' for Inactive)
REMARK    1  A    between atoms: C_1  and  C_2
REMARK    2  A    between atoms: C_2  and  N_3
REMARK    3  A    between atoms: C_4  and  N_26
REMARK    4  A    between atoms: C_5  and  C_12
REMARK    5  A    between atoms: C_12  and  C_14
REMARK    6  A    between atoms: C_14  and  N_15
REMARK    7  A    between atoms: C_23  and  C_25
REMARK                            x       y       z     vdW  Elec       q    Type
REMARK                         _______ _______ _______ _____ _____    ______ ____
ROOT
ATOM      1  N   UNL     1      -1.374  -0.524  -0.101  0.00  0.00    -0.282 N 
ATOM      2  C   UNL     1      -1.894  -0.730   1.145  0.00  0.00    +0.116 A 
ATOM      3  C   UNL     1      -3.212  -1.203   1.262  0.00  0.00    +0.121 A 
ATOM      4  C   UNL     1      -3.965  -1.452   0.026  0.00  0.00    +0.266 A 
ATOM      5  O   UNL     1      -5.110  -1.861   0.068  0.00  0.00    -0.267 OA
ATOM      6  N   UNL     1      -3.360  -1.216  -1.157  0.00  0.00    -0.274 N 
ATOM      7  H   UNL     1      -3.844  -1.376  -1.982  0.00  0.00    +0.173 HD
ATOM      8  C   UNL     1      -2.098  -0.759  -1.206  0.00  0.00    +0.331 A 
ATOM      9  O   UNL     1      -1.591  -0.555  -2.292  0.00  0.00    -0.246 OA
ENDROOT
BRANCH   2  10
ATOM     10  N   UNL     1      -1.147  -0.482   2.256  0.00  0.00    -0.344 N 
ATOM     11  H   UNL     1      -0.214  -0.232   2.167  0.00  0.00    +0.144 HD
ATOM     12  H   UNL     1      -1.548  -0.555   3.136  0.00  0.00    +0.144 HD
ENDBRANCH   2  10
BRANCH   1  14
ATOM     13  C   UNL     1      -0.008   1.499  -0.251  0.00  0.00    +0.027 C 
ATOM     14  C   UNL     1      -0.001  -0.031  -0.233  0.00  0.00    +0.125 C 
ENDBRANCH   1  14
BRANCH   3  15
ATOM     15  C   UNL     1      -3.794  -1.432   2.528  0.00  0.00    +0.185 C 
ATOM     16  O   UNL     1      -3.195  -1.121   3.537  0.00  0.00    -0.290 OA
BRANCH  15  17
ATOM     17  C   UNL     1      -5.159  -2.063   2.626  0.00  0.00    +0.165 C 
BRANCH  17  18
ATOM     18  N   UNL     1      -5.538  -2.193   4.040  0.00  0.00    -0.288 NA
ATOM     19  C   UNL     1      -4.641  -3.122   4.742  0.00  0.00    +0.090 C 
ATOM     20  C   UNL     1      -4.802  -2.915   6.258  0.00  0.00    +0.058 C 
ATOM     21  C   UNL     1      -6.264  -2.869   6.558  0.00  0.00    -0.004 A 
ATOM     22  C   UNL     1      -7.276  -2.723   5.657  0.00  0.00    -0.020 A 
ATOM     23  C   UNL     1      -8.570  -2.712   6.170  0.00  0.00    +0.013 A 
ATOM     24  C   UNL     1      -8.771  -2.840   7.503  0.00  0.00    +0.046 A 
ATOM     25  S   UNL     1      -7.098  -2.988   8.115  0.00  0.00    -0.101 S 
ATOM     26  C   UNL     1      -6.948  -2.580   4.173  0.00  0.00    +0.085 C 
ATOM     27  C   UNL     1      -7.838  -1.502   3.552  0.00  0.00    +0.029 C 
ENDBRANCH  17  18
ENDBRANCH  15  17
ENDBRANCH   3  15
TORSDOF 5
