REMARK  Name = ZINC37692695
REMARK  7 active torsions:
REMARK  status: ('A' for Active; 'I' for Inactive)
REMARK    1  A    between atoms: C_1  and  O_2
REMARK    2  A    between atoms: O_2  and  C_3
REMARK    3  A    between atoms: C_5  and  O_21
REMARK    4  A    between atoms: C_8  and  N_9
REMARK    5  A    between atoms: N_9  and  C_10
REMARK    6  A    between atoms: C_17  and  O_19
REMARK    7  A    between atoms: O_21  and  C_22
REMARK                            x       y       z     vdW  Elec       q    Type
REMARK                         _______ _______ _______ _____ _____    ______ ____
ROOT
ATOM      1  C   UNL     1      -1.201  -0.638   0.010  0.00  0.00    +0.144 A 
ATOM      2  C   UNL     1      -2.374   0.100   0.019  0.00  0.00    +0.094 A 
ATOM      3  C   UNL     1      -3.600  -0.548   0.028  0.00  0.00    +0.142 A 
ATOM      4  C   UNL     1      -3.654  -1.935   0.027  0.00  0.00    +0.084 A 
ATOM      5  C   UNL     1      -2.485  -2.674   0.018  0.00  0.00    +0.050 A 
ATOM      6  C   UNL     1      -1.256  -2.030   0.003  0.00  0.00    +0.071 A 
ATOM      7 CL   UNL     1      -5.190  -2.743   0.037  0.00  0.00    -0.080 Cl
ENDROOT
BRANCH   1   9
ATOM      8  C   UNL     1      -0.017   1.425   0.010  0.00  0.00    +0.277 C 
ATOM      9  O   UNL     1       0.002  -0.004   0.002  0.00  0.00    -0.493 OA
ENDBRANCH   1   9
BRANCH   6  10
ATOM     10  N   UNL     1      -0.071  -2.779  -0.012  0.00  0.00    -0.334 N 
ATOM     11  H   UNL     1       0.788  -2.328  -0.018  0.00  0.00    +0.147 HD
BRANCH  10  12
ATOM     12  C   UNL     1      -0.130  -4.242  -0.019  0.00  0.00    +0.121 C 
ATOM     13  C   UNL     1      -0.326  -4.721  -1.476  0.00  0.00    +0.190 C 
ATOM     14  S   UNL     1       1.402  -5.168  -1.944  0.00  0.00    -0.027 S 
ATOM     15  O   UNL     1       1.378  -6.291  -2.815  0.00  0.00    -0.174 OA
ATOM     16  O   UNL     1       2.105  -3.994  -2.326  0.00  0.00    -0.174 OA
ATOM     17  C   UNL     1       1.969  -5.704  -0.271  0.00  0.00    +0.199 C 
ATOM     18  C   UNL     1       1.132  -4.782   0.638  0.00  0.00    +0.157 C 
BRANCH  18  19
ATOM     19  O   UNL     1       0.759  -5.516   1.806  0.00  0.00    -0.388 OA
ATOM     20  H   UNL     1       1.507  -5.895   2.287  0.00  0.00    +0.210 HD
ENDBRANCH  18  19
ENDBRANCH  10  12
ENDBRANCH   6  10
BRANCH   3  21
ATOM     21  O   UNL     1      -4.751   0.177   0.037  0.00  0.00    -0.494 OA
ATOM     22  C   UNL     1      -4.622   1.600   0.039  0.00  0.00    +0.277 C 
ENDBRANCH   3  21
TORSDOF 5
