REMARK  Name = ZINC15040403
REMARK  8 active torsions:
REMARK  status: ('A' for Active; 'I' for Inactive)
REMARK    1  A    between atoms: C_1  and  C_2
REMARK    2  A    between atoms: C_2  and  C_4
REMARK    3  A    between atoms: C_2  and  N_13
REMARK    4  A    between atoms: C_14  and  C_16
REMARK    5  A    between atoms: C_16  and  N_17
REMARK    6  A    between atoms: C_18  and  C_20
REMARK    7  A    between atoms: C_20  and  N_21
REMARK    8  A    between atoms: C_22  and  C_24
REMARK                            x       y       z     vdW  Elec       q    Type
REMARK                         _______ _______ _______ _____ _____    ______ ____
ROOT
ATOM      1  N   UNL     1       7.013   2.843  -2.885  0.00  0.00    -0.305 N 
ATOM      2  C   UNL     1       7.597   3.725  -3.721  0.00  0.00    +0.231 C 
ATOM      3  O   UNL     1       6.998   4.720  -4.068  0.00  0.00    -0.274 OA
ATOM      4  H   UNL     1       7.493   2.047  -2.608  0.00  0.00    +0.149 HD
ENDROOT
BRANCH   1   5
ATOM      5  C   UNL     1       5.654   3.088  -2.396  0.00  0.00    +0.200 C 
BRANCH   5   7
ATOM      6  N   UNL     1       4.017   1.973  -0.913  0.00  0.00    -0.304 N 
ATOM      7  C   UNL     1       5.238   1.962  -1.485  0.00  0.00    +0.231 C 
ATOM      8  O   UNL     1       6.002   1.046  -1.266  0.00  0.00    -0.274 OA
ATOM      9  H   UNL     1       3.407   2.706  -1.089  0.00  0.00    +0.149 HD
BRANCH   6  11
ATOM     10  C   UNL     1       4.118   1.157   1.390  0.00  0.00    +0.036 C 
ATOM     11  C   UNL     1       3.613   0.879  -0.028  0.00  0.00    +0.136 C 
BRANCH  11  12
ATOM     12  C   UNL     1       2.110   0.773  -0.014  0.00  0.00    +0.126 A 
ATOM     13  C   UNL     1       1.422  -0.377  -0.013  0.00  0.00    +0.055 A 
ATOM     14  C   UNL     1       0.002  -0.004   0.002  0.00  0.00    +0.020 A 
ATOM     15  C   UNL     1      -1.194  -0.720   0.010  0.00  0.00    +0.011 A 
ATOM     16  C   UNL     1      -2.385  -0.050   0.025  0.00  0.00    +0.001 A 
ATOM     17  C   UNL     1      -2.411   1.337   0.034  0.00  0.00    +0.004 A 
ATOM     18  C   UNL     1      -1.238   2.062   0.030  0.00  0.00    +0.047 A 
ATOM     19  C   UNL     1      -0.017   1.401   0.010  0.00  0.00    +0.135 A 
ATOM     20  O   UNL     1       1.265   1.819  -0.000  0.00  0.00    -0.458 OA
ENDBRANCH  11  12
ENDBRANCH   6  11
ENDBRANCH   5   7
ENDBRANCH   1   5
BRANCH   2  21
ATOM     21  C   UNL     1       8.995   3.473  -4.224  0.00  0.00    +0.200 C 
BRANCH  21  22
ATOM     22  N   UNL     1       9.400   4.568  -5.110  0.00  0.00    -0.303 N 
ATOM     23  C   UNL     1      10.620   4.556  -5.682  0.00  0.00    +0.246 C 
ATOM     24  O   UNL     1      11.386   3.638  -5.462  0.00  0.00    -0.270 OA
ATOM     25  H   UNL     1       8.789   5.301  -5.286  0.00  0.00    +0.150 HD
BRANCH  23  26
ATOM     26  C   UNL     1      11.028   5.660  -6.575  0.00  0.00    +0.055 A 
ATOM     27  C   UNL     1      10.151   6.717  -6.829  0.00  0.00    +0.016 A 
ATOM     28  C   UNL     1      10.537   7.744  -7.663  0.00  0.00    +0.021 A 
ATOM     29  C   UNL     1      11.793   7.730  -8.249  0.00  0.00    +0.042 A 
ATOM     30  C   UNL     1      12.668   6.687  -8.002  0.00  0.00    +0.040 A 
ATOM     31  C   UNL     1      12.295   5.654  -7.164  0.00  0.00    +0.054 A 
ATOM     32 CL   UNL     1      13.395   4.349  -6.849  0.00  0.00    -0.083 Cl
ATOM     33 CL   UNL     1      12.271   9.028  -9.299  0.00  0.00    -0.083 Cl
ENDBRANCH  23  26
ENDBRANCH  21  22
ENDBRANCH   2  21
TORSDOF 7
