REMARK  Name = ZINC39674577
REMARK  9 active torsions:
REMARK  status: ('A' for Active; 'I' for Inactive)
REMARK    1  A    between atoms: C_1  and  C_2
REMARK    2  A    between atoms: C_4  and  C_9
REMARK    3  A    between atoms: C_5  and  C_8
REMARK    4  A    between atoms: C_9  and  C_11
REMARK    5  A    between atoms: C_9  and  N_12
REMARK    6  A    between atoms: C_13  and  C_15
REMARK    7  A    between atoms: C_26  and  C_28
REMARK    8  A    between atoms: C_31  and  C_35
REMARK    9  A    between atoms: N_32  and  C_34
REMARK                            x       y       z     vdW  Elec       q    Type
REMARK                         _______ _______ _______ _____ _____    ______ ____
ROOT
ATOM      1  C   UNL     1       0.305   3.075  -4.237  0.00  0.00    +0.100 C 
ATOM      2  C   UNL     1      -1.101   3.591  -3.859  0.00  0.00    +0.121 C 
ATOM      3  N   UNL     1      -1.470   4.511  -4.960  0.00  0.00    -0.299 N 
ATOM      4  C   UNL     1      -0.965   3.844  -6.184  0.00  0.00    +0.115 C 
ATOM      5  C   UNL     1       0.391   3.242  -5.763  0.00  0.00    -0.004 C 
ATOM      6  C   UNL     1       1.526   4.193  -6.128  0.00  0.00    -0.010 C 
ATOM      7  C   UNL     1       1.627   4.298  -7.652  0.00  0.00    -0.082 C 
ATOM      8  N   UNL     1       1.875   2.968  -8.221  0.00  0.00    +0.379 N 
ATOM      9  C   UNL     1       0.735   2.085  -7.945  0.00  0.00    -0.082 C 
ATOM     10  C   UNL     1       0.596   1.886  -6.433  0.00  0.00    -0.010 C 
ATOM     11  C   UNL     1      -2.119   5.689  -4.870  0.00  0.00    +0.238 C 
ATOM     12  O   UNL     1      -2.350   6.332  -5.872  0.00  0.00    -0.273 OA
ATOM     13  H   UNL     1       2.001   3.049  -9.219  0.00  0.00    -0.086 HD
ATOM     14  H   UNL     1       2.709   2.577  -7.809  0.00  0.00    -0.086 HD
ENDROOT
BRANCH  11  15
ATOM     15  C   UNL     1      -2.557   6.207  -3.524  0.00  0.00    +0.183 C 
ATOM     16  C   UNL     1      -3.570   5.271  -2.901  0.00  0.00    +0.022 C 
ATOM     17  C   UNL     1      -4.681   5.961  -2.744  0.00  0.00    +0.017 C 
ATOM     18  N   UNL     1      -4.542   7.261  -3.188  0.00  0.00    -0.274 N 
ATOM     19  N   UNL     1      -3.282   7.484  -3.673  0.00  0.00    -0.225 NA
ATOM     20  C   UNL     1      -5.604   8.270  -3.146  0.00  0.00    +0.149 C 
ATOM     21  C   UNL     1      -5.949   5.401  -2.151  0.00  0.00    +0.061 C 
ATOM     22  H   UNL     1      -2.822   8.223  -3.163  0.00  0.00    +0.146 HD
ENDBRANCH  11  15
BRANCH   1  24
ATOM     23  N   UNL     1       1.667   1.120  -3.570  0.00  0.00    -0.309 N 
ATOM     24  C   UNL     1       0.451   1.623  -3.859  0.00  0.00    +0.219 C 
ATOM     25  O   UNL     1      -0.528   0.907  -3.814  0.00  0.00    -0.275 OA
ATOM     26  H   UNL     1       2.450   1.692  -3.606  0.00  0.00    +0.149 HD
BRANCH  23  27
ATOM     27  C   UNL     1       1.808  -0.291  -3.203  0.00  0.00    +0.100 C 
ATOM     28  C   UNL     1       1.621  -0.446  -1.692  0.00  0.00    +0.033 C 
BRANCH  27  31
ATOM     29  C   UNL     1       4.682   1.232  -3.642  0.00  0.00    +0.039 C 
ATOM     30  C   UNL     1       4.527  -0.214  -3.167  0.00  0.00    +0.154 C 
ATOM     31  C   UNL     1       3.181  -0.776  -3.591  0.00  0.00    -0.001 C 
ATOM     32  C   UNL     1       3.497  -1.801  -4.386  0.00  0.00    +0.063 C 
ATOM     33  N   UNL     1       4.838  -1.928  -4.496  0.00  0.00    -0.159 NA
ATOM     34  N   UNL     1       5.488  -1.094  -3.853  0.00  0.00    -0.180 NA
ATOM     35  C   UNL     1       2.494  -2.695  -5.069  0.00  0.00    +0.067 C 
ENDBRANCH  27  31
ENDBRANCH  23  27
ENDBRANCH   1  24
TORSDOF 4
