REMARK  Name = ZINC63384390
REMARK  9 active torsions:
REMARK  status: ('A' for Active; 'I' for Inactive)
REMARK    1  A    between atoms: C_1  and  C_2
REMARK    2  A    between atoms: C_2  and  C_39
REMARK    3  A    between atoms: C_3  and  C_14
REMARK    4  A    between atoms: N_16  and  C_17
REMARK    5  A    between atoms: C_17  and  C_19
REMARK    6  A    between atoms: C_17  and  C_29
REMARK    7  A    between atoms: C_19  and  C_20
REMARK    8  A    between atoms: N_31  and  C_32
REMARK    9  A    between atoms: C_32  and  C_33
REMARK                            x       y       z     vdW  Elec       q    Type
REMARK                         _______ _______ _______ _____ _____    ______ ____
ROOT
ATOM      1  C   UNL     1      -3.594   0.294  -2.741  0.00  0.00    +0.163 C 
ENDROOT
BRANCH   1   4
ATOM      2  C   UNL     1      -3.142   0.787  -0.398  0.00  0.00    +0.236 C 
ATOM      3  O   UNL     1      -4.066   1.574  -0.413  0.00  0.00    -0.274 OA
ATOM      4  N   UNL     1      -2.861   0.057  -1.495  0.00  0.00    -0.302 N 
ATOM      5  H   UNL     1      -2.172  -0.625  -1.460  0.00  0.00    +0.150 HD
BRANCH   2   8
ATOM      6  C   UNL     1      -2.078  -1.905   1.064  0.00  0.00    +0.037 C 
ATOM      7  C   UNL     1      -2.768  -0.652   1.607  0.00  0.00    +0.111 C 
ATOM      8  C   UNL     1      -2.310   0.627   0.848  0.00  0.00    +0.190 C 
ATOM      9  N   UNL     1      -2.464   1.822   1.684  0.00  0.00    -0.265 N 
ATOM     10  C   UNL     1      -2.351   1.615   3.134  0.00  0.00    +0.228 C 
ATOM     11  S   UNL     1      -2.147  -0.208   3.291  0.00  0.00    -0.004 S 
ATOM     12  O   UNL     1      -3.049  -0.701   4.272  0.00  0.00    -0.172 OA
ATOM     13  O   UNL     1      -0.764  -0.521   3.381  0.00  0.00    -0.172 OA
ATOM     14  C   UNL     1      -1.045   2.387   3.088  0.00  0.00    +0.142 C 
ATOM     15  C   UNL     1      -1.464   2.724   1.688  0.00  0.00    +0.221 C 
ATOM     16  O   UNL     1      -1.054   3.516   0.866  0.00  0.00    -0.275 OA
ATOM     17  C   UNL     1      -4.290  -0.803   1.590  0.00  0.00    +0.037 C 
ENDBRANCH   2   8
ENDBRANCH   1   4
BRANCH   1  18
ATOM     18  C   UNL     1      -4.841  -0.552  -2.758  0.00  0.00    +0.234 C 
ATOM     19  O   UNL     1      -4.925  -1.524  -2.037  0.00  0.00    -0.274 OA
ATOM     20  N   UNL     1      -5.863  -0.229  -3.575  0.00  0.00    -0.310 N 
ATOM     21  H   UNL     1      -5.796   0.548  -4.152  0.00  0.00    +0.149 HD
BRANCH  20  22
ATOM     22  C   UNL     1      -7.075  -1.052  -3.592  0.00  0.00    +0.139 C 
BRANCH  22  23
ATOM     23  C   UNL     1      -8.056  -0.480  -4.583  0.00  0.00    -0.030 A 
ATOM     24  C   UNL     1      -8.977   0.467  -4.176  0.00  0.00    +0.005 A 
ATOM     25  C   UNL     1      -9.877   0.992  -5.085  0.00  0.00    +0.000 A 
ATOM     26  C   UNL     1      -9.856   0.569  -6.401  0.00  0.00    +0.000 A 
ATOM     27  C   UNL     1      -8.935  -0.378  -6.808  0.00  0.00    +0.000 A 
ATOM     28  C   UNL     1      -8.032  -0.899  -5.900  0.00  0.00    +0.005 A 
ENDBRANCH  22  23
ENDBRANCH  20  22
ENDBRANCH   1  18
BRANCH   1  29
ATOM     29  C   UNL     1      -2.709  -0.077  -3.932  0.00  0.00    +0.065 C 
BRANCH  29  30
ATOM     30  C   UNL     1      -1.533   0.863  -3.997  0.00  0.00    -0.039 C 
ATOM     31  C   UNL     1      -0.299   0.659  -3.481  0.00  0.00    -0.001 A 
ATOM     32  C   UNL     1       0.293  -0.457  -2.733  0.00  0.00    +0.010 A 
ATOM     33  C   UNL     1       1.585  -0.370  -2.340  0.00  0.00    +0.001 A 
ATOM     34  C   UNL     1       2.369   0.756  -2.627  0.00  0.00    +0.002 A 
ATOM     35  C   UNL     1       1.894   1.820  -3.309  0.00  0.00    +0.026 A 
ATOM     36  C   UNL     1       0.550   1.836  -3.772  0.00  0.00    +0.043 A 
ATOM     37  N   UNL     1      -0.132   2.733  -4.442  0.00  0.00    -0.380 N 
ATOM     38  C   UNL     1      -1.491   2.223  -4.657  0.00  0.00    +0.144 C 
ATOM     39  H   UNL     1       0.206   3.589  -4.748  0.00  0.00    +0.160 HD
ENDBRANCH  29  30
ENDBRANCH   1  29
TORSDOF 7
