REMARK  Name = ZINC39674770
REMARK  10 active torsions:
REMARK  status: ('A' for Active; 'I' for Inactive)
REMARK    1  A    between atoms: C_1  and  C_2
REMARK    2  A    between atoms: C_2  and  S_3
REMARK    3  A    between atoms: S_3  and  C_4
REMARK    4  A    between atoms: C_5  and  C_10
REMARK    5  A    between atoms: C_14  and  C_23
REMARK    6  A    between atoms: N_25  and  C_26
REMARK    7  A    between atoms: C_26  and  C_27
REMARK    8  A    between atoms: C_27  and  C_28
REMARK    9  A    between atoms: C_31  and  C_39
REMARK   10  A    between atoms: C_36  and  C_38
REMARK                            x       y       z     vdW  Elec       q    Type
REMARK                         _______ _______ _______ _____ _____    ______ ____
ROOT
ATOM      1  C   UNL     1       1.890  -2.660  -3.424  0.00  0.00    +0.249 C 
ATOM      2  O   UNL     1       1.894  -1.446  -3.502  0.00  0.00    -0.270 OA
ATOM      3  N   UNL     1       2.583  -3.395  -4.316  0.00  0.00    -0.296 N 
ATOM      4  C   UNL     1       2.616  -4.870  -4.447  0.00  0.00    +0.121 C 
ATOM      5  C   UNL     1       2.626  -5.126  -5.971  0.00  0.00    +0.100 C 
ATOM      6  C   UNL     1       3.200  -3.837  -6.582  0.00  0.00    -0.004 C 
ATOM      7  C   UNL     1       3.481  -2.909  -5.391  0.00  0.00    +0.115 C 
ATOM      8  C   UNL     1       2.178  -3.193  -7.514  0.00  0.00    -0.010 C 
ATOM      9  C   UNL     1       2.792  -1.944  -8.153  0.00  0.00    -0.082 C 
ATOM     10  N   UNL     1       3.999  -2.318  -8.900  0.00  0.00    +0.379 N 
ATOM     11  C   UNL     1       5.012  -2.851  -7.981  0.00  0.00    -0.082 C 
ATOM     12  C   UNL     1       4.492  -4.138  -7.335  0.00  0.00    -0.010 C 
ATOM     13  H   UNL     1       3.764  -3.021  -9.585  0.00  0.00    -0.086 HD
ATOM     14  H   UNL     1       4.367  -1.504  -9.370  0.00  0.00    -0.086 HD
ENDROOT
BRANCH   1  16
ATOM     15  C   UNL     1      -0.102  -2.802  -1.916  0.00  0.00    +0.109 A 
ATOM     16  C   UNL     1       1.127  -3.327  -2.353  0.00  0.00    +0.069 A 
ATOM     17  C   UNL     1       1.613  -4.495  -1.754  0.00  0.00    +0.017 A 
ATOM     18  C   UNL     1       0.859  -5.083  -0.754  0.00  0.00    +0.020 A 
ATOM     19  C   UNL     1      -0.342  -4.508  -0.377  0.00  0.00    +0.112 A 
ATOM     20  N   UNL     1      -0.780  -3.404  -0.950  0.00  0.00    -0.248 NA
BRANCH  15  21
ATOM     21  S   UNL     1      -0.739  -1.333  -2.650  0.00  0.00    -0.105 S 
BRANCH  21  23
ATOM     22  C   UNL     1      -2.969   0.217  -2.322  0.00  0.00    +0.015 C 
ATOM     23  C   UNL     1      -2.301  -1.046  -1.775  0.00  0.00    +0.072 C 
ENDBRANCH  21  23
ENDBRANCH  15  21
ENDBRANCH   1  16
BRANCH   5  24
ATOM     24  C   UNL     1       3.508  -6.303  -6.300  0.00  0.00    +0.218 C 
ATOM     25  O   UNL     1       4.474  -6.549  -5.608  0.00  0.00    -0.275 OA
ATOM     26  N   UNL     1       3.225  -7.082  -7.362  0.00  0.00    -0.315 N 
ATOM     27  H   UNL     1       2.452  -6.886  -7.915  0.00  0.00    +0.149 HD
BRANCH  26  28
ATOM     28  C   UNL     1       4.082  -8.226  -7.681  0.00  0.00    +0.108 C 
BRANCH  28  29
ATOM     29  C   UNL     1       3.543  -8.937  -8.924  0.00  0.00    +0.052 C 
BRANCH  29  30
ATOM     30  C   UNL     1       4.425 -10.114  -9.253  0.00  0.00    -0.037 C 
ATOM     31  C   UNL     1       5.530 -10.520  -8.576  0.00  0.00    +0.000 A 
ATOM     32  C   UNL     1       6.174 -10.007  -7.420  0.00  0.00    +0.028 A 
ATOM     33  C   UNL     1       7.305 -10.619  -6.931  0.00  0.00    +0.052 A 
ATOM     34  C   UNL     1       7.867 -11.799  -7.579  0.00  0.00    +0.021 A 
ATOM     35  C   UNL     1       7.298 -12.330  -8.680  0.00  0.00    +0.027 A 
ATOM     36  C   UNL     1       6.090 -11.716  -9.243  0.00  0.00    +0.043 A 
ATOM     37  N   UNL     1       5.365 -12.038 -10.286  0.00  0.00    -0.378 N 
ATOM     38  C   UNL     1       4.255 -11.085 -10.398  0.00  0.00    +0.103 C 
ATOM     39  C   UNL     1       2.916 -11.815 -10.277  0.00  0.00    +0.035 C 
ATOM     40  H   UNL     1       5.532 -12.785 -10.882  0.00  0.00    +0.160 HD
BRANCH  33  41
ATOM     41  C   UNL     1       7.942 -10.088  -5.764  0.00  0.00    +0.099 C 
ATOM     42  N   UNL     1       8.447  -9.666  -4.838  0.00  0.00    -0.191 NA
ENDBRANCH  33  41
ENDBRANCH  29  30
ENDBRANCH  28  29
ENDBRANCH  26  28
ENDBRANCH   5  24
TORSDOF 8
