REMARK  Name = ZINC09008287
REMARK  7 active torsions:
REMARK  status: ('A' for Active; 'I' for Inactive)
REMARK    1  A    between atoms: C_1  and  C_2
REMARK    2  A    between atoms: C_2  and  O_3
REMARK    3  A    between atoms: O_3  and  C_4
REMARK    4  A    between atoms: C_9  and  N_10
REMARK    5  A    between atoms: C_11  and  C_13
REMARK    6  A    between atoms: C_23  and  C_32
REMARK    7  A    between atoms: C_26  and  C_31
REMARK                            x       y       z     vdW  Elec       q    Type
REMARK                         _______ _______ _______ _____ _____    ______ ____
ROOT
ATOM      1  C   UNL     1       3.082  -1.100   5.568  0.00  0.00    +0.176 C 
ATOM      2  C   UNL     1       4.457  -0.553   5.177  0.00  0.00    +0.130 C 
ATOM      3  C   UNL     1       5.480  -1.655   5.308  0.00  0.00    +0.222 C 
ATOM      4  O   UNL     1       6.433  -1.698   4.560  0.00  0.00    -0.275 OA
ATOM      5  N   UNL     1       5.322  -2.591   6.266  0.00  0.00    -0.260 N 
ATOM      6  C   UNL     1       4.242  -2.529   7.122  0.00  0.00    +0.167 C 
ATOM      7  N   UNL     1       4.288  -3.213   8.317  0.00  0.00    -0.258 N 
ATOM      8  C   UNL     1       3.172  -3.247   9.140  0.00  0.00    +0.222 A 
ATOM      9  N   UNL     1       3.212  -3.999  10.238  0.00  0.00    -0.219 NA
ATOM     10  C   UNL     1       2.186  -4.073  11.060  0.00  0.00    +0.051 A 
ATOM     11  C   UNL     1       1.028  -3.333  10.755  0.00  0.00    +0.022 A 
ATOM     12  C   UNL     1      -0.108  -3.357  11.577  0.00  0.00    +0.015 A 
ATOM     13  C   UNL     1      -1.201  -2.620  11.233  0.00  0.00    -0.050 A 
ATOM     14  C   UNL     1      -1.207  -1.845  10.075  0.00  0.00    +0.005 A 
ATOM     15  C   UNL     1      -0.121  -1.800   9.254  0.00  0.00    +0.029 A 
ATOM     16  C   UNL     1       1.023  -2.544   9.576  0.00  0.00    +0.076 A 
ATOM     17  N   UNL     1       2.118  -2.530   8.806  0.00  0.00    -0.214 NA
ATOM     18  C   UNL     1      -2.422  -2.645  12.116  0.00  0.00    +0.044 C 
ATOM     19  C   UNL     1       2.250  -4.929  12.298  0.00  0.00    +0.066 C 
ATOM     20  H   UNL     1       5.969  -3.308   6.354  0.00  0.00    +0.157 HD
ATOM     21  H   UNL     1       5.101  -3.671   8.582  0.00  0.00    +0.158 HD
ATOM     22  N   UNL     1       3.124  -1.841   6.879  0.00  0.00    -0.349 N 
ATOM     23  H   UNL     1       2.342  -1.818   7.544  0.00  0.00    +0.163 HD
ENDROOT
BRANCH   1  25
ATOM     24  N   UNL     1       2.026  -1.506   3.368  0.00  0.00    -0.281 N 
ATOM     25  C   UNL     1       2.582  -2.020   4.484  0.00  0.00    +0.240 C 
ATOM     26  O   UNL     1       2.679  -3.221   4.615  0.00  0.00    -0.273 OA
ATOM     27  H   UNL     1       2.021  -0.547   3.227  0.00  0.00    +0.155 HD
BRANCH  24  33
ATOM     28  C   UNL     1       1.350  -1.949   1.086  0.00  0.00    +0.142 A 
ATOM     29  C   UNL     1       0.790  -2.798   0.145  0.00  0.00    +0.047 A 
ATOM     30  C   UNL     1       0.335  -4.047   0.525  0.00  0.00    +0.004 A 
ATOM     31  C   UNL     1       0.436  -4.453   1.843  0.00  0.00    +0.002 A 
ATOM     32  C   UNL     1       0.993  -3.611   2.788  0.00  0.00    +0.027 A 
ATOM     33  C   UNL     1       1.456  -2.359   2.413  0.00  0.00    +0.076 A 
BRANCH  28  34
ATOM     34  O   UNL     1       1.798  -0.720   0.714  0.00  0.00    -0.490 OA
BRANCH  34  36
ATOM     35  C   UNL     1       2.217   1.038  -0.890  0.00  0.00    +0.048 C 
ATOM     36  C   UNL     1       1.662  -0.370  -0.664  0.00  0.00    +0.226 C 
ENDBRANCH  34  36
ENDBRANCH  28  34
ENDBRANCH  24  33
ENDBRANCH   1  25
TORSDOF 4
