REMARK  Name = ZINC66369863
REMARK  7 active torsions:
REMARK  status: ('A' for Active; 'I' for Inactive)
REMARK    1  A    between atoms: N_3  and  S_15
REMARK    2  A    between atoms: C_6  and  C_7
REMARK    3  A    between atoms: C_7  and  N_8
REMARK    4  A    between atoms: N_8  and  C_9
REMARK    5  A    between atoms: C_10  and  C_11
REMARK    6  A    between atoms: C_10  and  C_13
REMARK    7  A    between atoms: S_15  and  C_18
REMARK                            x       y       z     vdW  Elec       q    Type
REMARK                         _______ _______ _______ _____ _____    ______ ____
ROOT
ATOM      1  C   UNL     1      -0.019   1.526   0.010  0.00  0.00    +0.022 C 
ATOM      2  C   UNL     1       1.420   2.052  -0.001  0.00  0.00    +0.109 C 
ATOM      3  N   UNL     1       2.130   1.465  -1.145  0.00  0.00    -0.173 NA
ATOM      4  C   UNL     1       2.135   0.004  -1.299  0.00  0.00    +0.109 C 
ATOM      5  C   UNL     1       0.688  -0.500  -1.273  0.00  0.00    +0.022 C 
ATOM      6  C   UNL     1       0.002  -0.004   0.002  0.00  0.00    +0.009 C 
ENDROOT
BRANCH   3   7
ATOM      7  S   UNL     1       2.909   2.431  -2.241  0.00  0.00    +0.129 S 
ATOM      8  O   UNL     1       2.925   1.675  -3.444  0.00  0.00    -0.150 OA
ATOM      9  O   UNL     1       2.227   3.676  -2.176  0.00  0.00    -0.150 OA
BRANCH   7  10
ATOM     10  C   UNL     1       4.594   2.608  -1.592  0.00  0.00    +0.536 C 
ATOM     11  F   UNL     1       5.191   1.347  -1.497  0.00  0.00    -0.149 F 
ATOM     12  F   UNL     1       5.343   3.416  -2.454  0.00  0.00    -0.149 F 
ATOM     13  F   UNL     1       4.545   3.198  -0.324  0.00  0.00    -0.149 F 
ENDBRANCH   7  10
ENDBRANCH   3   7
BRANCH   6  14
ATOM     14  C   UNL     1      -1.433  -0.534   0.048  0.00  0.00    +0.104 C 
BRANCH  14  15
ATOM     15  N   UNL     1      -1.411  -1.994   0.160  0.00  0.00    -0.348 N 
ATOM     16  H   UNL     1      -0.564  -2.465   0.193  0.00  0.00    +0.146 HD
BRANCH  15  17
ATOM     17  C   UNL     1      -2.578  -2.689   0.218  0.00  0.00    +0.097 C 
ATOM     18  C   UNL     1      -2.557  -4.062   0.323  0.00  0.00    +0.141 C 
BRANCH  18  19
ATOM     19  C   UNL     1      -3.787  -4.794   0.384  0.00  0.00    +0.111 C 
ATOM     20  N   UNL     1      -4.762  -5.374   0.432  0.00  0.00    -0.190 NA
ENDBRANCH  18  19
BRANCH  18  21
ATOM     21  C   UNL     1      -1.307  -4.758   0.372  0.00  0.00    +0.111 C 
ATOM     22  N   UNL     1      -0.315  -5.309   0.411  0.00  0.00    -0.190 NA
ENDBRANCH  18  21
ENDBRANCH  15  17
ENDBRANCH  14  15
ENDBRANCH   6  14
TORSDOF 7
