REMARK  Name = ZINC20123497
REMARK  10 active torsions:
REMARK  status: ('A' for Active; 'I' for Inactive)
REMARK    1  A    between atoms: C_1  and  C_2
REMARK    2  A    between atoms: C_2  and  C_3
REMARK    3  A    between atoms: C_2  and  C_4
REMARK    4  A    between atoms: C_4  and  C_5
REMARK    5  A    between atoms: N_10  and  C_13
REMARK    6  A    between atoms: C_13  and  C_14
REMARK    7  A    between atoms: C_14  and  N_15
REMARK    8  A    between atoms: N_15  and  C_16
REMARK    9  A    between atoms: C_16  and  C_38
REMARK   10  A    between atoms: C_18  and  C_32
REMARK                            x       y       z     vdW  Elec       q    Type
REMARK                         _______ _______ _______ _____ _____    ______ ____
ROOT
ATOM      1  C   UNL     1      -7.178  -8.072   2.070  0.00  0.00    +0.015 C 
ATOM      2  C   UNL     1      -8.014  -8.828   2.869  0.00  0.00    +0.083 C 
ATOM      3  C   UNL     1      -8.479 -10.207   2.622  0.00  0.00    +0.103 C 
ATOM      4  N   UNL     1      -9.251 -10.539   3.624  0.00  0.00    -0.169 NA
ATOM      5  N   UNL     1      -9.343  -9.482   4.532  0.00  0.00    -0.131 N 
ATOM      6  C   UNL     1      -8.603  -8.441   4.105  0.00  0.00    +0.276 C 
ATOM      7  O   UNL     1      -8.466  -7.369   4.670  0.00  0.00    -0.268 OA
ATOM      8  C   UNL     1     -10.084  -9.504   5.705  0.00  0.00    +0.189 A 
ATOM      9  N   UNL     1     -10.229  -8.559   6.604  0.00  0.00    -0.223 NA
ATOM     10  C   UNL     1     -10.988  -8.719   7.709  0.00  0.00    +0.080 A 
ATOM     11  C   UNL     1     -11.225  -7.789   8.748  0.00  0.00    +0.029 A 
ATOM     12  C   UNL     1     -12.029  -8.114   9.809  0.00  0.00    +0.002 A 
ATOM     13  C   UNL     1     -12.636  -9.358   9.904  0.00  0.00    +0.001 A 
ATOM     14  C   UNL     1     -12.426 -10.293   8.907  0.00  0.00    +0.017 A 
ATOM     15  C   UNL     1     -11.622  -9.976   7.840  0.00  0.00    +0.041 A 
ATOM     16  S   UNL     1     -11.089 -10.822   6.372  0.00  0.00    -0.050 S 
ATOM     17  C   UNL     1      -6.573  -8.676   0.829  0.00  0.00    +0.061 C 
ENDROOT
BRANCH   3  18
ATOM     18  C   UNL     1      -8.135 -11.057   1.458  0.00  0.00    +0.003 A 
ATOM     19  C   UNL     1      -6.818 -11.470   1.257  0.00  0.00    +0.010 A 
ATOM     20  C   UNL     1      -6.504 -12.261   0.171  0.00  0.00    +0.001 A 
ATOM     21  C   UNL     1      -7.492 -12.644  -0.718  0.00  0.00    +0.000 A 
ATOM     22  C   UNL     1      -8.800 -12.237  -0.524  0.00  0.00    +0.001 A 
ATOM     23  C   UNL     1      -9.128 -11.451   0.561  0.00  0.00    +0.010 A 
ENDBRANCH   3  18
BRANCH   1  24
ATOM     24  N   UNL     1      -6.903  -6.793   2.400  0.00  0.00    -0.345 N 
ATOM     25  H   UNL     1      -7.293  -6.403   3.199  0.00  0.00    +0.146 HD
BRANCH  24  26
ATOM     26  C   UNL     1      -6.017  -5.991   1.552  0.00  0.00    +0.116 C 
BRANCH  26  27
ATOM     27  C   UNL     1      -5.873  -4.589   2.147  0.00  0.00    +0.103 C 
BRANCH  27  33
ATOM     28  C   UNL     1      -1.769  -1.364   0.663  0.00  0.00    +0.216 C 
ATOM     29  O   UNL     1      -0.670  -1.863   0.543  0.00  0.00    -0.276 OA
ATOM     30  N   UNL     1      -2.873  -2.129   0.546  0.00  0.00    -0.299 N 
ATOM     31  C   UNL     1      -4.215  -1.543   0.682  0.00  0.00    +0.123 C 
ATOM     32  C   UNL     1      -5.008  -2.373   1.698  0.00  0.00    +0.103 C 
ATOM     33  N   UNL     1      -4.984  -3.785   1.297  0.00  0.00    -0.298 NA
ATOM     34  C   UNL     1      -3.616  -4.321   1.312  0.00  0.00    +0.103 C 
ATOM     35  C   UNL     1      -2.767  -3.570   0.274  0.00  0.00    +0.123 C 
BRANCH  28  36
ATOM     36  C   UNL     1      -1.901   0.111   0.942  0.00  0.00    +0.099 C 
BRANCH  36  38
ATOM     37  C   UNL     1      -0.643   2.256   1.186  0.00  0.00    +0.008 C 
ATOM     38  C   UNL     1      -0.509   0.740   1.027  0.00  0.00    -0.008 C 
ATOM     39  C   UNL     1       0.238   0.165   2.232  0.00  0.00    +0.008 C 
ENDBRANCH  36  38
ENDBRANCH  28  36
ENDBRANCH  27  33
ENDBRANCH  26  27
ENDBRANCH  24  26
ENDBRANCH   1  24
TORSDOF 7
