REMARK  Name = ZINC44878984
REMARK  5 active torsions:
REMARK  status: ('A' for Active; 'I' for Inactive)
REMARK    1  A    between atoms: C_1  and  C_2
REMARK    2  A    between atoms: C_12  and  C_14
REMARK    3  A    between atoms: C_14  and  C_16
REMARK    4  A    between atoms: C_14  and  C_17
REMARK    5  A    between atoms: N_18  and  O_19
REMARK                            x       y       z     vdW  Elec       q    Type
REMARK                         _______ _______ _______ _____ _____    ______ ____
ROOT
ATOM      1  C   UNL     1      -0.225  -0.033  -1.134  0.00  0.00    +0.033 C 
ATOM      2  C   UNL     1      -0.162  -1.338  -0.338  0.00  0.00    +0.104 C 
ATOM      3  C   UNL     1       0.507  -2.424  -1.178  0.00  0.00    -0.017 A 
ATOM      4  C   UNL     1      -0.116  -3.047  -2.257  0.00  0.00    +0.013 A 
ATOM      5  C   UNL     1       0.539  -4.000  -2.959  0.00  0.00    +0.046 A 
ATOM      6  S   UNL     1       2.109  -4.068  -2.110  0.00  0.00    -0.101 S 
ATOM      7  C   UNL     1       1.774  -2.828  -0.887  0.00  0.00    -0.004 A 
ATOM      8  C   UNL     1       2.664  -2.341   0.209  0.00  0.00    +0.061 C 
ATOM      9  C   UNL     1       2.106  -1.013   0.744  0.00  0.00    +0.113 C 
ATOM     10  N   UNL     1       0.646  -1.143   0.873  0.00  0.00    -0.294 N 
ATOM     11  C   UNL     1       0.058  -1.085   2.085  0.00  0.00    +0.226 C 
ATOM     12  O   UNL     1       0.739  -1.018   3.086  0.00  0.00    -0.275 OA
ENDROOT
BRANCH  11  13
ATOM     13  C   UNL     1      -1.445  -1.105   2.195  0.00  0.00    +0.138 C 
ATOM     14  C   UNL     1      -1.987   0.315   2.028  0.00  0.00    +0.025 C 
BRANCH  13  15
ATOM     15  C   UNL     1      -1.842  -1.639   3.547  0.00  0.00    +0.143 C 
ATOM     16  N   UNL     1      -2.090  -0.823   4.517  0.00  0.00    -0.076 NA
ATOM     17  N   UNL     1      -1.941  -2.998   3.749  0.00  0.00    -0.343 N 
ATOM     18  H   UNL     1      -1.755  -3.611   3.021  0.00  0.00    +0.144 HD
ATOM     19  H   UNL     1      -2.197  -3.342   4.619  0.00  0.00    +0.144 HD
BRANCH  16  20
ATOM     20  O   UNL     1      -2.463  -1.324   5.787  0.00  0.00    -0.408 OA
ATOM     21  H   UNL     1      -2.628  -0.638   6.448  0.00  0.00    +0.328 HD
ENDBRANCH  16  20
ENDBRANCH  13  15
ENDBRANCH  11  13
TORSDOF 3
