REMARK  Name = ZINC39454650
REMARK  10 active torsions:
REMARK  status: ('A' for Active; 'I' for Inactive)
REMARK    1  A    between atoms: C_1  and  C_2
REMARK    2  A    between atoms: C_2  and  C_3
REMARK    3  A    between atoms: C_2  and  C_4
REMARK    4  A    between atoms: C_4  and  C_5
REMARK    5  A    between atoms: C_5  and  N_6
REMARK    6  A    between atoms: N_6  and  C_7
REMARK    7  A    between atoms: C_9  and  N_24
REMARK    8  A    between atoms: N_11  and  C_17
REMARK    9  A    between atoms: C_17  and  C_18
REMARK   10  A    between atoms: C_25  and  C_27
REMARK                            x       y       z     vdW  Elec       q    Type
REMARK                         _______ _______ _______ _____ _____    ______ ____
ROOT
ATOM      1  N   UNL     1      -3.704  -0.633  -0.816  0.00  0.00    -0.286 N 
ATOM      2  C   UNL     1      -3.604  -1.944  -0.519  0.00  0.00    +0.248 C 
ATOM      3  O   UNL     1      -4.556  -2.534  -0.047  0.00  0.00    -0.270 OA
ENDROOT
BRANCH   2   4
ATOM      4  C   UNL     1      -2.333  -2.667  -0.769  0.00  0.00    +0.051 A 
ATOM      5  C   UNL     1      -1.757  -2.657  -2.007  0.00  0.00    +0.083 A 
ATOM      6  C   UNL     1      -0.505  -3.378  -2.222  0.00  0.00    +0.250 A 
ATOM      7  O   UNL     1       0.010  -3.370  -3.326  0.00  0.00    -0.268 OA
ATOM      8  N   UNL     1       0.088  -4.051  -1.220  0.00  0.00    -0.322 N 
ATOM      9  H   UNL     1       0.919  -4.521  -1.390  0.00  0.00    +0.169 HD
ATOM     10  C   UNL     1      -0.462  -4.085   0.043  0.00  0.00    +0.050 A 
ATOM     11  C   UNL     1      -1.663  -3.404   0.312  0.00  0.00    +0.011 A 
ATOM     12  C   UNL     1      -2.210  -3.439   1.598  0.00  0.00    +0.011 A 
ATOM     13  C   UNL     1      -1.572  -4.130   2.589  0.00  0.00    +0.001 A 
ATOM     14  C   UNL     1      -0.383  -4.798   2.331  0.00  0.00    +0.002 A 
ATOM     15  C   UNL     1       0.168  -4.787   1.068  0.00  0.00    +0.026 A 
ENDBRANCH   2   4
BRANCH   1  16
ATOM     16  C   UNL     1      -4.898   0.119  -0.421  0.00  0.00    +0.167 C 
ATOM     17  C   UNL     1      -5.937   0.063  -1.549  0.00  0.00    +0.048 C 
ATOM     18  N   UNL     1      -6.487  -1.303  -1.580  0.00  0.00    -0.292 N 
ATOM     19  C   UNL     1      -6.934  -1.838  -0.408  0.00  0.00    +0.328 C 
ATOM     20  O   UNL     1      -7.880  -2.794  -0.425  0.00  0.00    -0.250 OA
ATOM     21  N   UNL     1      -6.441  -1.421   0.744  0.00  0.00    -0.126 NA
ATOM     22  C   UNL     1      -5.492  -0.493   0.822  0.00  0.00    +0.261 C 
ATOM     23  O   UNL     1      -5.096  -0.131   1.912  0.00  0.00    -0.272 OA
BRANCH  17  24
ATOM     24  N   UNL     1      -7.012   1.028  -1.284  0.00  0.00    +0.392 N 
ATOM     25  H   UNL     1      -6.624   1.958  -1.234  0.00  0.00    -0.087 HD
ATOM     26  H   UNL     1      -7.692   0.987  -2.029  0.00  0.00    -0.087 HD
ATOM     27  H   UNL     1      -7.459   0.803  -0.408  0.00  0.00    -0.087 HD
ENDBRANCH  17  24
BRANCH  18  28
ATOM     28  C   UNL     1      -6.551  -2.063  -2.830  0.00  0.00    +0.142 C 
BRANCH  28  29
ATOM     29  C   UNL     1      -5.415  -3.052  -2.876  0.00  0.00    -0.030 A 
ATOM     30  C   UNL     1      -4.244  -2.729  -3.535  0.00  0.00    +0.005 A 
ATOM     31  C   UNL     1      -3.201  -3.636  -3.577  0.00  0.00    +0.000 A 
ATOM     32  C   UNL     1      -3.331  -4.867  -2.960  0.00  0.00    +0.000 A 
ATOM     33  C   UNL     1      -4.502  -5.190  -2.300  0.00  0.00    +0.000 A 
ATOM     34  C   UNL     1      -5.543  -4.281  -2.255  0.00  0.00    +0.005 A 
ENDBRANCH  28  29
ENDBRANCH  18  28
ENDBRANCH   1  16
BRANCH   1  35
ATOM     35  C   UNL     1      -2.618   0.040  -1.533  0.00  0.00    +0.109 C 
BRANCH  35  36
ATOM     36  C   UNL     1      -1.546   0.482  -0.536  0.00  0.00    +0.022 C 
BRANCH  36  38
ATOM     37  C   UNL     1      -1.089   2.565  -1.838  0.00  0.00    +0.007 C 
ATOM     38  C   UNL     1      -0.470   1.288  -1.267  0.00  0.00    -0.016 C 
ATOM     39  C   UNL     1       0.646   1.656  -0.288  0.00  0.00    +0.007 C 
ENDBRANCH  36  38
ENDBRANCH  35  36
ENDBRANCH   1  35
TORSDOF 8
