REMARK  Name = ZINC65410362
REMARK  5 active torsions:
REMARK  status: ('A' for Active; 'I' for Inactive)
REMARK    1  A    between atoms: C_3  and  N_7
REMARK    2  A    between atoms: N_7  and  C_8
REMARK    3  A    between atoms: C_8  and  C_9
REMARK    4  A    between atoms: C_9  and  C_10
REMARK    5  A    between atoms: C_17  and  C_23
REMARK                            x       y       z     vdW  Elec       q    Type
REMARK                         _______ _______ _______ _____ _____    ______ ____
ROOT
ATOM      1  C   UNL     1       7.319   1.365  -0.061  0.00  0.00    +0.110 A 
ATOM      2  N   UNL     1       7.642   0.443   0.793  0.00  0.00    -0.228 NA
ATOM      3  C   UNL     1       8.870  -0.064   0.468  0.00  0.00    +0.146 A 
ATOM      4  H   UNL     1       8.332   2.104  -1.723  0.00  0.00    +0.167 HD
ATOM      5  C   UNL     1       9.287   0.588  -0.649  0.00  0.00    +0.049 A 
ATOM      6  N   UNL     1       8.315   1.487  -0.975  0.00  0.00    -0.345 N 
ATOM      7  C   UNL     1      10.551   0.382  -1.422  0.00  0.00    +0.065 C 
ATOM      8  C   UNL     1      11.712  -0.031  -0.556  0.00  0.00    +0.042 C 
ATOM      9  C   UNL     1      11.629  -1.452  -0.070  0.00  0.00    +0.113 C 
ATOM     10  N   UNL     1      10.718  -1.657   1.024  0.00  0.00    -0.309 N 
ATOM     11  C   UNL     1       9.547  -1.103   1.240  0.00  0.00    +0.264 C 
ATOM     12  O   UNL     1       8.945  -1.510   2.215  0.00  0.00    -0.268 OA
ATOM     13  H   UNL     1      11.009  -2.293   1.696  0.00  0.00    +0.149 HD
ENDROOT
BRANCH   8  14
ATOM     14  C   UNL     1      12.985   0.132  -1.346  0.00  0.00    -0.042 A 
ATOM     15  C   UNL     1      13.159  -0.569  -2.525  0.00  0.00    +0.007 A 
ATOM     16  C   UNL     1      14.326  -0.420  -3.251  0.00  0.00    +0.038 A 
ATOM     17  C   UNL     1      15.320   0.431  -2.798  0.00  0.00    +0.123 A 
ATOM     18  C   UNL     1      15.143   1.132  -1.617  0.00  0.00    +0.038 A 
ATOM     19  C   UNL     1      13.974   0.986  -0.895  0.00  0.00    +0.007 A 
ATOM     20  F   UNL     1      16.460   0.577  -3.506  0.00  0.00    -0.205 F 
ENDBRANCH   8  14
BRANCH   1  21
ATOM     21  C   UNL     1       6.043   2.167  -0.045  0.00  0.00    +0.093 C 
BRANCH  21  22
ATOM     22  C   UNL     1       4.844   1.216  -0.038  0.00  0.00    +0.109 C 
BRANCH  22  23
ATOM     23  N   UNL     1       3.603   1.995  -0.022  0.00  0.00    -0.342 N 
ATOM     24  H   UNL     1       3.639   2.964  -0.018  0.00  0.00    +0.146 HD
BRANCH  23  27
ATOM     25  C   UNL     1      -0.017   1.378   0.010  0.00  0.00    +0.021 A 
ATOM     26  C   UNL     1       1.183   2.071   0.002  0.00  0.00    +0.026 A 
ATOM     27  C   UNL     1       2.369   1.341  -0.013  0.00  0.00    +0.045 A 
ATOM     28  C   UNL     1       2.305  -0.047  -0.020  0.00  0.00    +0.133 A 
ATOM     29  N   UNL     1       1.142  -0.666  -0.012  0.00  0.00    -0.261 NA
ATOM     30  C   UNL     1       0.002  -0.004   0.002  0.00  0.00    +0.111 A 
ENDBRANCH  23  27
ENDBRANCH  22  23
ENDBRANCH  21  22
ENDBRANCH   1  21
TORSDOF 5
