REMARK  Name = ZINC39505153
REMARK  6 active torsions:
REMARK  status: ('A' for Active; 'I' for Inactive)
REMARK    1  A    between atoms: C_1  and  C_2
REMARK    2  A    between atoms: C_2  and  O_3
REMARK    3  A    between atoms: O_3  and  C_4
REMARK    4  A    between atoms: C_10  and  C_13
REMARK    5  A    between atoms: C_18  and  O_19
REMARK    6  A    between atoms: N_20  and  O_22
REMARK                            x       y       z     vdW  Elec       q    Type
REMARK                         _______ _______ _______ _____ _____    ______ ____
ROOT
ATOM      1  C   UNL     1       0.770  -1.902   1.249  0.00  0.00    +0.136 C 
ATOM      2  C   UNL     1       2.018  -2.341   2.061  0.00  0.00    +0.057 C 
ATOM      3  C   UNL     1       1.594  -3.707   2.628  0.00  0.00    +0.050 C 
ATOM      4  C   UNL     1       2.175  -4.840   1.775  0.00  0.00    +0.025 C 
ATOM      5  C   UNL     1       3.067  -5.680   2.716  0.00  0.00    +0.010 C 
ATOM      6  C   UNL     1       3.447  -4.700   3.854  0.00  0.00    +0.024 C 
ATOM      7  C   UNL     1       2.145  -3.882   4.052  0.00  0.00    +0.033 C 
ATOM      8  N   UNL     1       0.126  -3.756   2.632  0.00  0.00    -0.182 NA
ATOM      9  C   UNL     1      -0.385  -2.466   2.115  0.00  0.00    +0.146 C 
ENDROOT
BRANCH   6  10
ATOM     10  C   UNL     1       3.804  -5.453   5.110  0.00  0.00    -0.003 A 
ATOM     11  C   UNL     1       2.887  -6.311   5.686  0.00  0.00    +0.007 A 
ATOM     12  C   UNL     1       3.214  -7.002   6.838  0.00  0.00    +0.001 A 
ATOM     13  C   UNL     1       4.460  -6.837   7.416  0.00  0.00    +0.004 A 
ATOM     14  C   UNL     1       5.380  -5.981   6.843  0.00  0.00    +0.046 A 
ATOM     15  C   UNL     1       5.056  -5.290   5.684  0.00  0.00    +0.120 A 
BRANCH  15  16
ATOM     16  O   UNL     1       5.962  -4.452   5.116  0.00  0.00    -0.506 OA
ATOM     17  H   UNL     1       5.913  -3.542   5.440  0.00  0.00    +0.292 HD
ENDBRANCH  15  16
ENDBRANCH   6  10
BRANCH   8  18
ATOM     18  O   UNL     1      -0.386  -4.022   3.976  0.00  0.00    -0.312 OA
ATOM     19  H   UNL     1      -1.351  -4.064   4.028  0.00  0.00    +0.237 HD
ENDBRANCH   8  18
BRANCH   1  20
ATOM     20  O   UNL     1       0.693  -0.477   1.160  0.00  0.00    -0.375 OA
BRANCH  20  22
ATOM     21  C   UNL     1      -0.019   1.526   0.010  0.00  0.00    +0.034 C 
ATOM     22  C   UNL     1       0.002  -0.004   0.002  0.00  0.00    +0.157 C 
ENDBRANCH  20  22
ENDBRANCH   1  20
TORSDOF 5
