REMARK  Name = ZINC07634180
REMARK  8 active torsions:
REMARK  status: ('A' for Active; 'I' for Inactive)
REMARK    1  A    between atoms: C_1  and  C_2
REMARK    2  A    between atoms: C_2  and  C_4
REMARK    3  A    between atoms: C_2  and  S_16
REMARK    4  A    between atoms: N_6  and  C_7
REMARK    5  A    between atoms: C_10  and  C_14
REMARK    6  A    between atoms: S_16  and  C_17
REMARK    7  A    between atoms: N_21  and  C_22
REMARK    8  A    between atoms: C_22  and  C_23
REMARK                            x       y       z     vdW  Elec       q    Type
REMARK                         _______ _______ _______ _____ _____    ______ ____
ROOT
ATOM      1  C   UNL     1      -1.245   6.255  -0.054  0.00  0.00    +0.230 C 
ATOM      2  O   UNL     1      -2.289   5.638  -0.048  0.00  0.00    -0.274 OA
ATOM      3  N   UNL     1      -0.072   5.595   0.033  0.00  0.00    -0.285 N 
ATOM      4  H   UNL     1       0.759   6.090   0.095  0.00  0.00    +0.155 HD
ENDROOT
BRANCH   3   5
ATOM      5  C   UNL     1      -0.055   4.200   0.034  0.00  0.00    +0.035 A 
ATOM      6  C   UNL     1       0.988   3.518  -0.585  0.00  0.00    +0.024 A 
ATOM      7  C   UNL     1       1.009   2.142  -0.587  0.00  0.00    +0.022 A 
ATOM      8  C   UNL     1      -0.020   1.428   0.035  0.00  0.00    +0.070 A 
ATOM      9  C   UNL     1      -1.070   2.116   0.651  0.00  0.00    +0.060 A 
ATOM     10  C   UNL     1      -1.081   3.494   0.654  0.00  0.00    +0.044 A 
ATOM     11 CL   UNL     1      -2.355   1.235   1.418  0.00  0.00    -0.082 Cl
BRANCH   8  12
ATOM     12  C   UNL     1      -0.001  -0.004   0.035  0.00  0.00    +0.101 C 
ATOM     13  N   UNL     1       0.014  -1.140   0.036  0.00  0.00    -0.191 NA
ENDBRANCH   8  12
ENDBRANCH   3   5
BRANCH   1  15
ATOM     14  C   UNL     1      -1.061   8.368   1.230  0.00  0.00    +0.029 C 
ATOM     15  C   UNL     1      -1.257   7.758  -0.159  0.00  0.00    +0.137 C 
BRANCH  15  16
ATOM     16  S   UNL     1      -2.845   8.302  -0.838  0.00  0.00    -0.074 S 
BRANCH  16  17
ATOM     17  C   UNL     1      -2.536  10.030  -0.992  0.00  0.00    +0.192 A 
ATOM     18  N   UNL     1      -1.429  10.656  -0.669  0.00  0.00    -0.123 NA
ATOM     19  N   UNL     1      -1.550  11.912  -0.914  0.00  0.00    -0.137 NA
ATOM     20  C   UNL     1      -2.735  12.161  -1.397  0.00  0.00    +0.226 A 
ATOM     21  N   UNL     1      -3.405  10.971  -1.464  0.00  0.00    -0.305 N 
BRANCH  21  22
ATOM     22  C   UNL     1      -4.772  10.752  -1.942  0.00  0.00    +0.152 C 
BRANCH  22  23
ATOM     23  C   UNL     1      -5.721  10.759  -0.771  0.00  0.00    -0.013 C 
ATOM     24  C   UNL     1      -6.746  11.575  -0.764  0.00  0.00    +0.005 C 
ENDBRANCH  22  23
ENDBRANCH  21  22
ENDBRANCH  16  17
ENDBRANCH  15  16
ENDBRANCH   1  15
TORSDOF 7
