REMARK  Name = ZINC15517298
REMARK  6 active torsions:
REMARK  status: ('A' for Active; 'I' for Inactive)
REMARK    1  A    between atoms: C_1  and  C_2
REMARK    2  A    between atoms: C_6  and  O_8
REMARK    3  A    between atoms: O_8  and  C_9
REMARK    4  A    between atoms: C_9  and  C_10
REMARK    5  A    between atoms: C_10  and  C_11
REMARK    6  A    between atoms: C_11  and  N_12
REMARK                            x       y       z     vdW  Elec       q    Type
REMARK                         _______ _______ _______ _____ _____    ______ ____
ROOT
ATOM      1  N   UNL     1       2.117   9.543   0.028  0.00  0.00    -0.224 N 
ATOM      2  C   UNL     1       2.001  10.300  -1.085  0.00  0.00    +0.246 C 
ATOM      3  O   UNL     1       2.079   9.924  -2.236  0.00  0.00    -0.273 OA
ATOM      4  C   UNL     1       1.757  11.699  -0.589  0.00  0.00    +0.113 C 
ATOM      5  C   UNL     1       2.867  12.651  -1.058  0.00  0.00    +0.035 C 
ATOM      6  C   UNL     1       2.433  14.097  -0.791  0.00  0.00    +0.003 C 
ATOM      7  C   UNL     1       2.379  14.381   0.699  0.00  0.00    +0.000 C 
ATOM      8  C   UNL     1       0.987  14.458   1.296  0.00  0.00    +0.000 C 
ATOM      9  C   UNL     1      -0.153  14.231   0.319  0.00  0.00    +0.000 C 
ATOM     10  C   UNL     1      -0.415  12.741   0.103  0.00  0.00    +0.003 C 
ATOM     11  C   UNL     1       0.423  12.245  -1.067  0.00  0.00    +0.035 C 
ATOM     12  N   UNL     1       1.826  11.595   0.872  0.00  0.00    -0.285 N 
ATOM     13  C   UNL     1       2.019  10.284   1.138  0.00  0.00    +0.309 C 
ATOM     14  O   UNL     1       2.094   9.832   2.264  0.00  0.00    -0.252 OA
ATOM     15  H   UNL     1       1.755  12.297   1.529  0.00  0.00    +0.151 HD
ENDROOT
BRANCH   1  16
ATOM     16  C   UNL     1       2.328   8.094   0.019  0.00  0.00    +0.121 C 
BRANCH  16  17
ATOM     17  C   UNL     1       0.975   7.381   0.029  0.00  0.00    +0.060 C 
BRANCH  17  18
ATOM     18  C   UNL     1       1.196   5.867   0.020  0.00  0.00    +0.230 C 
BRANCH  18  19
ATOM     19  O   UNL     1      -0.069   5.201   0.029  0.00  0.00    -0.492 OA
BRANCH  19  25
ATOM     20  C   UNL     1      -2.514   0.977   0.019  0.00  0.00    +0.044 C 
ATOM     21  C   UNL     1      -1.220   1.750   0.017  0.00  0.00    -0.047 A 
ATOM     22  C   UNL     1      -0.013   1.076   0.008  0.00  0.00    +0.003 A 
ATOM     23  C   UNL     1       1.176   1.782   0.000  0.00  0.00    +0.004 A 
ATOM     24  C   UNL     1       1.160   3.164   0.007  0.00  0.00    +0.045 A 
ATOM     25  C   UNL     1      -0.050   3.842   0.023  0.00  0.00    +0.121 A 
ATOM     26  C   UNL     1      -1.242   3.131   0.031  0.00  0.00    +0.049 A 
ENDBRANCH  19  25
ENDBRANCH  18  19
ENDBRANCH  17  18
ENDBRANCH  16  17
ENDBRANCH   1  16
TORSDOF 5
