REMARK  Name = ZINC42407124
REMARK  7 active torsions:
REMARK  status: ('A' for Active; 'I' for Inactive)
REMARK    1  A    between atoms: CD1_1  and  CG1_2
REMARK    2  A    between atoms: CG1_2  and  CB_3
REMARK    3  A    between atoms: CB_3  and  CG2_5
REMARK    4  A    between atoms: CB_3  and  CA_6
REMARK    5  A    between atoms: CA_6  and  C_8
REMARK    6  A    between atoms: CA_6  and  N_11
REMARK    7  A    between atoms: C_19  and  C_21
REMARK                            x       y       z     vdW  Elec       q    Type
REMARK                         _______ _______ _______ _____ _____    ______ ____
ROOT
ATOM      1  N   ILE A   1       0.189  -3.496   3.099  0.00  0.00    -0.286 N 
ATOM      2  C   UNK A   0       1.121  -4.453   2.926  0.00  0.00    +0.303 C 
ATOM      3  O   UNK A   0       1.033  -5.227   1.993  0.00  0.00    -0.253 OA
ATOM      4  N   UNK A   0       2.152  -4.553   3.789  0.00  0.00    -0.274 N 
ATOM      5  C   UNK A   0       2.207  -3.709   4.991  0.00  0.00    +0.110 C 
ATOM      6  C   UNK A   0       3.551  -2.976   5.019  0.00  0.00    +0.019 C 
ATOM      7  C   UNK A   0       4.687  -3.997   4.915  0.00  0.00    +0.004 C 
ATOM      8  C   UNK A   0       4.576  -4.753   3.589  0.00  0.00    +0.032 C 
ATOM      9  C   UNK A   0       3.240  -5.510   3.548  0.00  0.00    +0.163 C 
ATOM     10  H   ILE A   1       0.217  -2.926   3.883  0.00  0.00    +0.151 HD
ENDROOT
BRANCH   9  11
ATOM     11  C   UNK A   0       3.061  -6.149   2.195  0.00  0.00    +0.231 C 
ATOM     12  O   UNK A   0       2.887  -5.455   1.215  0.00  0.00    -0.274 OA
ATOM     13  N   UNK A   0       3.093  -7.491   2.074  0.00  0.00    -0.328 N 
ATOM     14  H   UNK A   0       3.232  -8.046   2.857  0.00  0.00    +0.145 HD
ATOM     15  H   UNK A   0       2.978  -7.902   1.203  0.00  0.00    +0.145 HD
ENDBRANCH   9  11
BRANCH   1  16
ATOM     16  CA  ILE A   1      -0.869  -3.316   2.101  0.00  0.00    +0.190 C 
BRANCH  16  17
ATOM     17  C   ILE A   1      -2.001  -4.268   2.391  0.00  0.00    +0.376 C 
ATOM     18  O   ILE A   1      -2.899  -4.412   1.580  0.00  0.00    -0.244 OA
ATOM     19  OXT ILE A   1      -2.017  -4.894   3.437  0.00  0.00    -0.244 OA
ENDBRANCH  16  17
BRANCH  16  20
ATOM     20  CB  ILE A   1      -1.386  -1.877   2.160  0.00  0.00    +0.017 C 
ATOM     21  CG2 ILE A   1      -0.237  -0.910   1.865  0.00  0.00    +0.010 C 
BRANCH  20  23
ATOM     22  CD1 ILE A   1      -3.092  -0.289   1.260  0.00  0.00    +0.004 C 
ATOM     23  CG1 ILE A   1      -2.490  -1.689   1.118  0.00  0.00    +0.002 C 
ENDBRANCH  20  23
ENDBRANCH  16  20
ENDBRANCH   1  16
TORSDOF 5
