REMARK  Name = ZINC15967535
REMARK  7 active torsions:
REMARK  status: ('A' for Active; 'I' for Inactive)
REMARK    1  A    between atoms: C_1  and  C_2
REMARK    2  A    between atoms: C_2  and  C_3
REMARK    3  A    between atoms: C_14  and  C_17
REMARK    4  A    between atoms: C_17  and  C_18
REMARK    5  A    between atoms: C_18  and  C_19
REMARK    6  A    between atoms: N_24  and  C_27
REMARK    7  A    between atoms: C_27  and  C_28
REMARK                            x       y       z     vdW  Elec       q    Type
REMARK                         _______ _______ _______ _____ _____    ______ ____
ROOT
ATOM      1  C   UNL     1      -1.412  -0.526   0.013  0.00  0.00    -0.047 A 
ATOM      2  C   UNL     1      -2.053  -0.767   1.214  0.00  0.00    +0.005 A 
ATOM      3  C   UNL     1      -3.346  -1.244   1.230  0.00  0.00    +0.024 A 
ATOM      4  C   UNL     1      -4.018  -1.488   0.034  0.00  0.00    +0.039 A 
ATOM      5  C   UNL     1      -3.363  -1.242  -1.169  0.00  0.00    +0.004 A 
ATOM      6  C   UNL     1      -2.074  -0.759  -1.180  0.00  0.00    +0.011 A 
ATOM      7  C   UNL     1      -4.343  -1.601  -2.250  0.00  0.00    +0.136 C 
ATOM      8  C   UNL     1      -4.640  -0.405  -3.163  0.00  0.00    +0.122 C 
ATOM      9  C   UNL     1      -4.826  -1.028  -4.574  0.00  0.00    +0.107 C 
ATOM     10  C   UNL     1      -4.649  -2.547  -4.364  0.00  0.00    +0.068 C 
ATOM     11  N   UNL     1      -3.815  -2.660  -3.130  0.00  0.00    -0.295 NA
ATOM     12  C   UNL     1      -3.655  -0.477  -5.356  0.00  0.00    +0.227 C 
ATOM     13  O   UNL     1      -3.412  -0.723  -6.518  0.00  0.00    -0.275 OA
ATOM     14  N   UNL     1      -2.931   0.323  -4.566  0.00  0.00    -0.237 N 
ATOM     15  C   UNL     1      -3.399   0.448  -3.303  0.00  0.00    +0.229 C 
ATOM     16  O   UNL     1      -2.912   1.125  -2.424  0.00  0.00    -0.275 OA
ATOM     17  C   UNL     1      -5.578  -2.057  -1.523  0.00  0.00    +0.243 C 
ATOM     18  O   UNL     1      -6.616  -2.436  -2.025  0.00  0.00    -0.273 OA
ATOM     19  N   UNL     1      -5.309  -1.964  -0.206  0.00  0.00    -0.283 N 
ATOM     20  H   UNL     1      -2.837  -2.511  -3.328  0.00  0.00    +0.123 HD
ATOM     21  H   UNL     1      -5.938  -2.199   0.493  0.00  0.00    +0.155 HD
ENDROOT
BRANCH   1  23
ATOM     22  C   UNL     1      -0.019   1.526   0.010  0.00  0.00    +0.009 C 
ATOM     23  C   UNL     1       0.002  -0.004   0.002  0.00  0.00    +0.032 C 
ENDBRANCH   1  23
BRANCH  10  24
ATOM     24  C   UNL     1      -3.906  -3.165  -5.550  0.00  0.00    +0.028 C 
BRANCH  24  25
ATOM     25  C   UNL     1      -3.851  -4.685  -5.381  0.00  0.00    +0.097 C 
BRANCH  25  26
ATOM     26  C   UNL     1      -3.120  -5.294  -6.550  0.00  0.00    +0.211 C 
ATOM     27  O   UNL     1      -2.686  -4.583  -7.431  0.00  0.00    -0.276 OA
ATOM     28  N   UNL     1      -2.949  -6.629  -6.615  0.00  0.00    -0.329 N 
ATOM     29  H   UNL     1      -3.296  -7.198  -5.910  0.00  0.00    +0.145 HD
ATOM     30  H   UNL     1      -2.478  -7.021  -7.367  0.00  0.00    +0.145 HD
ENDBRANCH  25  26
ENDBRANCH  24  25
ENDBRANCH  10  24
BRANCH  14  31
ATOM     31  C   UNL     1      -1.728   1.017  -5.032  0.00  0.00    +0.151 C 
BRANCH  31  32
ATOM     32  C   UNL     1      -2.108   2.365  -5.588  0.00  0.00    -0.026 A 
ATOM     33  C   UNL     1      -2.428   2.494  -6.927  0.00  0.00    +0.009 A 
ATOM     34  C   UNL     1      -2.778   3.728  -7.441  0.00  0.00    +0.050 A 
ATOM     35  C   UNL     1      -2.810   4.840  -6.615  0.00  0.00    +0.166 A 
ATOM     36  C   UNL     1      -2.488   4.710  -5.267  0.00  0.00    +0.167 A 
ATOM     37  C   UNL     1      -2.143   3.469  -4.757  0.00  0.00    +0.054 A 
ATOM     38  O   UNL     1      -2.593   5.935  -4.674  0.00  0.00    -0.453 OA
ATOM     39  C   UNL     1      -2.584   6.888  -5.754  0.00  0.00    +0.466 C 
ATOM     40  O   UNL     1      -3.116   6.146  -6.867  0.00  0.00    -0.453 OA
ENDBRANCH  31  32
ENDBRANCH  14  31
TORSDOF 6
