REMARK  Name = ZINC00077921
REMARK  3 active torsions:
REMARK  status: ('A' for Active; 'I' for Inactive)
REMARK    1  A    between atoms: C_3  and  C_10
REMARK    2  A    between atoms: C_5  and  N_7
REMARK    3  A    between atoms: C_12  and  C_16
REMARK                            x       y       z     vdW  Elec       q    Type
REMARK                         _______ _______ _______ _____ _____    ______ ____
ROOT
ATOM      1  C   UNK     1       0.052   1.770  -2.390  0.00  0.00    +0.020 C 
ATOM      2  C   UNK     1      -0.013   1.086   0.008  0.00  0.00    +0.055 C 
ATOM      3  C   UNK     1       1.450   1.618  -0.003  0.00  0.00    +0.063 C 
ATOM      4  S   UNK     1       1.778   1.476  -1.817  0.00  0.00    -0.173 S 
ATOM      5  N   UNK     1      -0.794   1.573  -1.162  0.00  0.00    +0.399 N 
ATOM      6  H   UNK     1      -1.526   0.885  -1.376  0.00  0.00    -0.083 HD
ATOM      7  H   UNK     1      -1.229   2.469  -0.916  0.00  0.00    -0.083 HD
ENDROOT
BRANCH   1  10
ATOM      8  C   UNK     1      -1.242  -1.351  -4.074  0.00  0.00    +0.002 A 
ATOM      9  C   UNK     1      -0.889  -0.439  -3.098  0.00  0.00    +0.003 A 
ATOM     10  C   UNK     1      -0.333   0.775  -3.455  0.00  0.00    -0.050 A 
ATOM     11  C   UNK     1      -0.135   1.079  -4.789  0.00  0.00    +0.035 A 
ATOM     12  C   UNK     1      -0.484   0.165  -5.765  0.00  0.00    +0.126 A 
ATOM     13  C   UNK     1      -1.039  -1.050  -5.408  0.00  0.00    +0.033 A 
BRANCH  12  14
ATOM     14  N   UNK     1      -0.268   0.488  -7.193  0.00  0.00    +0.056 N 
ATOM     15  O   UNK     1      -0.579  -0.316  -8.054  0.00  0.00    -0.126 OA
ATOM     16  O   UNK     1       0.221   1.559  -7.508  0.00  0.00    -0.126 OA
ENDBRANCH  12  14
ENDBRANCH   1  10
BRANCH   2  17
ATOM     17  C   UNK     1      -0.706   1.565   1.257  0.00  0.00    +0.343 C 
ATOM     18  O   UNK     1      -1.466   2.503   1.204  0.00  0.00    -0.248 OA
ATOM     19  O   UNK     1      -0.479   0.951   2.429  0.00  0.00    -0.248 OA
ENDBRANCH   2  17
TORSDOF 3
