REMARK  Name = ZINC39601735
REMARK  11 active torsions:
REMARK  status: ('A' for Active; 'I' for Inactive)
REMARK    1  A    between atoms: C_1  and  C_2
REMARK    2  A    between atoms: C_2  and  O_3
REMARK    3  A    between atoms: O_3  and  C_4
REMARK    4  A    between atoms: C_9  and  C_10
REMARK    5  A    between atoms: C_14  and  C_23
REMARK    6  A    between atoms: N_25  and  C_26
REMARK    7  A    between atoms: C_26  and  C_27
REMARK    8  A    between atoms: C_27  and  O_28
REMARK    9  A    between atoms: O_28  and  C_29
REMARK   10  A    between atoms: C_29  and  C_30
REMARK   11  A    between atoms: C_30  and  O_31
REMARK                            x       y       z     vdW  Elec       q    Type
REMARK                         _______ _______ _______ _____ _____    ______ ____
ROOT
ATOM      1  C   UNL     1       1.862  -1.591  -3.416  0.00  0.00    +0.250 C 
ATOM      2  O   UNL     1       1.729  -0.393  -3.253  0.00  0.00    -0.270 OA
ATOM      3  N   UNL     1       2.617  -2.053  -4.432  0.00  0.00    -0.296 N 
ATOM      4  C   UNL     1       2.809  -3.461  -4.853  0.00  0.00    +0.121 C 
ATOM      5  C   UNL     1       2.821  -3.408  -6.397  0.00  0.00    +0.100 C 
ATOM      6  C   UNL     1       3.238  -1.967  -6.738  0.00  0.00    -0.004 C 
ATOM      7  C   UNL     1       3.436  -1.267  -5.386  0.00  0.00    +0.115 C 
ATOM      8  C   UNL     1       2.135  -1.271  -7.529  0.00  0.00    -0.010 C 
ATOM      9  C   UNL     1       2.596   0.140  -7.905  0.00  0.00    -0.082 C 
ATOM     10  N   UNL     1       3.824   0.059  -8.706  0.00  0.00    +0.379 N 
ATOM     11  C   UNL     1       4.906  -0.528  -7.906  0.00  0.00    -0.082 C 
ATOM     12  C   UNL     1       4.542  -1.968  -7.530  0.00  0.00    -0.010 C 
ATOM     13  H   UNL     1       3.657  -0.517  -9.517  0.00  0.00    -0.086 HD
ATOM     14  H   UNL     1       4.092   0.985  -9.003  0.00  0.00    -0.086 HD
ENDROOT
BRANCH   1  20
ATOM     15  C   UNL     1      -0.053  -2.226  -1.949  0.00  0.00    +0.133 A 
ATOM     16  C   UNL     1      -0.671  -3.126  -1.094  0.00  0.00    +0.046 A 
ATOM     17  C   UNL     1      -0.054  -4.322  -0.784  0.00  0.00    +0.004 A 
ATOM     18  C   UNL     1       1.185  -4.631  -1.322  0.00  0.00    +0.001 A 
ATOM     19  C   UNL     1       1.813  -3.749  -2.174  0.00  0.00    +0.017 A 
ATOM     20  C   UNL     1       1.197  -2.538  -2.500  0.00  0.00    +0.078 A 
BRANCH  15  21
ATOM     21  O   UNL     1      -0.658  -1.050  -2.254  0.00  0.00    -0.491 OA
BRANCH  21  23
ATOM     22  C   UNL     1      -2.452   0.562  -2.113  0.00  0.00    +0.048 C 
ATOM     23  C   UNL     1      -1.930  -0.801  -1.654  0.00  0.00    +0.226 C 
ENDBRANCH  21  23
ENDBRANCH  15  21
ENDBRANCH   1  20
BRANCH   5  24
ATOM     24  C   UNL     1       3.822  -4.391  -6.948  0.00  0.00    +0.218 C 
ATOM     25  O   UNL     1       4.821  -4.659  -6.315  0.00  0.00    -0.275 OA
ATOM     26  N   UNL     1       3.607  -4.972  -8.145  0.00  0.00    -0.313 N 
ATOM     27  H   UNL     1       2.808  -4.757  -8.652  0.00  0.00    +0.149 HD
BRANCH  26  28
ATOM     28  C   UNL     1       4.580  -5.927  -8.681  0.00  0.00    +0.132 C 
BRANCH  28  29
ATOM     29  C   UNL     1       4.101  -6.434 -10.042  0.00  0.00    +0.178 C 
BRANCH  29  30
ATOM     30  O   UNL     1       4.081  -5.352 -10.975  0.00  0.00    -0.376 OA
BRANCH  30  31
ATOM     31  C   UNL     1       3.646  -5.720 -12.285  0.00  0.00    +0.187 C 
BRANCH  31  32
ATOM     32  C   UNL     1       3.664  -4.490 -13.194  0.00  0.00    +0.184 C 
BRANCH  32  33
ATOM     33  O   UNL     1       5.011  -4.038 -13.356  0.00  0.00    -0.393 OA
ATOM     34  H   UNL     1       5.098  -3.259 -13.922  0.00  0.00    +0.209 HD
ENDBRANCH  32  33
ENDBRANCH  31  32
ENDBRANCH  30  31
ENDBRANCH  29  30
ENDBRANCH  28  29
ENDBRANCH  26  28
ENDBRANCH   5  24
TORSDOF 10
