REMARK  Name = ZINC58481252
REMARK  8 active torsions:
REMARK  status: ('A' for Active; 'I' for Inactive)
REMARK    1  A    between atoms: C_1  and  N_2
REMARK    2  A    between atoms: N_2  and  C_3
REMARK    3  A    between atoms: C_6  and  C_11
REMARK    4  A    between atoms: C_11  and  C_23
REMARK    5  A    between atoms: C_12  and  C_13
REMARK    6  A    between atoms: C_15  and  O_21
REMARK    7  A    between atoms: C_16  and  O_20
REMARK    8  A    between atoms: O_21  and  C_22
REMARK                            x       y       z     vdW  Elec       q    Type
REMARK                         _______ _______ _______ _____ _____    ______ ____
ROOT
ATOM      1  C   UNL     1      -0.096  -4.152  -2.373  0.00  0.00    +0.097 C 
ATOM      2  C   UNL     1      -0.086  -4.828  -3.558  0.00  0.00    +0.030 C 
ENDROOT
BRANCH   1   8
ATOM      3  C   UNL     1       1.280   1.678  -1.226  0.00  0.00    +0.132 C 
ATOM      4  N   UNL     1       1.461   0.224  -1.243  0.00  0.00    -0.306 N 
ATOM      5  C   UNL     1       2.667  -0.370  -0.661  0.00  0.00    +0.132 C 
ATOM      6  C   UNL     1       0.495  -0.585  -1.807  0.00  0.00    +0.222 A 
ATOM      7  N   UNL     1       0.657  -1.904  -1.817  0.00  0.00    -0.194 NA
ATOM      8  C   UNL     1      -0.275  -2.684  -2.361  0.00  0.00    +0.177 A 
ATOM      9  N   UNL     1      -1.368  -2.142  -2.894  0.00  0.00    -0.194 NA
ATOM     10  C   UNL     1      -1.527  -0.823  -2.883  0.00  0.00    +0.217 A 
ATOM     11  N   UNL     1      -0.598  -0.045  -2.335  0.00  0.00    -0.181 NA
ATOM     12  N   UNL     1      -2.660  -0.260  -3.436  0.00  0.00    -0.327 N 
ATOM     13  H   UNL     1      -3.372  -0.829  -3.766  0.00  0.00    +0.145 HD
ATOM     14  H   UNL     1      -2.743   0.705  -3.494  0.00  0.00    +0.145 HD
ENDBRANCH   1   8
BRANCH   2  15
ATOM     15  C   UNL     1      -0.101  -4.088  -4.824  0.00  0.00    -0.019 A 
ATOM     16  C   UNL     1      -0.716  -4.643  -5.954  0.00  0.00    +0.057 A 
ATOM     17  C   UNL     1      -0.727  -3.942  -7.143  0.00  0.00    +0.163 A 
ATOM     18  C   UNL     1      -0.127  -2.685  -7.218  0.00  0.00    +0.173 A 
ATOM     19  C   UNL     1       0.483  -2.134  -6.099  0.00  0.00    +0.063 A 
ATOM     20  C   UNL     1       0.494  -2.823  -4.905  0.00  0.00    +0.027 A 
ATOM     21 BR   UNL     1       1.294  -0.429  -6.210  0.00  0.00    -0.046 Br
BRANCH  18  22
ATOM     22  O   UNL     1      -0.139  -1.999  -8.390  0.00  0.00    -0.503 OA
ATOM     23  H   UNL     1      -0.907  -1.421  -8.500  0.00  0.00    +0.292 HD
ENDBRANCH  18  22
BRANCH  17  24
ATOM     24  O   UNL     1      -1.322  -4.478  -8.242  0.00  0.00    -0.491 OA
ATOM     25  C   UNL     1      -1.917  -5.769  -8.094  0.00  0.00    +0.277 C 
ENDBRANCH  17  24
ENDBRANCH   2  15
BRANCH   1  26
ATOM     26  C   UNL     1       0.067  -4.863  -1.141  0.00  0.00    +0.103 C 
ATOM     27  N   UNL     1       0.196  -5.428  -0.164  0.00  0.00    -0.191 NA
ENDBRANCH   1  26
TORSDOF 5
