REMARK  Name = ZINC05123081
REMARK  6 active torsions:
REMARK  status: ('A' for Active; 'I' for Inactive)
REMARK    1  A    between atoms: C_1  and  C_2
REMARK    2  A    between atoms: C_5  and  N_12
REMARK    3  A    between atoms: C_8  and  C_10
REMARK    4  A    between atoms: C_8  and  C_11
REMARK    5  A    between atoms: N_15  and  C_16
REMARK    6  A    between atoms: N_21  and  C_23
REMARK                            x       y       z     vdW  Elec       q    Type
REMARK                         _______ _______ _______ _____ _____    ______ ____
ROOT
ATOM      1  N   UNL     1       0.001  -0.013  -0.051  0.00  0.00    -0.297 N 
ATOM      2  C   UNL     1      -0.016   1.335  -0.025  0.00  0.00    +0.300 C 
ATOM      3  O   UNL     1      -1.077   1.929  -0.007  0.00  0.00    -0.253 OA
ATOM      4  N   UNL     1       1.142   2.024  -0.025  0.00  0.00    -0.295 N 
ATOM      5  H   UNL     1       0.848  -0.486  -0.069  0.00  0.00    +0.151 HD
ATOM      6  H   UNL     1       1.988   1.550  -0.044  0.00  0.00    +0.151 HD
ENDROOT
BRANCH   1  10
ATOM      7  C   UNL     1      -3.610  -1.795  -2.919  0.00  0.00    +0.007 C 
ATOM      8  C   UNL     1      -3.091  -1.670  -1.485  0.00  0.00    -0.012 C 
ATOM      9  C   UNL     1      -1.776  -0.887  -1.485  0.00  0.00    +0.025 C 
ATOM     10  C   UNL     1      -1.258  -0.762  -0.051  0.00  0.00    +0.075 C 
ATOM     11  C   UNL     1      -1.021  -2.158   0.530  0.00  0.00    +0.028 C 
ATOM     12  C   UNL     1      -2.335  -2.940   0.530  0.00  0.00    -0.033 C 
ATOM     13  C   UNL     1      -2.854  -3.065  -0.904  0.00  0.00    +0.009 C 
ATOM     14  C   UNL     1      -3.368  -2.201   1.383  0.00  0.00    +0.011 C 
ATOM     15  C   UNL     1      -2.098  -4.335   1.110  0.00  0.00    +0.011 C 
ENDBRANCH   1  10
BRANCH   4  16
ATOM     16  C   UNL     1       1.123   3.489   0.003  0.00  0.00    +0.101 C 
ATOM     17  C   UNL     1       1.010   4.068  -1.426  0.00  0.00    +0.120 C 
ATOM     18  C   UNL     1       2.444   4.307  -1.844  0.00  0.00    +0.222 C 
ATOM     19  O   UNL     1       2.814   4.491  -2.984  0.00  0.00    -0.275 OA
ATOM     20  N   UNL     1       3.249   4.287  -0.767  0.00  0.00    -0.270 N 
ATOM     21  C   UNL     1       2.486   4.051   0.464  0.00  0.00    +0.136 C 
BRANCH  20  22
ATOM     22  C   UNL     1       4.636   4.467  -0.815  0.00  0.00    +0.036 A 
ATOM     23  C   UNL     1       5.284   4.558  -2.039  0.00  0.00    +0.023 A 
ATOM     24  C   UNL     1       6.652   4.741  -2.082  0.00  0.00    +0.002 A 
ATOM     25  C   UNL     1       7.378   4.823  -0.908  0.00  0.00    +0.000 A 
ATOM     26  C   UNL     1       6.736   4.727   0.313  0.00  0.00    +0.002 A 
ATOM     27  C   UNL     1       5.367   4.549   0.363  0.00  0.00    +0.023 A 
ENDBRANCH  20  22
ENDBRANCH   4  16
TORSDOF 3
