REMARK  Name = ZINC36745220
REMARK  7 active torsions:
REMARK  status: ('A' for Active; 'I' for Inactive)
REMARK    1  A    between atoms: C_1  and  C_2
REMARK    2  A    between atoms: C_2  and  C_4
REMARK    3  A    between atoms: C_2  and  N_14
REMARK    4  A    between atoms: N_14  and  C_15
REMARK    5  A    between atoms: C_15  and  C_16
REMARK    6  A    between atoms: C_16  and  S_17
REMARK    7  A    between atoms: S_17  and  N_20
REMARK                            x       y       z     vdW  Elec       q    Type
REMARK                         _______ _______ _______ _____ _____    ______ ____
ROOT
ATOM      1  C   UNL     1      -0.019   1.526   0.010  0.00  0.00    -0.006 C 
ATOM      2  C   UNL     1       0.002  -0.004   0.002  0.00  0.00    -0.007 C 
ENDROOT
BRANCH   2   3
ATOM      3  C   UNL     1       0.707  -0.490  -1.238  0.00  0.00    +0.092 A 
ATOM      4  C   UNL     1       0.096  -0.923  -2.349  0.00  0.00    +0.051 A 
ATOM      5  C   UNL     1       1.163  -1.291  -3.287  0.00  0.00    +0.021 A 
ATOM      6  C   UNL     1       1.187  -1.798  -4.585  0.00  0.00    +0.027 A 
ATOM      7  C   UNL     1       2.397  -2.040  -5.199  0.00  0.00    +0.019 A 
ATOM      8  C   UNL     1       3.585  -1.781  -4.530  0.00  0.00    +0.019 A 
ATOM      9  C   UNL     1       3.574  -1.280  -3.246  0.00  0.00    +0.048 A 
ATOM     10  C   UNL     1       2.365  -1.028  -2.609  0.00  0.00    +0.135 A 
ATOM     11  O   UNL     1       2.042  -0.547  -1.392  0.00  0.00    -0.461 OA
ATOM     12 BR   UNL     1       2.438  -2.728  -6.960  0.00  0.00    -0.050 Br
ENDBRANCH   2   3
BRANCH   2  13
ATOM     13  N   UNL     1       0.713  -0.491   1.192  0.00  0.00    +0.387 N 
ATOM     14  H   UNL     1       0.798  -1.495   1.145  0.00  0.00    -0.085 HD
ATOM     15  H   UNL     1       1.632  -0.076   1.228  0.00  0.00    -0.085 HD
BRANCH  13  16
ATOM     16  C   UNL     1      -0.040  -0.119   2.398  0.00  0.00    -0.057 C 
BRANCH  16  17
ATOM     17  C   UNL     1       0.700  -0.626   3.637  0.00  0.00    +0.166 C 
BRANCH  17  18
ATOM     18  S   UNL     1      -0.229  -0.167   5.126  0.00  0.00    +0.025 S 
ATOM     19  O   UNL     1      -0.206   1.243   5.302  0.00  0.00    -0.158 OA
ATOM     20  O   UNL     1      -1.455  -0.883   5.178  0.00  0.00    -0.158 OA
BRANCH  18  21
ATOM     21  N   UNL     1       0.664  -0.764   6.386  0.00  0.00    -0.208 NA
ATOM     22  H   UNL     1       1.491  -1.240   6.212  0.00  0.00    +0.144 HD
ATOM     23  H   UNL     1       0.360  -0.639   7.299  0.00  0.00    +0.144 HD
ENDBRANCH  18  21
ENDBRANCH  17  18
ENDBRANCH  16  17
ENDBRANCH  13  16
ENDBRANCH   2  13
TORSDOF 6
