REMARK  Name = ZINC44681464
REMARK  13 active torsions:
REMARK  status: ('A' for Active; 'I' for Inactive)
REMARK    1  A    between atoms: C_1  and  C_2
REMARK    2  A    between atoms: C_5  and  O_31
REMARK    3  A    between atoms: C_7  and  C_28
REMARK    4  A    between atoms: C_7  and  C_29
REMARK    5  A    between atoms: C_12  and  O_27
REMARK    6  A    between atoms: C_14  and  C_16
REMARK    7  A    between atoms: C_16  and  C_17
REMARK    8  A    between atoms: N_19  and  C_20
REMARK    9  A    between atoms: C_20  and  C_21
REMARK   10  A    between atoms: C_29  and  O_30
REMARK   11  A    between atoms: O_31  and  C_32
REMARK   12  A    between atoms: N_34  and  C_35
REMARK   13  A    between atoms: C_35  and  C_36
REMARK                            x       y       z     vdW  Elec       q    Type
REMARK                         _______ _______ _______ _____ _____    ______ ____
ROOT
ATOM      1  C   UNL     1       0.046   1.480  -0.360  0.00  0.00    +0.012 C 
ATOM      2  C   UNL     1      -0.123  -0.046  -0.300  0.00  0.00    -0.023 C 
ATOM      3  C   UNL     1      -1.593  -0.373  -0.569  0.00  0.00    +0.011 C 
ATOM      4  C   UNL     1      -2.456   0.201   0.556  0.00  0.00    +0.046 C 
ATOM      5  C   UNL     1      -2.078  -0.454   1.879  0.00  0.00    +0.186 C 
ATOM      6  C   UNL     1      -0.599  -0.267   2.212  0.00  0.00    +0.031 C 
ATOM      7  C   UNL     1       0.305  -0.608   1.044  0.00  0.00    +0.007 C 
ATOM      8  C   UNL     1       1.764  -0.245   1.323  0.00  0.00    +0.007 C 
ATOM      9  C   UNL     1       2.640  -0.886   0.241  0.00  0.00    +0.032 C 
ATOM     10  C   UNL     1       2.231  -0.383  -1.140  0.00  0.00    +0.119 C 
ATOM     11  C   UNL     1       0.750  -0.634  -1.415  0.00  0.00    +0.032 C 
ATOM     12  C   UNL     1      -0.362   1.144   2.749  0.00  0.00    +0.017 C 
ENDROOT
BRANCH  10  13
ATOM     13  O   UNL     1       3.009  -1.067  -2.133  0.00  0.00    -0.391 OA
ATOM     14  H   UNL     1       3.962  -0.933  -2.046  0.00  0.00    +0.210 HD
ENDBRANCH  10  13
BRANCH  11  15
ATOM     15  C   UNL     1       0.501  -2.128  -1.600  0.00  0.00    +0.102 C 
BRANCH  15  16
ATOM     16  C   UNL     1       1.096  -2.578  -2.910  0.00  0.00    +0.214 C 
ATOM     17  O   UNL     1       1.524  -1.759  -3.695  0.00  0.00    -0.276 OA
ATOM     18  N   UNL     1       1.151  -3.891  -3.209  0.00  0.00    -0.311 N 
ATOM     19  H   UNL     1       0.808  -4.546  -2.581  0.00  0.00    +0.149 HD
BRANCH  18  20
ATOM     20  C   UNL     1       1.729  -4.329  -4.482  0.00  0.00    +0.139 C 
BRANCH  20  21
ATOM     21  C   UNL     1       1.671  -5.832  -4.570  0.00  0.00    -0.030 A 
ATOM     22  C   UNL     1       2.720  -6.593  -4.091  0.00  0.00    +0.005 A 
ATOM     23  C   UNL     1       2.667  -7.972  -4.171  0.00  0.00    +0.000 A 
ATOM     24  C   UNL     1       1.564  -8.590  -4.731  0.00  0.00    +0.000 A 
ATOM     25  C   UNL     1       0.514  -7.828  -5.209  0.00  0.00    +0.000 A 
ATOM     26  C   UNL     1       0.565  -6.449  -5.125  0.00  0.00    +0.005 A 
ENDBRANCH  20  21
ENDBRANCH  18  20
ENDBRANCH  15  16
ENDBRANCH  11  15
BRANCH   6  27
ATOM     27  C   UNL     1      -0.281  -1.251   3.365  0.00  0.00    +0.166 C 
BRANCH  27  28
ATOM     28  O   UNL     1      -1.102  -0.944   4.493  0.00  0.00    -0.394 OA
ATOM     29  H   UNL     1      -0.956  -1.522   5.255  0.00  0.00    +0.209 HD
ENDBRANCH  27  28
ENDBRANCH   6  27
BRANCH   5  30
ATOM     30  O   UNL     1      -2.377  -1.853   1.823  0.00  0.00    -0.446 OA
BRANCH  30  31
ATOM     31  C   UNL     1      -3.605  -2.233   2.221  0.00  0.00    +0.401 C 
ATOM     32  O   UNL     1      -4.403  -1.401   2.606  0.00  0.00    -0.226 OA
ATOM     33  N   UNL     1      -3.950  -3.535   2.193  0.00  0.00    -0.278 N 
ATOM     34  H   UNL     1      -3.313  -4.199   1.886  0.00  0.00    +0.152 HD
BRANCH  33  35
ATOM     35  C   UNL     1      -5.287  -3.948   2.627  0.00  0.00    +0.134 C 
BRANCH  35  36
ATOM     36  C   UNL     1      -5.417  -5.444   2.499  0.00  0.00    -0.016 C 
ATOM     37  C   UNL     1      -5.770  -6.162   3.537  0.00  0.00    +0.005 C 
ENDBRANCH  35  36
ENDBRANCH  33  35
ENDBRANCH  30  31
ENDBRANCH   5  30
TORSDOF 11
