REMARK  Name = ZINC50096596
REMARK  4 active torsions:
REMARK  status: ('A' for Active; 'I' for Inactive)
REMARK    1  A    between atoms: C_1  and  C_2
REMARK    2  A    between atoms: C_6  and  C_8
REMARK    3  A    between atoms: N_16  and  N_17
REMARK    4  A    between atoms: C_18  and  C_20
REMARK                            x       y       z     vdW  Elec       q    Type
REMARK                         _______ _______ _______ _____ _____    ______ ____
ROOT
ATOM      1  C   UNL     1       0.054  -2.844   2.487  0.00  0.00    +0.108 C 
ATOM      2  C   UNL     1      -1.366  -3.352   2.818  0.00  0.00    +0.029 C 
ATOM      3  C   UNL     1      -1.101  -4.756   3.423  0.00  0.00    +0.021 C 
ATOM      4  C   UNL     1       0.108  -5.235   2.581  0.00  0.00    +0.110 C 
ATOM      5  N   UNL     1       0.925  -4.022   2.368  0.00  0.00    -0.277 N 
ATOM      6  C   UNL     1       2.247  -3.998   2.107  0.00  0.00    +0.319 C 
ATOM      7  O   UNL     1       2.799  -2.944   1.859  0.00  0.00    -0.251 OA
ATOM      8  N   UNL     1       2.958  -5.144   2.121  0.00  0.00    -0.218 N 
ATOM      9  H   UNL     1       2.506  -5.993   2.246  0.00  0.00    +0.174 HD
ENDROOT
BRANCH   1  15
ATOM     10  C   UNL     1      -0.020   1.499   0.003  0.00  0.00    +0.044 C 
ATOM     11  C   UNL     1       0.000  -0.008  -0.003  0.00  0.00    -0.050 A 
ATOM     12  C   UNL     1       0.004  -0.694  -1.203  0.00  0.00    +0.003 A 
ATOM     13  C   UNL     1       0.023  -2.076  -1.209  0.00  0.00    +0.001 A 
ATOM     14  C   UNL     1       0.039  -2.772  -0.014  0.00  0.00    +0.005 A 
ATOM     15  C   UNL     1       0.036  -2.086   1.185  0.00  0.00    -0.027 A 
ATOM     16  C   UNL     1       0.022  -0.703   1.191  0.00  0.00    +0.008 A 
ENDBRANCH   1  15
BRANCH   8  17
ATOM     17  N   UNL     1       4.348  -5.107   1.954  0.00  0.00    -0.229 N 
ATOM     18  C   UNL     1       5.047  -6.256   1.866  0.00  0.00    +0.260 C 
ATOM     19  O   UNL     1       4.470  -7.325   1.932  0.00  0.00    -0.269 OA
ATOM     20  H   UNL     1       4.808  -4.255   1.902  0.00  0.00    +0.173 HD
BRANCH  18  21
ATOM     21  C   UNL     1       6.513  -6.218   1.691  0.00  0.00    +0.038 A 
ATOM     22  C   UNL     1       7.179  -4.992   1.621  0.00  0.00    +0.016 A 
ATOM     23  C   UNL     1       8.547  -4.962   1.457  0.00  0.00    +0.039 A 
ATOM     24  C   UNL     1       9.262  -6.146   1.361  0.00  0.00    +0.123 A 
ATOM     25  C   UNL     1       8.607  -7.366   1.430  0.00  0.00    +0.039 A 
ATOM     26  C   UNL     1       7.239  -7.407   1.599  0.00  0.00    +0.016 A 
ATOM     27  F   UNL     1      10.603  -6.111   1.201  0.00  0.00    -0.205 F 
ENDBRANCH  18  21
ENDBRANCH   8  17
TORSDOF 3
