REMARK  Name = ZINC40377112
REMARK  6 active torsions:
REMARK  status: ('A' for Active; 'I' for Inactive)
REMARK    1  A    between atoms: C_1  and  C_2
REMARK    2  A    between atoms: N_8  and  S_9
REMARK    3  A    between atoms: S_9  and  N_12
REMARK    4  A    between atoms: N_12  and  C_13
REMARK    5  A    between atoms: C_13  and  C_14
REMARK    6  A    between atoms: N_15  and  O_16
REMARK                            x       y       z     vdW  Elec       q    Type
REMARK                         _______ _______ _______ _____ _____    ______ ____
ROOT
ATOM      1  S   UNL     1       1.660   0.565   2.077  0.00  0.00    +0.098 S 
ATOM      2  O   UNL     1       2.301  -0.213   3.079  0.00  0.00    -0.141 OA
ATOM      3  O   UNL     1       2.382   1.412   1.193  0.00  0.00    -0.141 OA
ENDROOT
BRANCH   1  10
ATOM      4  C   UNL     1       0.462   1.445  -0.332  0.00  0.00    +0.026 C 
ATOM      5  C   UNL     1       0.257  -0.062  -0.163  0.00  0.00    +0.078 C 
ATOM      6  C   UNL     1      -1.241  -0.382  -0.195  0.00  0.00    +0.020 C 
ATOM      7  C   UNL     1      -1.447  -1.867   0.114  0.00  0.00    +0.003 C 
ATOM      8  C   UNL     1      -0.917  -2.178   1.515  0.00  0.00    +0.017 C 
ATOM      9  C   UNL     1       0.585  -1.877   1.567  0.00  0.00    +0.111 C 
ATOM     10  N   UNL     1       0.808  -0.492   1.130  0.00  0.00    -0.164 NA
ENDBRANCH   1  10
BRANCH   1  11
ATOM     11  N   UNL     1       0.557   1.524   2.856  0.00  0.00    -0.173 NA
ATOM     12  H   UNL     1       0.523   2.475   2.669  0.00  0.00    +0.150 HD
BRANCH  11  13
ATOM     13  C   UNL     1      -0.368   0.935   3.828  0.00  0.00    +0.181 C 
BRANCH  13  14
ATOM     14  C   UNL     1      -0.998   2.031   4.649  0.00  0.00    +0.147 C 
ATOM     15  N   UNL     1      -0.683   3.264   4.430  0.00  0.00    -0.075 NA
ATOM     16  N   UNL     1      -1.908   1.716   5.634  0.00  0.00    -0.343 N 
ATOM     17  H   UNL     1      -2.144   0.790   5.799  0.00  0.00    +0.144 HD
ATOM     18  H   UNL     1      -2.313   2.421   6.163  0.00  0.00    +0.144 HD
BRANCH  15  19
ATOM     19  O   UNL     1      -1.275   4.293   5.202  0.00  0.00    -0.408 OA
ATOM     20  H   UNL     1      -0.978   5.183   4.965  0.00  0.00    +0.328 HD
ENDBRANCH  15  19
ENDBRANCH  13  14
ENDBRANCH  11  13
ENDBRANCH   1  11
TORSDOF 5
