REMARK  Name = ZINC19974016
REMARK  5 active torsions:
REMARK  status: ('A' for Active; 'I' for Inactive)
REMARK    1  A    between atoms: C_1  and  C_2
REMARK    2  A    between atoms: C_2  and  C_3
REMARK    3  A    between atoms: C_2  and  C_4
REMARK    4  A    between atoms: C_7  and  C_10
REMARK    5  A    between atoms: C_13  and  N_19
REMARK                            x       y       z     vdW  Elec       q    Type
REMARK                         _______ _______ _______ _____ _____    ______ ____
ROOT
ATOM      1  C   UNL     1      -0.051   1.379   2.512  0.00  0.00    +0.028 C 
ATOM      2  C   UNL     1      -0.732   1.954   1.269  0.00  0.00    +0.031 C 
ATOM      3  C   UNL     1      -0.018   1.461   0.010  0.00  0.00    +0.080 C 
ATOM      4  C   UNL     1       1.420   1.991  -0.001  0.00  0.00    +0.096 C 
ATOM      5  C   UNL     1       2.090   1.590   1.294  0.00  0.00    +0.136 C 
ATOM      6  O   UNL     1       3.161   1.032   1.290  0.00  0.00    -0.297 OA
ATOM      7  C   UNL     1       1.386   1.906   2.595  0.00  0.00    +0.082 C 
ENDROOT
BRANCH   3   8
ATOM      8  N   UNL     1       0.002  -0.004   0.002  0.00  0.00    -0.320 N 
ATOM      9  C   UNL     1       0.105  -0.691  -1.202  0.00  0.00    +0.204 A 
ATOM     10  C   UNL     1       0.142  -2.150  -1.359  0.00  0.00    +0.202 A 
ATOM     11  N   UNL     1       0.239  -2.423  -2.630  0.00  0.00    -0.032 NA
ATOM     12  O   UNL     1       0.278  -1.196  -3.337  0.00  0.00    -0.239 OA
ATOM     13  N   UNL     1       0.191  -0.150  -2.386  0.00  0.00    -0.032 NA
ATOM     14  N   UNL     1       0.081  -3.081  -0.328  0.00  0.00    -0.338 N 
ATOM     15  H   UNL     1      -0.064  -0.560   0.949  0.00  0.00    +0.148 HD
ATOM     16  H   UNL     1       0.117  -4.157  -0.556  0.00  0.00    +0.144 HD
ATOM     17  H   UNL     1      -0.004  -2.743   0.715  0.00  0.00    +0.144 HD
ENDBRANCH   3   8
BRANCH   1  21
ATOM     18  C   UNL     1      -2.209   2.567   6.001  0.00  0.00    -0.045 A 
ATOM     19  C   UNL     1      -2.055   1.225   5.707  0.00  0.00    +0.004 A 
ATOM     20  C   UNL     1      -1.357   0.840   4.578  0.00  0.00    +0.004 A 
ATOM     21  C   UNL     1      -0.812   1.798   3.743  0.00  0.00    -0.044 A 
ATOM     22  C   UNL     1      -0.961   3.139   4.040  0.00  0.00    +0.004 A 
ATOM     23  C   UNL     1      -1.664   3.524   5.166  0.00  0.00    +0.004 A 
BRANCH  18  25
ATOM     24  C   UNL     1      -2.052   3.797   8.149  0.00  0.00    +0.012 C 
ATOM     25  C   UNL     1      -2.971   2.986   7.232  0.00  0.00    +0.013 C 
ATOM     26  C   UNL     1      -4.169   3.844   6.823  0.00  0.00    +0.012 C 
ENDBRANCH  18  25
ENDBRANCH   1  21
TORSDOF 3
