REMARK  Name = ZINC66718470
REMARK  9 active torsions:
REMARK  status: ('A' for Active; 'I' for Inactive)
REMARK    1  A    between atoms: C_1  and  C_2
REMARK    2  A    between atoms: C_5  and  N_14
REMARK    3  A    between atoms: C_7  and  C_8
REMARK    4  A    between atoms: N_10  and  C_11
REMARK    5  A    between atoms: C_11  and  C_12
REMARK    6  A    between atoms: C_11  and  C_13
REMARK    7  A    between atoms: C_15  and  C_17
REMARK    8  A    between atoms: N_19  and  C_20
REMARK    9  A    between atoms: C_26  and  C_28
REMARK                            x       y       z     vdW  Elec       q    Type
REMARK                         _______ _______ _______ _____ _____    ______ ____
ROOT
ATOM      1  N   UNL     1      -0.215  -4.107  -0.539  0.00  0.00    -0.278 N 
ATOM      2  C   UNL     1      -0.389  -4.526  -1.808  0.00  0.00    +0.303 C 
ATOM      3  O   UNL     1      -0.533  -3.716  -2.700  0.00  0.00    -0.265 OA
ATOM      4  H   UNL     1      -0.176  -4.753   0.184  0.00  0.00    +0.155 HD
ENDROOT
BRANCH   1   9
ATOM      5  C   UNL     1       0.270   1.436   0.606  0.00  0.00    +0.044 C 
ATOM      6  C   UNL     1       0.143  -0.034   0.299  0.00  0.00    -0.038 A 
ATOM      7  C   UNL     1      -0.483  -0.875   1.198  0.00  0.00    +0.006 A 
ATOM      8  C   UNL     1      -0.602  -2.224   0.921  0.00  0.00    +0.023 A 
ATOM      9  C   UNL     1      -0.093  -2.743  -0.264  0.00  0.00    +0.035 A 
ATOM     10  C   UNL     1       0.537  -1.906  -1.173  0.00  0.00    +0.036 A 
ATOM     11  C   UNL     1       0.652  -0.544  -0.896  0.00  0.00    +0.041 A 
BRANCH  11  12
ATOM     12  C   UNL     1       1.317   0.356  -1.863  0.00  0.00    +0.245 C 
ATOM     13  O   UNL     1       1.315   1.557  -1.676  0.00  0.00    -0.270 OA
ATOM     14  N   UNL     1       1.927  -0.156  -2.950  0.00  0.00    -0.309 N 
ATOM     15  H   UNL     1       1.929  -1.115  -3.099  0.00  0.00    +0.149 HD
BRANCH  14  16
ATOM     16  C   UNL     1       2.586   0.735  -3.908  0.00  0.00    +0.067 C 
ATOM     17  C   UNL     1       3.678  -0.034  -4.653  0.00  0.00    +0.027 C 
ATOM     18  C   UNL     1       1.555   1.257  -4.912  0.00  0.00    +0.027 C 
ENDBRANCH  14  16
ENDBRANCH  11  12
ENDBRANCH   1   9
BRANCH   2  19
ATOM     19  C   UNL     1      -0.404  -5.988  -2.116  0.00  0.00    +0.300 C 
ATOM     20  O   UNL     1      -0.260  -6.798  -1.224  0.00  0.00    -0.265 OA
ATOM     21  N   UNL     1      -0.577  -6.407  -3.386  0.00  0.00    -0.304 N 
ATOM     22  H   UNL     1      -0.692  -5.759  -4.099  0.00  0.00    +0.149 HD
BRANCH  21  23
ATOM     23  C   UNL     1      -0.592  -7.840  -3.688  0.00  0.00    +0.076 C 
ATOM     24  C   UNL     1       0.843  -8.337  -3.875  0.00  0.00    +0.022 C 
ATOM     25  C   UNL     1       0.827  -9.834  -4.191  0.00  0.00    +0.002 C 
ATOM     26  C   UNL     1       0.032 -10.075  -5.476  0.00  0.00    +0.000 C 
ATOM     27  C   UNL     1      -1.403  -9.579  -5.289  0.00  0.00    +0.005 C 
ATOM     28  C   UNL     1      -1.387  -8.082  -4.973  0.00  0.00    +0.006 C 
ATOM     29  C   UNL     1      -2.822  -7.585  -4.786  0.00  0.00    +0.009 C 
ENDBRANCH  21  23
ENDBRANCH   2  19
TORSDOF 5
