REMARK  Name = ZINC67102107
REMARK  6 active torsions:
REMARK  status: ('A' for Active; 'I' for Inactive)
REMARK    1  A    between atoms: C_1  and  C_2
REMARK    2  A    between atoms: C_6  and  C_7
REMARK    3  A    between atoms: N_9  and  C_10
REMARK    4  A    between atoms: N_18  and  N_19
REMARK    5  A    between atoms: C_20  and  C_22
REMARK    6  A    between atoms: C_23  and  C_27
REMARK                            x       y       z     vdW  Elec       q    Type
REMARK                         _______ _______ _______ _____ _____    ______ ____
ROOT
ATOM      1  C   UNL     1       0.064  -0.882   4.881  0.00  0.00    +0.076 C 
ATOM      2  C   UNL     1       1.500  -0.587   5.320  0.00  0.00    +0.041 C 
ATOM      3  C   UNL     1       1.497  -0.107   6.775  0.00  0.00    +0.111 C 
ATOM      4  N   UNL     1       0.806  -1.107   7.601  0.00  0.00    -0.284 N 
ATOM      5  C   UNL     1      -0.546  -1.530   7.215  0.00  0.00    +0.111 C 
ATOM      6  C   UNL     1      -0.520  -1.994   5.755  0.00  0.00    +0.041 C 
ATOM      7  C   UNL     1       1.403  -1.626   8.692  0.00  0.00    +0.319 C 
ATOM      8  O   UNL     1       2.557  -1.341   8.948  0.00  0.00    -0.251 OA
ATOM      9  N   UNL     1       0.721  -2.462   9.500  0.00  0.00    -0.218 N 
ATOM     10  H   UNL     1      -0.174  -2.747   9.258  0.00  0.00    +0.174 HD
ENDROOT
BRANCH   1  13
ATOM     11  C   UNL     1       0.037  -0.390   2.494  0.00  0.00    +0.280 C 
ATOM     12  O   UNL     1       0.020   0.796   2.769  0.00  0.00    -0.267 OA
ATOM     13  N   UNL     1       0.061  -1.309   3.480  0.00  0.00    -0.306 N 
ATOM     14  H   UNL     1       0.075  -2.254   3.261  0.00  0.00    +0.149 HD
BRANCH  11  20
ATOM     15  C   UNL     1      -0.014   1.511   0.013  0.00  0.00    +0.048 C 
ATOM     16  C   UNL     1       0.011   0.004   0.002  0.00  0.00    -0.000 A 
ATOM     17  C   UNL     1       0.023  -0.825  -1.130  0.00  0.00    +0.045 A 
ATOM     18  C   UNL     1       0.046  -2.102  -0.687  0.00  0.00    +0.196 A 
ATOM     19  O   UNL     1       0.050  -2.093   0.652  0.00  0.00    -0.458 OA
ATOM     20  C   UNL     1       0.034  -0.818   1.092  0.00  0.00    +0.192 A 
ENDBRANCH  11  20
ENDBRANCH   1  13
BRANCH   9  21
ATOM     21  N   UNL     1       1.304  -2.920  10.688  0.00  0.00    -0.229 N 
ATOM     22  C   UNL     1       0.664  -3.833  11.445  0.00  0.00    +0.267 C 
ATOM     23  O   UNL     1      -0.420  -4.261  11.096  0.00  0.00    -0.268 OA
ATOM     24  H   UNL     1       2.168  -2.579  10.967  0.00  0.00    +0.173 HD
BRANCH  22  25
ATOM     25  C   UNL     1       1.275  -4.312  12.689  0.00  0.00    +0.078 A 
ATOM     26  C   UNL     1       0.792  -5.241  13.598  0.00  0.00    -0.031 A 
ATOM     27  C   UNL     1       1.599  -5.489  14.683  0.00  0.00    +0.011 A 
ATOM     28  C   UNL     1       2.778  -4.829  14.792  0.00  0.00    +0.046 A 
ATOM     29  S   UNL     1       2.834  -3.857  13.423  0.00  0.00    -0.092 S 
ATOM     30  C   UNL     1      -0.532  -5.935  13.409  0.00  0.00    +0.045 C 
ENDBRANCH  22  25
ENDBRANCH   9  21
TORSDOF 4
