REMARK  Name = ZINC62497186
REMARK  8 active torsions:
REMARK  status: ('A' for Active; 'I' for Inactive)
REMARK    1  A    between atoms: C_1  and  C_2
REMARK    2  A    between atoms: C_5  and  C_8
REMARK    3  A    between atoms: C_8  and  C_9
REMARK    4  A    between atoms: N_13  and  C_22
REMARK    5  A    between atoms: C_17  and  N_21
REMARK    6  A    between atoms: C_22  and  C_23
REMARK    7  A    between atoms: C_23  and  C_24
REMARK    8  A    between atoms: C_23  and  C_25
REMARK                            x       y       z     vdW  Elec       q    Type
REMARK                         _______ _______ _______ _____ _____    ______ ____
ROOT
ATOM      1  C   UNL     1       1.508  -4.767  -0.032  0.00  0.00    +0.263 C 
ATOM      2  C   UNL     1       1.528  -6.268  -0.167  0.00  0.00    +0.261 C 
ATOM      3  O   UNL     1       1.614  -6.781  -1.263  0.00  0.00    -0.271 OA
ATOM      4  N   UNL     1       1.450  -7.040   0.938  0.00  0.00    -0.265 N 
ATOM      5  C   UNL     1       1.480  -6.431   2.203  0.00  0.00    +0.078 A 
ATOM      6  C   UNL     1       1.176  -7.159   3.341  0.00  0.00    +0.029 A 
ATOM      7  C   UNL     1       1.196  -6.545   4.579  0.00  0.00    +0.025 A 
ATOM      8  C   UNL     1       1.520  -5.198   4.684  0.00  0.00    +0.028 A 
ATOM      9  C   UNL     1       1.830  -4.466   3.545  0.00  0.00    +0.070 A 
ATOM     10  C   UNL     1       1.816  -5.082   2.305  0.00  0.00    +0.145 A 
ATOM     11  O   UNL     1       2.149  -4.385   1.187  0.00  0.00    -0.477 OA
ENDROOT
BRANCH   8  12
ATOM     12  N   UNL     1       1.533  -4.578   5.937  0.00  0.00    -0.358 N 
ATOM     13  H   UNL     1       1.316  -5.088   6.733  0.00  0.00    +0.142 HD
ATOM     14  H   UNL     1       1.759  -3.638   6.011  0.00  0.00    +0.142 HD
ENDBRANCH   8  12
BRANCH   1  15
ATOM     15  C   UNL     1       0.059  -4.275  -0.021  0.00  0.00    +0.089 C 
BRANCH  15  20
ATOM     16  C   UNL     1      -0.018   1.503   0.010  0.00  0.00    +0.044 C 
ATOM     17  C   UNL     1       0.002  -0.004   0.002  0.00  0.00    -0.050 A 
ATOM     18  C   UNL     1       0.006  -0.689  -1.199  0.00  0.00    +0.003 A 
ATOM     19  C   UNL     1       0.025  -2.071  -1.206  0.00  0.00    +0.004 A 
ATOM     20  C   UNL     1       0.040  -2.768  -0.013  0.00  0.00    -0.043 A 
ATOM     21  C   UNL     1       0.037  -2.084   1.188  0.00  0.00    +0.004 A 
ATOM     22  C   UNL     1       0.023  -0.702   1.195  0.00  0.00    +0.003 A 
ENDBRANCH  15  20
ENDBRANCH   1  15
BRANCH   4  23
ATOM     23  C   UNL     1       1.336  -8.496   0.819  0.00  0.00    +0.117 C 
BRANCH  23  24
ATOM     24  C   UNL     1       2.734  -9.117   0.798  0.00  0.00    +0.001 C 
ATOM     25  C   UNL     1       2.614 -10.643   0.800  0.00  0.00    +0.009 C 
ATOM     26  C   UNL     1       3.474  -8.665  -0.462  0.00  0.00    +0.009 C 
ENDBRANCH  23  24
ENDBRANCH   4  23
TORSDOF 5
