REMARK  Name = ZINC15109429
REMARK  2 active torsions:
REMARK  status: ('A' for Active; 'I' for Inactive)
REMARK    1  A    between atoms: C_1  and  C_2
REMARK    2  A    between atoms: C_15  and  N_17
REMARK                            x       y       z     vdW  Elec       q    Type
REMARK                         _______ _______ _______ _____ _____    ______ ____
ROOT
ATOM      1  C   UNL     1      -0.127   1.307  -0.433  0.00  0.00    +0.009 C 
ATOM      2  C   UNL     1      -0.117  -0.206  -0.210  0.00  0.00    +0.003 C 
ATOM      3  C   UNL     1      -1.546  -0.696   0.030  0.00  0.00    +0.006 C 
ATOM      4  C   UNL     1      -1.542  -2.215   0.220  0.00  0.00    +0.019 C 
ATOM      5  C   UNL     1      -0.696  -2.570   1.447  0.00  0.00    +0.108 C 
ATOM      6  N   UNL     1       0.639  -1.977   1.288  0.00  0.00    -0.301 N 
ATOM      7  C   UNL     1       0.746  -0.538   1.011  0.00  0.00    +0.111 C 
ATOM      8  C   UNL     1       1.763  -2.752   1.397  0.00  0.00    +0.200 A 
ATOM      9  N   UNL     1       2.987  -2.158   1.365  0.00  0.00    -0.295 N 
ATOM     10  H   UNL     1       3.056  -1.195   1.267  0.00  0.00    +0.172 HD
ATOM     11  C   UNL     1       4.106  -2.905   1.471  0.00  0.00    +0.254 A 
ATOM     12  O   UNL     1       5.208  -2.379   1.444  0.00  0.00    -0.268 OA
ATOM     13  C   UNL     1       3.982  -4.290   1.612  0.00  0.00    +0.113 A 
ATOM     14  C   UNL     1       2.711  -4.847   1.639  0.00  0.00    +0.125 A 
ATOM     15  N   UNL     1       1.638  -4.055   1.534  0.00  0.00    -0.201 NA
ENDROOT
BRANCH  14  16
ATOM     16  N   UNL     1       2.555  -6.211   1.776  0.00  0.00    -0.343 N 
ATOM     17  H   UNL     1       3.334  -6.783   1.855  0.00  0.00    +0.144 HD
ATOM     18  H   UNL     1       1.666  -6.598   1.794  0.00  0.00    +0.144 HD
ENDBRANCH  14  16
TORSDOF 1
