REMARK  Name = ZINC19681448
REMARK  4 active torsions:
REMARK  status: ('A' for Active; 'I' for Inactive)
REMARK    1  A    between atoms: C_1  and  C_2
REMARK    2  A    between atoms: C_3  and  S_9
REMARK    3  A    between atoms: C_4  and  C_8
REMARK    4  A    between atoms: S_9  and  N_12
REMARK                            x       y       z     vdW  Elec       q    Type
REMARK                         _______ _______ _______ _____ _____    ______ ____
ROOT
ATOM      1  N   UNL     1      -2.112   2.201   4.742  0.00  0.00    -0.194 N 
ATOM      2  C   UNL     1      -1.596   1.966   3.478  0.00  0.00    +0.178 A 
ATOM      3  N   UNL     1      -1.936   2.516   2.329  0.00  0.00    -0.229 NA
ATOM      4  C   UNL     1      -1.343   2.186   1.185  0.00  0.00    +0.050 A 
ATOM      5  C   UNL     1      -0.363   1.246   1.270  0.00  0.00    -0.003 A 
ATOM      6  S   UNL     1      -0.332   0.872   3.000  0.00  0.00    -0.058 S 
ATOM      7  C   UNL     1       0.454   0.696   0.152  0.00  0.00    -0.037 C 
ATOM      8  N   UNL     1      -0.194   1.072  -1.120  0.00  0.00    +0.382 N 
ATOM      9  C   UNL     1      -0.527   2.503  -1.129  0.00  0.00    -0.076 C 
ATOM     10  C   UNL     1      -1.689   2.786  -0.173  0.00  0.00    +0.037 C 
ATOM     11  H   UNL     1       0.488   0.860  -1.956  0.00  0.00    -0.085 HD
ATOM     12  H   UNL     1      -2.864   2.991   4.892  0.00  0.00    +0.176 HD
ATOM     13  H   UNL     1      -1.120   0.491  -1.246  0.00  0.00    -0.085 HD
ENDROOT
BRANCH   1  14
ATOM     14  S   UNL     1      -1.598   1.294   6.029  0.00  0.00    +0.077 S 
ATOM     15  O   UNL     1      -2.293   1.776   7.170  0.00  0.00    -0.150 OA
ATOM     16  O   UNL     1      -1.659  -0.065   5.617  0.00  0.00    -0.150 OA
BRANCH  14  19
ATOM     17  C   UNL     1      -0.202   4.031   7.190  0.00  0.00    +0.067 C 
ATOM     18  C   UNL     1       0.602   2.828   6.769  0.00  0.00    +0.060 A 
ATOM     19  C   UNL     1       0.105   1.667   6.282  0.00  0.00    +0.151 A 
ATOM     20  C   UNL     1       1.183   0.814   6.021  0.00  0.00    +0.087 A 
ATOM     21  N   UNL     1       2.287   1.444   6.330  0.00  0.00    -0.177 NA
ATOM     22  N   UNL     1       1.946   2.716   6.808  0.00  0.00    -0.280 N 
ATOM     23  H   UNL     1       2.558   3.553   7.176  0.00  0.00    +0.189 HD
ATOM     24  C   UNL     1       1.088  -0.587   5.473  0.00  0.00    +0.069 C 
ENDBRANCH  14  19
ENDBRANCH   1  14
TORSDOF 2
