REMARK  Name = ZINC51625682
REMARK  8 active torsions:
REMARK  status: ('A' for Active; 'I' for Inactive)
REMARK    1  A    between atoms: C_1  and  C_2
REMARK    2  A    between atoms: C_2  and  C_3
REMARK    3  A    between atoms: C_2  and  C_15
REMARK    4  A    between atoms: C_2  and  N_17
REMARK    5  A    between atoms: C_3  and  O_4
REMARK    6  A    between atoms: O_4  and  C_5
REMARK    7  A    between atoms: C_10  and  N_11
REMARK    8  A    between atoms: N_17  and  C_18
REMARK                            x       y       z     vdW  Elec       q    Type
REMARK                         _______ _______ _______ _____ _____    ______ ____
ROOT
ATOM      1  C   UNL     1       2.881  -0.376   2.271  0.00  0.00    +0.152 A 
ATOM      2  C   UNL     1       2.386  -1.194   3.276  0.00  0.00    +0.068 A 
ATOM      3  C   UNL     1       3.200  -1.558   4.332  0.00  0.00    +0.045 A 
ATOM      4  C   UNL     1       4.508  -1.109   4.386  0.00  0.00    +0.022 A 
ATOM      5  C   UNL     1       5.002  -0.294   3.385  0.00  0.00    +0.038 A 
ATOM      6  C   UNL     1       4.194   0.068   2.324  0.00  0.00    +0.168 A 
ATOM      7 CL   UNL     1       2.582  -2.581   5.592  0.00  0.00    -0.083 Cl
ENDROOT
BRANCH   6   8
ATOM      8  N   UNL     1       4.727   0.935   1.250  0.00  0.00    +0.060 N 
ATOM      9  O   UNL     1       5.871   1.323   1.297  0.00  0.00    -0.126 OA
ATOM     10  O   UNL     1       4.018   1.256   0.325  0.00  0.00    -0.126 OA
ENDBRANCH   6   8
BRANCH   1  11
ATOM     11  O   UNL     1       2.083  -0.016   1.231  0.00  0.00    -0.487 OA
BRANCH  11  12
ATOM     12  C   UNL     1       0.742  -0.511   1.242  0.00  0.00    +0.266 C 
BRANCH  12  14
ATOM     13  C   UNL     1      -0.019   1.526   0.010  0.00  0.00    +0.047 C 
ATOM     14  C   UNL     1       0.002  -0.004   0.002  0.00  0.00    +0.138 C 
BRANCH  14  15
ATOM     15  N   UNL     1      -1.376  -0.512   0.012  0.00  0.00    -0.300 NA
ATOM     16  C   UNL     1      -2.119  -0.045  -1.166  0.00  0.00    +0.102 C 
ATOM     17  H   UNL     1      -1.389  -1.520   0.072  0.00  0.00    +0.123 HD
ENDBRANCH  14  15
BRANCH  14  18
ATOM     18  C   UNL     1       0.691  -0.479  -1.209  0.00  0.00    +0.088 C 
ATOM     19  N   UNL     1       1.223  -0.845  -2.144  0.00  0.00    -0.195 NA
ENDBRANCH  14  18
ENDBRANCH  12  14
ENDBRANCH  11  12
ENDBRANCH   1  11
TORSDOF 6
