REMARK  Name = ZINC67313606
REMARK  9 active torsions:
REMARK  status: ('A' for Active; 'I' for Inactive)
REMARK    1  A    between atoms: C_1  and  C_2
REMARK    2  A    between atoms: C_2  and  C_3
REMARK    3  A    between atoms: C_3  and  C_5
REMARK    4  A    between atoms: C_3  and  N_15
REMARK    5  A    between atoms: C_10  and  O_11
REMARK    6  A    between atoms: O_11  and  C_12
REMARK    7  A    between atoms: N_18  and  C_19
REMARK    8  A    between atoms: C_22  and  C_28
REMARK    9  A    between atoms: C_23  and  C_25
REMARK                            x       y       z     vdW  Elec       q    Type
REMARK                         _______ _______ _______ _____ _____    ______ ____
ROOT
ATOM      1  N   UNL     1       2.392  -0.340   1.457  0.00  0.00    -0.292 N 
ATOM      2  C   UNL     1       2.973   0.756   1.984  0.00  0.00    +0.304 C 
ATOM      3  O   UNL     1       2.290   1.702   2.326  0.00  0.00    -0.252 OA
ATOM      4  N   UNL     1       4.312   0.804   2.131  0.00  0.00    -0.269 N 
ATOM      5  H   UNL     1       2.937  -1.095   1.185  0.00  0.00    +0.151 HD
ATOM      6  H   UNL     1       4.863   0.082   1.790  0.00  0.00    +0.156 HD
ENDROOT
BRANCH   4   7
ATOM      7  C   UNL     1       4.907   1.895   2.775  0.00  0.00    +0.035 A 
ATOM      8  C   UNL     1       4.254   2.518   3.832  0.00  0.00    +0.023 A 
ATOM      9  C   UNL     1       4.837   3.595   4.472  0.00  0.00    +0.006 A 
ATOM     10  C   UNL     1       6.071   4.060   4.066  0.00  0.00    -0.038 A 
ATOM     11  C   UNL     1       6.735   3.441   3.005  0.00  0.00    +0.041 A 
ATOM     12  C   UNL     1       6.149   2.350   2.363  0.00  0.00    +0.036 A 
ATOM     13  C   UNL     1       6.702   5.236   4.766  0.00  0.00    +0.044 C 
BRANCH  11  14
ATOM     14  C   UNL     1       8.058   3.937   2.567  0.00  0.00    +0.242 C 
ATOM     15  O   UNL     1       8.619   4.810   3.199  0.00  0.00    -0.270 OA
ATOM     16  N   UNL     1       8.641   3.420   1.468  0.00  0.00    -0.325 N 
ATOM     17  H   UNL     1       8.193   2.723   0.963  0.00  0.00    +0.145 HD
ATOM     18  H   UNL     1       9.508   3.745   1.181  0.00  0.00    +0.145 HD
ENDBRANCH  11  14
ENDBRANCH   4   7
BRANCH   1  19
ATOM     19  C   UNL     1       0.936  -0.392   1.298  0.00  0.00    +0.108 C 
BRANCH  19  20
ATOM     20  C   UNL     1       0.451  -1.793   1.567  0.00  0.00    +0.015 A 
ATOM     21  C   UNL     1       1.288  -2.870   1.344  0.00  0.00    +0.009 A 
ATOM     22  C   UNL     1       0.843  -4.155   1.591  0.00  0.00    +0.001 A 
ATOM     23  C   UNL     1      -0.440  -4.367   2.062  0.00  0.00    +0.004 A 
ATOM     24  C   UNL     1      -1.280  -3.294   2.288  0.00  0.00    +0.046 A 
ATOM     25  C   UNL     1      -0.834  -2.003   2.046  0.00  0.00    +0.132 A 
BRANCH  25  26
ATOM     26  O   UNL     1      -1.657  -0.945   2.272  0.00  0.00    -0.434 OA
BRANCH  26  27
ATOM     27  C   UNL     1      -2.966  -1.236   2.765  0.00  0.00    +0.541 C 
ATOM     28  F   UNL     1      -3.641  -2.047   1.846  0.00  0.00    -0.166 F 
ATOM     29  F   UNL     1      -2.866  -1.903   3.991  0.00  0.00    -0.166 F 
ENDBRANCH  26  27
ENDBRANCH  25  26
ENDBRANCH  19  20
BRANCH  19  31
ATOM     30  C   UNL     1       0.946   1.473  -0.365  0.00  0.00    +0.006 C 
ATOM     31  C   UNL     1       0.565   0.010  -0.131  0.00  0.00    +0.024 C 
ENDBRANCH  19  31
ENDBRANCH   1  19
TORSDOF 7
