REMARK  Name = ZINC66151555
REMARK  9 active torsions:
REMARK  status: ('A' for Active; 'I' for Inactive)
REMARK    1  A    between atoms: C_4  and  O_7
REMARK    2  A    between atoms: O_7  and  C_8
REMARK    3  A    between atoms: C_8  and  C_9
REMARK    4  A    between atoms: C_9  and  C_11
REMARK    5  A    between atoms: C_9  and  O_25
REMARK    6  A    between atoms: C_11  and  N_12
REMARK    7  A    between atoms: C_18  and  C_20
REMARK    8  A    between atoms: C_20  and  C_21
REMARK    9  A    between atoms: N_23  and  N_24
REMARK                            x       y       z     vdW  Elec       q    Type
REMARK                         _______ _______ _______ _____ _____    ______ ____
ROOT
ATOM      1  N   UNL     1       6.433  -4.684   0.076  0.00  0.00    +0.390 N 
ATOM      2  C   UNL     1       7.076  -4.139   1.282  0.00  0.00    -0.059 C 
ATOM      3  C   UNL     1       8.511  -4.666   1.356  0.00  0.00    +0.085 C 
ATOM      4  N   UNL     1       8.515  -6.119   1.205  0.00  0.00    -0.318 N 
ATOM      5  C   UNL     1       7.476  -6.794   0.699  0.00  0.00    +0.200 C 
ATOM      6  O   UNL     1       7.566  -7.998   0.585  0.00  0.00    -0.278 OA
ATOM      7  C   UNL     1       6.204  -6.122   0.267  0.00  0.00    +0.028 C 
ATOM      8  H   UNL     1       9.301  -6.614   1.482  0.00  0.00    +0.149 HD
ATOM      9  H   UNL     1       7.032  -4.540  -0.723  0.00  0.00    -0.081 HD
ENDROOT
BRANCH   1  10
ATOM     10  C   UNL     1       5.148  -4.007  -0.145  0.00  0.00    -0.043 C 
BRANCH  10  11
ATOM     11  C   UNL     1       5.399  -2.539  -0.497  0.00  0.00    +0.135 C 
BRANCH  11  12
ATOM     12  O   UNL     1       6.087  -2.461  -1.747  0.00  0.00    -0.390 OA
ATOM     13  H   UNL     1       5.604  -2.853  -2.487  0.00  0.00    +0.210 HD
ENDBRANCH  11  12
BRANCH  11  14
ATOM     14  C   UNL     1       4.061  -1.805  -0.605  0.00  0.00    +0.258 C 
BRANCH  14  15
ATOM     15  O   UNL     1       4.298  -0.412  -0.819  0.00  0.00    -0.489 OA
BRANCH  15  19
ATOM     16  C   UNL     1       0.984   2.019  -1.179  0.00  0.00    +0.000 A 
ATOM     17  C   UNL     1       2.252   2.563  -1.266  0.00  0.00    +0.004 A 
ATOM     18  C   UNL     1       3.364   1.751  -1.146  0.00  0.00    +0.045 A 
ATOM     19  C   UNL     1       3.207   0.389  -0.937  0.00  0.00    +0.121 A 
ATOM     20  C   UNL     1       1.933  -0.155  -0.850  0.00  0.00    +0.045 A 
ATOM     21  C   UNL     1       0.825   0.661  -0.971  0.00  0.00    +0.004 A 
ENDBRANCH  15  19
ENDBRANCH  14  15
ENDBRANCH  11  14
ENDBRANCH  10  11
ENDBRANCH   1  10
BRANCH   7  22
ATOM     22  C   UNL     1       5.726  -6.739  -1.048  0.00  0.00    +0.091 C 
BRANCH  22  23
ATOM     23  C   UNL     1       6.789  -6.564  -2.102  0.00  0.00    +0.225 C 
ATOM     24  O   UNL     1       7.869  -6.099  -1.802  0.00  0.00    -0.275 OA
ATOM     25  N   UNL     1       6.540  -6.923  -3.377  0.00  0.00    -0.254 N 
ATOM     26  H   UNL     1       5.677  -7.294  -3.616  0.00  0.00    +0.169 HD
BRANCH  25  27
ATOM     27  N   UNL     1       7.504  -6.764  -4.332  0.00  0.00    -0.254 NA
ATOM     28  H   UNL     1       7.175  -7.075  -5.233  0.00  0.00    +0.140 HD
ATOM     29  H   UNL     1       7.819  -5.806  -4.372  0.00  0.00    +0.140 HD
ENDBRANCH  25  27
ENDBRANCH  22  23
ENDBRANCH   7  22
TORSDOF 9
