REMARK  Name = ZINC63478738
REMARK  4 active torsions:
REMARK  status: ('A' for Active; 'I' for Inactive)
REMARK    1  A    between atoms: C_1  and  C_2
REMARK    2  A    between atoms: C_2  and  N_3
REMARK    3  A    between atoms: C_16  and  C_18
REMARK    4  A    between atoms: N_24  and  C_27
REMARK                            x       y       z     vdW  Elec       q    Type
REMARK                         _______ _______ _______ _____ _____    ______ ____
ROOT
ATOM      1  N   UNL     1       0.592   0.141   0.149  0.00  0.00    +0.386 N 
ATOM      2  C   UNL     1       0.540   0.932  -1.082  0.00  0.00    -0.073 C 
ATOM      3  C   UNL     1      -0.899   1.412  -1.349  0.00  0.00    +0.015 C 
ATOM      4  C   UNL     1      -1.772   0.185  -1.254  0.00  0.00    -0.041 C 
ATOM      5  C   UNL     1      -2.713  -0.308  -2.046  0.00  0.00    -0.001 A 
ATOM      6  C   UNL     1      -3.363   0.229  -3.252  0.00  0.00    +0.010 A 
ATOM      7  C   UNL     1      -4.287  -0.574  -3.843  0.00  0.00    +0.001 A 
ATOM      8  C   UNL     1      -4.627  -1.842  -3.361  0.00  0.00    +0.002 A 
ATOM      9  C   UNL     1      -4.088  -2.410  -2.252  0.00  0.00    +0.026 A 
ATOM     10  C   UNL     1      -3.110  -1.658  -1.539  0.00  0.00    +0.043 A 
ATOM     11  N   UNL     1      -2.465  -1.941  -0.445  0.00  0.00    -0.379 N 
ATOM     12  C   UNL     1      -1.645  -0.787  -0.085  0.00  0.00    +0.097 C 
ATOM     13  C   UNL     1      -0.156  -1.120   0.027  0.00  0.00    -0.000 C 
ATOM     14  H   UNL     1      -2.519  -2.776   0.046  0.00  0.00    +0.160 HD
ATOM     15  H   UNL     1       0.200   0.683   0.904  0.00  0.00    -0.081 HD
ENDROOT
BRANCH  13  16
ATOM     16  C   UNL     1       0.083  -1.973   1.246  0.00  0.00    +0.071 A 
ATOM     17  H   UNL     1       1.097  -4.912   2.155  0.00  0.00    +0.173 HD
ATOM     18  C   UNL     1       0.553  -3.247   1.117  0.00  0.00    +0.259 A 
ATOM     19  N   UNL     1       0.764  -4.005   2.241  0.00  0.00    -0.274 N 
ATOM     20  C   UNL     1       0.510  -3.500   3.462  0.00  0.00    +0.337 A 
ATOM     21  O   UNL     1       0.703  -4.187   4.447  0.00  0.00    -0.246 OA
ATOM     22  N   UNL     1       0.046  -2.245   3.610  0.00  0.00    -0.229 N 
ATOM     23  C   UNL     1      -0.169  -1.465   2.532  0.00  0.00    +0.266 A 
ATOM     24  O   UNL     1      -0.584  -0.327   2.672  0.00  0.00    -0.267 OA
ATOM     25  O   UNL     1       0.808  -3.757  -0.106  0.00  0.00    -0.267 OA
BRANCH  22  26
ATOM     26  C   UNL     1      -0.209  -1.745   4.893  0.00  0.00    +0.056 A 
ATOM     27  C   UNL     1      -1.464  -1.905   5.466  0.00  0.00    +0.026 A 
ATOM     28  C   UNL     1      -1.713  -1.411   6.731  0.00  0.00    +0.003 A 
ATOM     29  C   UNL     1      -0.715  -0.756   7.428  0.00  0.00    +0.020 A 
ATOM     30  C   UNL     1       0.537  -0.594   6.861  0.00  0.00    +0.043 A 
ATOM     31  C   UNL     1       0.794  -1.092   5.597  0.00  0.00    +0.046 A 
ATOM     32 CL   UNL     1       1.788   0.230   7.739  0.00  0.00    -0.083 Cl
ENDBRANCH  22  26
ENDBRANCH  13  16
BRANCH   1  34
ATOM     33  C   UNL     1       2.757   1.138   0.713  0.00  0.00    -0.017 C 
ATOM     34  C   UNL     1       1.995  -0.165   0.461  0.00  0.00    -0.081 C 
ENDBRANCH   1  34
TORSDOF 3
