REMARK  Name = ZINC66684464
REMARK  8 active torsions:
REMARK  status: ('A' for Active; 'I' for Inactive)
REMARK    1  A    between atoms: C_1  and  C_2
REMARK    2  A    between atoms: C_5  and  N_14
REMARK    3  A    between atoms: C_7  and  C_8
REMARK    4  A    between atoms: N_10  and  C_11
REMARK    5  A    between atoms: C_11  and  C_12
REMARK    6  A    between atoms: C_11  and  C_13
REMARK    7  A    between atoms: N_17  and  C_18
REMARK    8  A    between atoms: N_17  and  C_19
REMARK                            x       y       z     vdW  Elec       q    Type
REMARK                         _______ _______ _______ _____ _____    ______ ____
ROOT
ATOM      1  N   UNL     1       0.144  -4.328   0.193  0.00  0.00    -0.269 N 
ATOM      2  C   UNL     1       0.207  -5.123  -0.894  0.00  0.00    +0.307 C 
ATOM      3  O   UNL     1       0.130  -4.639  -2.007  0.00  0.00    -0.252 OA
ATOM      4  N   UNL     1       0.356  -6.454  -0.747  0.00  0.00    -0.281 N 
ATOM      5  C   UNL     1       0.449  -7.038   0.593  0.00  0.00    +0.134 C 
ATOM      6  H   UNL     1       0.130  -4.720   1.080  0.00  0.00    +0.156 HD
ENDROOT
BRANCH   4   7
ATOM      7  C   UNL     1       0.425  -7.318  -1.929  0.00  0.00    +0.108 C 
ATOM      8  C   UNL     1       1.754  -8.103  -1.942  0.00  0.00    +0.032 C 
ATOM      9  C   UNL     1       1.336  -9.453  -2.563  0.00  0.00    +0.037 C 
ATOM     10  C   UNL     1      -0.135  -9.601  -2.235  0.00  0.00    -0.042 A 
ATOM     11  C   UNL     1      -0.660  -8.373  -1.872  0.00  0.00    -0.024 A 
ATOM     12  C   UNL     1      -1.997  -8.267  -1.530  0.00  0.00    +0.006 A 
ATOM     13  C   UNL     1      -2.811  -9.383  -1.551  0.00  0.00    +0.000 A 
ATOM     14  C   UNL     1      -2.289 -10.610  -1.915  0.00  0.00    +0.000 A 
ATOM     15  C   UNL     1      -0.950 -10.720  -2.254  0.00  0.00    +0.004 A 
ENDBRANCH   4   7
BRANCH   1  20
ATOM     16  C   UNL     1      -0.020   1.322  -0.399  0.00  0.00    +0.044 C 
ATOM     17  C   UNL     1       0.021  -0.177  -0.245  0.00  0.00    -0.038 A 
ATOM     18  C   UNL     1       0.698  -0.743   0.816  0.00  0.00    +0.006 A 
ATOM     19  C   UNL     1       0.739  -2.117   0.962  0.00  0.00    +0.023 A 
ATOM     20  C   UNL     1       0.099  -2.937   0.041  0.00  0.00    +0.036 A 
ATOM     21  C   UNL     1      -0.584  -2.379  -1.028  0.00  0.00    +0.036 A 
ATOM     22  C   UNL     1      -0.629  -0.992  -1.173  0.00  0.00    +0.041 A 
BRANCH  22  23
ATOM     23  C   UNL     1      -1.360  -0.388  -2.307  0.00  0.00    +0.245 C 
ATOM     24  O   UNL     1      -1.346   0.817  -2.467  0.00  0.00    -0.270 OA
ATOM     25  N   UNL     1      -2.041  -1.174  -3.165  0.00  0.00    -0.309 N 
ATOM     26  H   UNL     1      -2.052  -2.135  -3.038  0.00  0.00    +0.149 HD
BRANCH  25  27
ATOM     27  C   UNL     1      -2.765  -0.575  -4.289  0.00  0.00    +0.067 C 
ATOM     28  C   UNL     1      -2.910  -1.607  -5.410  0.00  0.00    +0.027 C 
ATOM     29  C   UNL     1      -4.153  -0.131  -3.823  0.00  0.00    +0.027 C 
ENDBRANCH  25  27
ENDBRANCH  22  23
ENDBRANCH   1  20
TORSDOF 4
