REMARK  Name = ZINC64870837
REMARK  6 active torsions:
REMARK  status: ('A' for Active; 'I' for Inactive)
REMARK    1  A    between atoms: C_4  and  C_7
REMARK    2  A    between atoms: C_7  and  C_8
REMARK    3  A    between atoms: C_8  and  C_9
REMARK    4  A    between atoms: C_9  and  N_10
REMARK    5  A    between atoms: C_16  and  C_23
REMARK    6  A    between atoms: C_26  and  C_30
REMARK                            x       y       z     vdW  Elec       q    Type
REMARK                         _______ _______ _______ _____ _____    ______ ____
ROOT
ATOM      1  N   UNL     1       5.947  -1.955   2.757  0.00  0.00    -0.261 N 
ATOM      2  C   UNL     1       6.716  -1.036   3.380  0.00  0.00    +0.264 A 
ATOM      3  O   UNL     1       7.046  -0.012   2.814  0.00  0.00    -0.267 OA
ATOM      4  C   UNL     1       7.146  -1.307   4.763  0.00  0.00    +0.063 A 
ATOM      5  C   UNL     1       7.939  -0.409   5.473  0.00  0.00    +0.016 A 
ATOM      6  C   UNL     1       8.314  -0.709   6.766  0.00  0.00    +0.008 A 
ATOM      7  C   UNL     1       7.906  -1.895   7.358  0.00  0.00    -0.000 A 
ATOM      8  C   UNL     1       7.120  -2.793   6.665  0.00  0.00    +0.034 A 
ATOM      9  C   UNL     1       6.733  -2.509   5.365  0.00  0.00    +0.056 A 
ATOM     10  N   UNL     1       5.942  -3.384   4.634  0.00  0.00    -0.307 N 
ATOM     11  H   UNL     1       5.649  -4.217   5.036  0.00  0.00    +0.170 HD
ATOM     12  C   UNL     1       5.574  -3.087   3.376  0.00  0.00    +0.330 A 
ATOM     13  O   UNL     1       4.877  -3.878   2.771  0.00  0.00    -0.246 OA
ENDROOT
BRANCH   7  14
ATOM     14  C   UNL     1       8.326  -2.206   8.772  0.00  0.00    +0.242 C 
ATOM     15  N   UNL     1       9.625  -1.554   9.081  0.00  0.00    -0.265 NA
ATOM     16  C   UNL     1       9.592  -1.450  10.564  0.00  0.00    +0.180 C 
ATOM     17  N   UNL     1       8.171  -1.156  10.862  0.00  0.00    -0.177 NA
ATOM     18  O   UNL     1       7.393  -1.637   9.708  0.00  0.00    -0.274 OA
ATOM     19  H   UNL     1      10.399  -2.125   8.775  0.00  0.00    +0.127 HD
ATOM     20  H   UNL     1       7.877  -1.615  11.711  0.00  0.00    +0.156 HD
BRANCH  16  21
ATOM     21  C   UNL     1      10.479  -0.327  11.037  0.00  0.00    -0.014 A 
ATOM     22  C   UNL     1      11.598   0.025  10.305  0.00  0.00    +0.008 A 
ATOM     23  C   UNL     1      12.411   1.055  10.738  0.00  0.00    +0.020 A 
ATOM     24  C   UNL     1      12.106   1.734  11.904  0.00  0.00    +0.041 A 
ATOM     25  C   UNL     1      10.987   1.381  12.636  0.00  0.00    +0.020 A 
ATOM     26  C   UNL     1      10.171   0.355  12.200  0.00  0.00    +0.008 A 
ATOM     27 CL   UNL     1      13.128   3.027  12.449  0.00  0.00    -0.084 Cl
ENDBRANCH  16  21
ENDBRANCH   7  14
BRANCH   1  28
ATOM     28  C   UNL     1       5.507  -1.710   1.381  0.00  0.00    +0.130 C 
BRANCH  28  29
ATOM     29  C   UNL     1       4.171  -0.963   1.399  0.00  0.00    +0.026 C 
BRANCH  29  30
ATOM     30  C   UNL     1       3.711  -0.707  -0.038  0.00  0.00    +0.037 C 
BRANCH  30  34
ATOM     31  C   UNL     1      -0.017   1.378   0.010  0.00  0.00    +0.000 A 
ATOM     32  C   UNL     1       1.171   2.086   0.002  0.00  0.00    +0.000 A 
ATOM     33  C   UNL     1       2.377   1.411  -0.013  0.00  0.00    +0.003 A 
ATOM     34  C   UNL     1       2.396   0.029  -0.020  0.00  0.00    -0.047 A 
ATOM     35  C   UNL     1       1.208  -0.679  -0.012  0.00  0.00    +0.003 A 
ATOM     36  C   UNL     1       0.002  -0.004   0.002  0.00  0.00    +0.000 A 
ENDBRANCH  30  34
ENDBRANCH  29  30
ENDBRANCH  28  29
ENDBRANCH   1  28
TORSDOF 6
