REMARK  Name = ZINC54979057
REMARK  8 active torsions:
REMARK  status: ('A' for Active; 'I' for Inactive)
REMARK    1  A    between atoms: C_1  and  C_2
REMARK    2  A    between atoms: C_2  and  O_3
REMARK    3  A    between atoms: O_3  and  C_4
REMARK    4  A    between atoms: C_4  and  C_6
REMARK    5  A    between atoms: C_7  and  C_23
REMARK    6  A    between atoms: C_12  and  C_14
REMARK    7  A    between atoms: C_23  and  N_24
REMARK    8  A    between atoms: C_27  and  C_30
REMARK                            x       y       z     vdW  Elec       q    Type
REMARK                         _______ _______ _______ _____ _____    ______ ____
ROOT
ATOM      1  C   UNL     1       1.349  -2.336  -2.519  0.00  0.00    +0.079 C 
ATOM      2  C   UNL     1       1.628  -3.654  -2.615  0.00  0.00    +0.038 C 
ATOM      3  N   UNL     1       2.332  -4.150  -3.674  0.00  0.00    -0.271 N 
ATOM      4  C   UNL     1       2.794  -3.394  -4.678  0.00  0.00    +0.304 C 
ATOM      5  O   UNL     1       3.412  -3.927  -5.579  0.00  0.00    -0.252 OA
ATOM      6  N   UNL     1       2.596  -2.062  -4.722  0.00  0.00    -0.288 N 
ATOM      7  C   UNL     1       1.841  -1.429  -3.628  0.00  0.00    +0.144 C 
ATOM      8  H   UNL     1       2.508  -5.104  -3.701  0.00  0.00    +0.156 HD
ATOM      9  H   UNL     1       2.940  -1.533  -5.459  0.00  0.00    +0.151 HD
ENDROOT
BRANCH   7  10
ATOM     10  C   UNL     1       0.644  -0.734  -4.225  0.00  0.00    -0.019 A 
ATOM     11  C   UNL     1      -0.157  -1.399  -5.135  0.00  0.00    +0.009 A 
ATOM     12  C   UNL     1      -1.256  -0.766  -5.685  0.00  0.00    +0.050 A 
ATOM     13  C   UNL     1      -1.558   0.537  -5.324  0.00  0.00    +0.166 A 
ATOM     14  C   UNL     1      -0.752   1.206  -4.407  0.00  0.00    +0.167 A 
ATOM     15  C   UNL     1       0.345   0.564  -3.856  0.00  0.00    +0.055 A 
ATOM     16  O   UNL     1      -1.254   2.462  -4.220  0.00  0.00    -0.453 OA
ATOM     17  C   UNL     1      -2.134   2.694  -5.335  0.00  0.00    +0.466 C 
ATOM     18  O   UNL     1      -2.565   1.373  -5.712  0.00  0.00    -0.453 OA
ENDBRANCH   7  10
BRANCH   1  19
ATOM     19  C   UNL     1       0.619  -1.821  -1.422  0.00  0.00    +0.339 C 
ATOM     20  O   UNL     1      -0.568  -1.583  -1.540  0.00  0.00    -0.245 OA
BRANCH  19  21
ATOM     21  O   UNL     1       1.239  -1.595  -0.245  0.00  0.00    -0.462 OA
BRANCH  21  23
ATOM     22  C   UNL     1       1.310  -0.884   2.064  0.00  0.00    +0.048 C 
ATOM     23  C   UNL     1       0.441  -1.074   0.819  0.00  0.00    +0.229 C 
ENDBRANCH  21  23
ENDBRANCH  19  21
ENDBRANCH   1  19
BRANCH   2  24
ATOM     24  C   UNL     1       1.153  -4.593  -1.536  0.00  0.00    +0.135 C 
BRANCH  24  25
ATOM     25  N   UNL     1       0.182  -5.539  -2.102  0.00  0.00    -0.297 NA
ATOM     26  C   UNL     1      -1.039  -4.846  -2.531  0.00  0.00    +0.085 C 
ATOM     27  C   UNL     1      -1.964  -5.835  -3.245  0.00  0.00    +0.018 C 
ATOM     28  C   UNL     1      -2.313  -6.980  -2.291  0.00  0.00    -0.012 C 
ATOM     29  C   UNL     1      -1.022  -7.654  -1.820  0.00  0.00    +0.018 C 
ATOM     30  C   UNL     1      -0.124  -6.613  -1.148  0.00  0.00    +0.085 C 
ATOM     31  C   UNL     1      -3.188  -8.002  -3.018  0.00  0.00    +0.007 C 
ENDBRANCH  24  25
ENDBRANCH   2  24
TORSDOF 6
