REMARK  Name = ZINC58368167
REMARK  5 active torsions:
REMARK  status: ('A' for Active; 'I' for Inactive)
REMARK    1  A    between atoms: C_1  and  C_2
REMARK    2  A    between atoms: C_5  and  C_7
REMARK    3  A    between atoms: C_7  and  N_8
REMARK    4  A    between atoms: C_9  and  C_11
REMARK    5  A    between atoms: C_15  and  N_21
REMARK                            x       y       z     vdW  Elec       q    Type
REMARK                         _______ _______ _______ _____ _____    ______ ____
ROOT
ATOM      1  C   UNL     1       1.848  -6.197  -3.057  0.00  0.00    +0.103 A 
ATOM      2  C   UNL     1       2.305  -7.418  -3.440  0.00  0.00    +0.041 A 
ATOM      3  C   UNL     1       2.316  -7.449  -4.856  0.00  0.00    +0.003 A 
ATOM      4  C   UNL     1       2.681  -8.424  -5.794  0.00  0.00    +0.042 A 
ATOM      5  C   UNL     1       2.579  -8.155  -7.127  0.00  0.00    +0.127 A 
ATOM      6  C   UNL     1       2.116  -6.920  -7.566  0.00  0.00    +0.035 A 
ATOM      7  C   UNL     1       1.752  -5.946  -6.664  0.00  0.00    +0.028 A 
ATOM      8  C   UNL     1       1.846  -6.197  -5.298  0.00  0.00    +0.047 A 
ATOM      9  N   UNL     1       1.560  -5.448  -4.182  0.00  0.00    -0.351 N 
ATOM     10  H   UNL     1       1.214  -4.542  -4.184  0.00  0.00    +0.166 HD
ENDROOT
BRANCH   1  12
ATOM     11  N   UNL     1       1.210  -4.510  -1.412  0.00  0.00    -0.306 N 
ATOM     12  C   UNL     1       1.680  -5.747  -1.667  0.00  0.00    +0.261 C 
ATOM     13  O   UNL     1       1.965  -6.491  -0.749  0.00  0.00    -0.269 OA
ATOM     14  H   UNL     1       0.983  -3.917  -2.144  0.00  0.00    +0.149 HD
BRANCH  11  15
ATOM     15  C   UNL     1       1.043  -4.062  -0.027  0.00  0.00    +0.147 C 
BRANCH  15  20
ATOM     16  C   UNL     1      -0.018   1.503   0.010  0.00  0.00    +0.051 C 
ATOM     17  C   UNL     1       0.002  -0.004   0.002  0.00  0.00    -0.013 A 
ATOM     18  C   UNL     1      -1.039  -0.872   0.002  0.00  0.00    +0.011 A 
ATOM     19  C   UNL     1      -0.780  -2.230  -0.007  0.00  0.00    +0.013 A 
ATOM     20  C   UNL     1       0.507  -2.653  -0.016  0.00  0.00    +0.007 A 
ATOM     21  S   UNL     1       1.404  -1.109  -0.018  0.00  0.00    -0.097 S 
ENDBRANCH  15  20
ENDBRANCH  11  15
ENDBRANCH   1  12
BRANCH   5  22
ATOM     22  N   UNL     1       2.966  -9.187  -8.115  0.00  0.00    +0.056 N 
ATOM     23  O   UNL     1       3.369 -10.262  -7.739  0.00  0.00    -0.126 OA
ATOM     24  O   UNL     1       2.877  -8.954  -9.299  0.00  0.00    -0.126 OA
ENDBRANCH   5  22
TORSDOF 4
