REMARK  Name = ZINC67396101
REMARK  8 active torsions:
REMARK  status: ('A' for Active; 'I' for Inactive)
REMARK    1  A    between atoms: C_1  and  C_2
REMARK    2  A    between atoms: C_5  and  C_30
REMARK    3  A    between atoms: C_14  and  C_16
REMARK    4  A    between atoms: N_18  and  C_19
REMARK    5  A    between atoms: C_19  and  C_21
REMARK    6  A    between atoms: C_19  and  C_22
REMARK    7  A    between atoms: C_22  and  C_23
REMARK    8  A    between atoms: C_26  and  O_29
REMARK                            x       y       z     vdW  Elec       q    Type
REMARK                         _______ _______ _______ _____ _____    ______ ____
ROOT
ATOM      1  C   UNL     1       0.047   0.880  -0.300  0.00  0.00    +0.028 C 
ATOM      2  C   UNL     1      -0.740  -0.052   0.624  0.00  0.00    +0.080 C 
ATOM      3  C   UNL     1      -1.067  -1.358  -0.112  0.00  0.00    +0.040 C 
ATOM      4  C   UNL     1      -1.912  -2.243   0.804  0.00  0.00    +0.108 C 
ATOM      5  C   UNL     1      -1.253  -2.387   2.151  0.00  0.00    -0.014 A 
ATOM      6  C   UNL     1      -1.605  -3.457   2.958  0.00  0.00    +0.006 A 
ATOM      7  C   UNL     1      -1.020  -3.615   4.199  0.00  0.00    +0.000 A 
ATOM      8  C   UNL     1      -0.080  -2.704   4.646  0.00  0.00    +0.002 A 
ATOM      9  C   UNL     1       0.277  -1.636   3.848  0.00  0.00    +0.024 A 
ATOM     10  C   UNL     1      -0.309  -1.476   2.597  0.00  0.00    +0.041 A 
ATOM     11  N   UNL     1       0.073  -0.389   1.800  0.00  0.00    -0.261 N 
ATOM     12  C   UNL     1       1.168   0.334   2.106  0.00  0.00    +0.306 C 
ATOM     13  O   UNL     1       1.393   1.373   1.520  0.00  0.00    -0.265 OA
ENDROOT
BRANCH   4  14
ATOM     14  C   UNL     1      -2.063  -3.606   0.180  0.00  0.00    +0.218 C 
ATOM     15  O   UNL     1      -1.148  -4.087  -0.454  0.00  0.00    -0.275 OA
ATOM     16  N   UNL     1      -3.215  -4.290   0.326  0.00  0.00    -0.329 N 
ATOM     17  H   UNL     1      -3.971  -3.877   0.771  0.00  0.00    +0.145 HD
ATOM     18  H   UNL     1      -3.288  -5.195  -0.015  0.00  0.00    +0.145 HD
ENDBRANCH   4  14
BRANCH  12  19
ATOM     19  C   UNL     1       2.105  -0.142   3.167  0.00  0.00    +0.300 C 
ATOM     20  O   UNL     1       2.485  -1.294   3.168  0.00  0.00    -0.265 OA
ATOM     21  N   UNL     1       2.528   0.708   4.124  0.00  0.00    -0.305 N 
ATOM     22  H   UNL     1       2.224   1.629   4.123  0.00  0.00    +0.149 HD
BRANCH  21  23
ATOM     23  C   UNL     1       3.447   0.241   5.164  0.00  0.00    +0.075 C 
ATOM     24  C   UNL     1       4.886   0.332   4.652  0.00  0.00    +0.028 C 
BRANCH  23  25
ATOM     25  C   UNL     1       3.293   1.114   6.411  0.00  0.00    +0.057 C 
BRANCH  25  26
ATOM     26  C   UNL     1       1.912   0.929   6.986  0.00  0.00    -0.045 A 
ATOM     27  C   UNL     1       0.875   1.740   6.565  0.00  0.00    +0.007 A 
ATOM     28  C   UNL     1      -0.392   1.573   7.091  0.00  0.00    +0.045 A 
ATOM     29  C   UNL     1      -0.622   0.590   8.042  0.00  0.00    +0.117 A 
ATOM     30  C   UNL     1       0.421  -0.223   8.463  0.00  0.00    +0.045 A 
ATOM     31  C   UNL     1       1.684  -0.055   7.930  0.00  0.00    +0.007 A 
BRANCH  29  32
ATOM     32  O   UNL     1      -1.867   0.424   8.562  0.00  0.00    -0.507 OA
ATOM     33  H   UNL     1      -2.418  -0.200   8.070  0.00  0.00    +0.292 HD
ENDBRANCH  29  32
ENDBRANCH  25  26
ENDBRANCH  23  25
ENDBRANCH  21  23
ENDBRANCH  12  19
TORSDOF 6
