REMARK  Name = ZINC48873881
REMARK  6 active torsions:
REMARK  status: ('A' for Active; 'I' for Inactive)
REMARK    1  A    between atoms: C_1  and  C_2
REMARK    2  A    between atoms: C_2  and  C_4
REMARK    3  A    between atoms: C_2  and  N_14
REMARK    4  A    between atoms: C_15  and  C_17
REMARK    5  A    between atoms: N_19  and  C_20
REMARK    6  A    between atoms: C_23  and  N_27
REMARK                            x       y       z     vdW  Elec       q    Type
REMARK                         _______ _______ _______ _____ _____    ______ ____
ROOT
ATOM      1  N   UNL     1       0.334  -0.359  -0.857  0.00  0.00    -0.301 N 
ATOM      2  C   UNL     1      -0.235  -0.376  -2.079  0.00  0.00    +0.300 C 
ATOM      3  O   UNL     1      -1.374   0.018  -2.224  0.00  0.00    -0.265 OA
ATOM      4  H   UNL     1       1.244  -0.674  -0.742  0.00  0.00    +0.150 HD
ENDROOT
BRANCH   2   5
ATOM      5  C   UNL     1       0.536  -0.879  -3.255  0.00  0.00    +0.303 C 
ATOM      6  O   UNL     1       1.675  -1.273  -3.110  0.00  0.00    -0.265 OA
ATOM      7  N   UNL     1      -0.032  -0.896  -4.477  0.00  0.00    -0.276 N 
ATOM      8  H   UNL     1      -0.910  -0.504  -4.608  0.00  0.00    +0.155 HD
BRANCH   7   9
ATOM      9  C   UNL     1       0.643  -1.477  -5.554  0.00  0.00    +0.052 A 
ATOM     10  C   UNL     1       1.601  -2.456  -5.328  0.00  0.00    +0.027 A 
ATOM     11  C   UNL     1       2.267  -3.028  -6.394  0.00  0.00    +0.034 A 
ATOM     12  C   UNL     1       1.980  -2.627  -7.687  0.00  0.00    +0.128 A 
ATOM     13  C   UNL     1       1.026  -1.653  -7.916  0.00  0.00    +0.054 A 
ATOM     14  C   UNL     1       0.352  -1.080  -6.854  0.00  0.00    +0.064 A 
ATOM     15 CL   UNL     1      -0.851   0.138  -7.143  0.00  0.00    -0.082 Cl
BRANCH  12  16
ATOM     16  N   UNL     1       2.695  -3.243  -8.827  0.00  0.00    +0.056 N 
ATOM     17  O   UNL     1       3.530  -4.095  -8.628  0.00  0.00    -0.126 OA
ATOM     18  O   UNL     1       2.446  -2.893  -9.957  0.00  0.00    -0.126 OA
ENDBRANCH  12  16
ENDBRANCH   7   9
ENDBRANCH   2   5
BRANCH   1  20
ATOM     19  C   UNL     1      -0.393   1.664   0.309  0.00  0.00    +0.033 C 
ATOM     20  C   UNL     1      -0.423   0.134   0.296  0.00  0.00    +0.101 C 
BRANCH  20  21
ATOM     21  C   UNL     1       0.197  -0.392   1.566  0.00  0.00    -0.020 A 
ATOM     22  C   UNL     1       1.488  -0.824   1.569  0.00  0.00    +0.006 A 
ATOM     23  C   UNL     1       2.078  -1.313   2.732  0.00  0.00    +0.001 A 
ATOM     24  C   UNL     1       1.380  -1.373   3.900  0.00  0.00    +0.008 A 
ATOM     25  C   UNL     1       0.045  -0.936   3.936  0.00  0.00    -0.018 A 
ATOM     26  C   UNL     1      -0.553  -0.432   2.753  0.00  0.00    -0.013 A 
ATOM     27  C   UNL     1      -1.886   0.010   2.790  0.00  0.00    +0.009 A 
ATOM     28  C   UNL     1      -2.582  -0.045   3.959  0.00  0.00    +0.001 A 
ATOM     29  C   UNL     1      -1.991  -0.533   5.123  0.00  0.00    +0.001 A 
ATOM     30  C   UNL     1      -0.707  -0.983   5.122  0.00  0.00    +0.008 A 
ENDBRANCH  20  21
ENDBRANCH   1  20
TORSDOF 5
