REMARK  Name = ZINC08995293
REMARK  6 active torsions:
REMARK  status: ('A' for Active; 'I' for Inactive)
REMARK    1  A    between atoms: C_1  and  C_2
REMARK    2  A    between atoms: C_2  and  C_3
REMARK    3  A    between atoms: C_3  and  C_5
REMARK    4  A    between atoms: C_3  and  N_6
REMARK    5  A    between atoms: C_11  and  C_27
REMARK    6  A    between atoms: C_27  and  C_28
REMARK                            x       y       z     vdW  Elec       q    Type
REMARK                         _______ _______ _______ _____ _____    ______ ____
ROOT
ATOM      1  N   UNL     1       3.236  -1.138  -2.640  0.00  0.00    -0.239 N 
ATOM      2  C   UNL     1       3.131  -1.831  -1.460  0.00  0.00    +0.224 C 
ATOM      3  O   UNL     1       3.564  -2.935  -1.212  0.00  0.00    -0.275 OA
ATOM      4  C   UNL     1       2.366  -0.926  -0.546  0.00  0.00    +0.073 C 
ATOM      5  C   UNL     1       2.657  -0.831   0.936  0.00  0.00    -0.049 C 
ATOM      6  C   UNL     1       2.618   1.373  -0.015  0.00  0.00    +0.050 C 
ATOM      7  C   UNL     1       3.003   0.421  -1.056  0.00  0.00    +0.088 C 
ATOM      8  C   UNL     1       3.013   0.209  -2.481  0.00  0.00    +0.225 C 
ATOM      9  O   UNL     1       2.858   1.038  -3.351  0.00  0.00    -0.275 OA
ATOM     10  C   UNL     1       1.172   1.779   0.000  0.00  0.00    -0.028 A 
ATOM     11  C   UNL     1      -0.013   1.076   0.008  0.00  0.00    +0.004 A 
ATOM     12  C   UNL     1      -1.221   1.749   0.017  0.00  0.00    +0.000 A 
ATOM     13  C   UNL     1      -1.238   3.132   0.031  0.00  0.00    +0.002 A 
ATOM     14  C   UNL     1      -0.055   3.842   0.022  0.00  0.00    +0.023 A 
ATOM     15  C   UNL     1       1.166   3.171   0.007  0.00  0.00    +0.036 A 
ATOM     16  N   UNL     1       2.474   3.660  -0.004  0.00  0.00    -0.286 N 
ATOM     17  C   UNL     1       3.386   2.670  -0.018  0.00  0.00    +0.211 C 
ATOM     18  O   UNL     1       4.592   2.797  -0.030  0.00  0.00    -0.277 OA
ATOM     19  H   UNL     1       2.699   4.603  -0.003  0.00  0.00    +0.155 HD
ATOM     20  N   UNL     1       2.940   0.597   1.214  0.00  0.00    +0.394 N 
ATOM     21  H   UNL     1       3.932   0.716   1.453  0.00  0.00    -0.083 HD
ATOM     22  H   UNL     1       2.359   0.923   1.995  0.00  0.00    -0.083 HD
ENDROOT
BRANCH   1  23
ATOM     23  C   UNL     1       3.551  -1.765  -3.926  0.00  0.00    +0.081 C 
ATOM     24  C   UNL     1       2.479  -2.804  -4.263  0.00  0.00    +0.028 C 
BRANCH  23  26
ATOM     25  C   UNL     1       6.003  -1.395  -3.626  0.00  0.00    +0.006 C 
ATOM     26  C   UNL     1       4.916  -2.450  -3.839  0.00  0.00    +0.019 C 
ENDBRANCH  23  26
ENDBRANCH   1  23
BRANCH   5  27
ATOM     27  C   UNL     1       1.438  -1.294   1.738  0.00  0.00    +0.080 C 
BRANCH  27  28
ATOM     28  C   UNL     1       1.773  -1.288   3.208  0.00  0.00    +0.209 C 
ATOM     29  O   UNL     1       2.877  -0.947   3.577  0.00  0.00    -0.276 OA
ATOM     30  N   UNL     1       0.845  -1.661   4.111  0.00  0.00    -0.329 N 
ATOM     31  H   UNL     1      -0.038  -1.933   3.816  0.00  0.00    +0.145 HD
ATOM     32  H   UNL     1       1.060  -1.657   5.057  0.00  0.00    +0.145 HD
ENDBRANCH  27  28
ENDBRANCH   5  27
TORSDOF 4
