REMARK  Name = ZINC50854234
REMARK  8 active torsions:
REMARK  status: ('A' for Active; 'I' for Inactive)
REMARK    1  A    between atoms: C_1  and  C_2
REMARK    2  A    between atoms: C_4  and  C_27
REMARK    3  A    between atoms: C_6  and  C_23
REMARK    4  A    between atoms: C_10  and  C_11
REMARK    5  A    between atoms: C_17  and  C_20
REMARK    6  A    between atoms: C_23  and  C_24
REMARK    7  A    between atoms: C_23  and  C_25
REMARK    8  A    between atoms: C_23  and  C_26
REMARK                            x       y       z     vdW  Elec       q    Type
REMARK                         _______ _______ _______ _____ _____    ______ ____
ROOT
ATOM      1  C   UNL     1       2.700   0.671  -0.899  0.00  0.00    +0.046 C 
ATOM      2  C   UNL     1       1.800  -0.491  -0.567  0.00  0.00    -0.020 A 
ATOM      3  C   UNL     1       0.941  -1.017  -1.546  0.00  0.00    +0.032 A 
ATOM      4  C   UNL     1       0.760  -0.615  -2.893  0.00  0.00    +0.050 A 
ATOM      5  N   UNL     1      -0.108  -1.254  -3.645  0.00  0.00    -0.236 NA
ATOM      6  C   UNL     1      -0.828  -2.267  -3.193  0.00  0.00    +0.136 A 
ATOM      7  N   UNL     1      -0.710  -2.692  -1.950  0.00  0.00    -0.224 NA
ATOM      8  C   UNL     1       0.137  -2.110  -1.129  0.00  0.00    +0.113 A 
ATOM      9  S   UNL     1       0.609  -2.341   0.566  0.00  0.00    -0.064 S 
ATOM     10  C   UNL     1       1.821  -1.036   0.678  0.00  0.00    +0.080 A 
ATOM     11  C   UNL     1       1.556   0.534  -3.457  0.00  0.00    +0.066 C 
ENDROOT
BRANCH  10  12
ATOM     12  C   UNL     1       2.639  -0.644   1.835  0.00  0.00    +0.254 C 
ATOM     13  O   UNL     1       2.796   0.533   2.098  0.00  0.00    -0.269 OA
ATOM     14  N   UNL     1       3.216  -1.589   2.603  0.00  0.00    -0.292 N 
ATOM     15  C   UNL     1       2.967  -3.019   2.360  0.00  0.00    +0.136 C 
ATOM     16  C   UNL     1       4.318  -3.739   2.286  0.00  0.00    +0.180 C 
ATOM     17  O   UNL     1       5.087  -3.417   3.448  0.00  0.00    -0.364 OA
ATOM     18  C   UNL     1       5.408  -2.030   3.571  0.00  0.00    +0.221 C 
ATOM     19  C   UNL     1       4.117  -1.222   3.707  0.00  0.00    +0.149 C 
BRANCH  18  20
ATOM     20  C   UNL     1       6.268  -1.818   4.790  0.00  0.00    +0.241 C 
ATOM     21  O   UNL     1       6.501  -2.746   5.536  0.00  0.00    -0.273 OA
ATOM     22  N   UNL     1       6.779  -0.599   5.052  0.00  0.00    -0.327 N 
ATOM     23  H   UNL     1       6.592   0.143   4.455  0.00  0.00    +0.145 HD
ATOM     24  H   UNL     1       7.332  -0.463   5.837  0.00  0.00    +0.145 HD
ENDBRANCH  18  20
ENDBRANCH  10  12
BRANCH   6  25
ATOM     25  C   UNL     1      -1.803  -2.949  -4.117  0.00  0.00    +0.022 C 
ATOM     26  C   UNL     1      -1.051  -3.525  -5.318  0.00  0.00    +0.019 C 
ATOM     27  C   UNL     1      -2.510  -4.081  -3.368  0.00  0.00    +0.019 C 
ATOM     28  C   UNL     1      -2.840  -1.935  -4.603  0.00  0.00    +0.019 C 
ENDBRANCH   6  25
TORSDOF 3
