REMARK  Name = ZINC06527299
REMARK  4 active torsions:
REMARK  status: ('A' for Active; 'I' for Inactive)
REMARK    1  A    between atoms: C_4  and  N_20
REMARK    2  A    between atoms: C_5  and  C_7
REMARK    3  A    between atoms: C_8  and  C_9
REMARK    4  A    between atoms: N_11  and  C_12
REMARK                            x       y       z     vdW  Elec       q    Type
REMARK                         _______ _______ _______ _____ _____    ______ ____
ROOT
ATOM      1  C   UNL     1      -2.417  -0.304  -0.061  0.00  0.00    +0.241 C 
ATOM      2  O   UNL     1      -1.357  -0.903  -0.073  0.00  0.00    -0.270 OA
ATOM      3  N   UNL     1      -2.431   1.038   0.059  0.00  0.00    -0.281 N 
ATOM      4  H   UNL     1      -3.275   1.508   0.151  0.00  0.00    +0.155 HD
ENDROOT
BRANCH   3   5
ATOM      5  C   UNL     1      -1.229   1.754   0.050  0.00  0.00    +0.052 A 
ATOM      6  C   UNL     1      -0.107   1.222  -0.572  0.00  0.00    +0.026 A 
ATOM      7  C   UNL     1       1.077   1.933  -0.584  0.00  0.00    +0.022 A 
ATOM      8  C   UNL     1       1.148   3.173   0.027  0.00  0.00    +0.042 A 
ATOM      9  C   UNL     1       0.034   3.704   0.652  0.00  0.00    +0.041 A 
ATOM     10  C   UNL     1      -1.154   2.997   0.668  0.00  0.00    +0.064 A 
ATOM     11 CL   UNL     1      -2.552   3.663   1.452  0.00  0.00    -0.082 Cl
ATOM     12 CL   UNL     1       2.638   4.064   0.010  0.00  0.00    -0.083 Cl
ENDBRANCH   3   5
BRANCH   1  14
ATOM     13  C   UNL     1      -3.661  -2.385  -0.295  0.00  0.00    +0.015 C 
ATOM     14  C   UNL     1      -3.675  -1.042  -0.175  0.00  0.00    +0.068 C 
BRANCH  13  19
ATOM     15  C   UNL     1      -7.321  -3.140  -0.615  0.00  0.00    +0.001 A 
ATOM     16  C   UNL     1      -7.309  -4.524  -0.629  0.00  0.00    +0.002 A 
ATOM     17  C   UNL     1      -6.113  -5.214  -0.534  0.00  0.00    +0.033 A 
ATOM     18  C   UNL     1      -4.923  -4.526  -0.431  0.00  0.00    +0.133 A 
ATOM     19  C   UNL     1      -4.927  -3.127  -0.410  0.00  0.00    +0.005 A 
ATOM     20  C   UNL     1      -6.140  -2.438  -0.506  0.00  0.00    +0.010 A 
BRANCH  18  21
ATOM     21  N   UNL     1      -3.644  -5.265  -0.336  0.00  0.00    +0.057 N 
ATOM     22  O   UNL     1      -3.647  -6.480  -0.256  0.00  0.00    -0.126 OA
ATOM     23  O   UNL     1      -2.588  -4.658  -0.337  0.00  0.00    -0.126 OA
ENDBRANCH  18  21
ENDBRANCH  13  19
ENDBRANCH   1  14
TORSDOF 4
