REMARK  Name = ZINC35624183
REMARK  2 active torsions:
REMARK  status: ('A' for Active; 'I' for Inactive)
REMARK    1  A    between atoms: C_6  and  N_7
REMARK    2  A    between atoms: C_14  and  O_17
REMARK                            x       y       z     vdW  Elec       q    Type
REMARK                         _______ _______ _______ _____ _____    ______ ____
ROOT
ATOM      1  C   UNL     1       1.131   1.575  -1.084  0.00  0.00    +0.039 A 
ATOM      2  C   UNL     1       1.135   2.037   0.225  0.00  0.00    +0.042 A 
ATOM      3  C   UNL     1       1.200   1.128   1.264  0.00  0.00    +0.131 A 
ATOM      4  N   UNL     1       1.258  -0.170   1.024  0.00  0.00    -0.218 NA
ATOM      5  C   UNL     1       1.256  -0.648  -0.210  0.00  0.00    +0.153 A 
ATOM      6  C   UNL     1       1.192   0.211  -1.303  0.00  0.00    +0.166 A 
ATOM      7  N   UNL     1       1.319  -2.021  -0.417  0.00  0.00    -0.311 N 
ATOM      8  C   UNL     1       0.096  -2.836  -0.414  0.00  0.00    +0.107 C 
ATOM      9  C   UNL     1       0.270  -3.982   0.587  0.00  0.00    +0.021 C 
ATOM     10  C   UNL     1       1.543  -4.761   0.248  0.00  0.00    +0.034 C 
ATOM     11  C   UNL     1       2.756  -3.834   0.360  0.00  0.00    +0.132 C 
ATOM     12  C   UNL     1       2.609  -2.685  -0.649  0.00  0.00    +0.137 C 
ATOM     13 CL   UNL     1       1.206   1.698   2.904  0.00  0.00    -0.062 Cl
ENDROOT
BRANCH   6  14
ATOM     14  N   UNL     1       1.190  -0.328  -2.681  0.00  0.00    +0.060 N 
ATOM     15  O   UNL     1       1.238   0.426  -3.625  0.00  0.00    -0.126 OA
ATOM     16  O   UNL     1       1.140  -1.522  -2.863  0.00  0.00    -0.126 OA
ENDBRANCH   6  14
BRANCH  11  17
ATOM     17  O   UNL     1       3.947  -4.570   0.074  0.00  0.00    -0.390 OA
ATOM     18  H   UNL     1       4.102  -5.316   0.670  0.00  0.00    +0.210 HD
ENDBRANCH  11  17
TORSDOF 2
