REMARK  Name = ZINC19894305
REMARK  4 active torsions:
REMARK  status: ('A' for Active; 'I' for Inactive)
REMARK    1  A    between atoms: C_4  and  N_23
REMARK    2  A    between atoms: C_5  and  C_10
REMARK    3  A    between atoms: N_15  and  C_16
REMARK    4  A    between atoms: C_16  and  C_17
REMARK                            x       y       z     vdW  Elec       q    Type
REMARK                         _______ _______ _______ _____ _____    ______ ____
ROOT
ATOM      1  C   UNL     1       4.428   1.893  -0.031  0.00  0.00    +0.020 A 
ATOM      2  C   UNL     1       3.707   0.722  -0.030  0.00  0.00    +0.014 A 
ATOM      3  C   UNL     1       2.293   0.787  -0.016  0.00  0.00    +0.029 A 
ATOM      4  C   UNL     1       1.330  -0.303  -0.012  0.00  0.00    +0.052 A 
ATOM      5  C   UNL     1       0.002  -0.004   0.002  0.00  0.00    +0.080 A 
ATOM      6  S   UNL     1      -0.022   1.778   0.012  0.00  0.00    -0.064 S 
ATOM      7  C   UNL     1       1.727   2.083  -0.003  0.00  0.00    +0.111 A 
ATOM      8  N   UNL     1       2.460   3.174  -0.005  0.00  0.00    -0.248 NA
ATOM      9  C   UNL     1       3.778   3.118  -0.018  0.00  0.00    +0.112 A 
ENDROOT
BRANCH   5  10
ATOM     10  C   UNL     1      -1.140  -0.930   0.008  0.00  0.00    +0.173 A 
ATOM     11  N   UNL     1      -1.066  -2.235  -0.005  0.00  0.00    -0.128 NA
ATOM     12  N   UNL     1      -2.372  -2.743   0.010  0.00  0.00    -0.121 NA
ATOM     13  C   UNL     1      -3.217  -1.692   0.023  0.00  0.00    +0.203 A 
ATOM     14  S   UNL     1      -4.927  -1.772   0.039  0.00  0.00    -0.009 SA
ATOM     15  N   UNL     1      -2.474  -0.568   0.022  0.00  0.00    -0.298 N 
BRANCH  15  16
ATOM     16  C   UNL     1      -2.991   0.803   0.033  0.00  0.00    +0.157 C 
BRANCH  16  17
ATOM     17  C   UNL     1      -3.185   1.286  -1.405  0.00  0.00    +0.138 C 
ATOM     18  C   UNL     1      -3.817   2.701  -1.416  0.00  0.00    +0.035 C 
ATOM     19  C   UNL     1      -3.332   3.229  -2.795  0.00  0.00    +0.031 C 
ATOM     20  C   UNL     1      -1.941   2.572  -2.928  0.00  0.00    +0.160 C 
ATOM     21  O   UNL     1      -1.913   1.436  -2.056  0.00  0.00    -0.375 OA
ENDBRANCH  16  17
ENDBRANCH  15  16
ENDBRANCH   5  10
BRANCH   4  22
ATOM     22  N   UNL     1       1.760  -1.635  -0.023  0.00  0.00    -0.356 N 
ATOM     23  H   UNL     1       1.023  -2.451  -0.021  0.00  0.00    +0.142 HD
ATOM     24  H   UNL     1       2.836  -1.865  -0.034  0.00  0.00    +0.142 HD
ENDBRANCH   4  22
TORSDOF 4
