REMARK  Name = ZINC64870601
REMARK  6 active torsions:
REMARK  status: ('A' for Active; 'I' for Inactive)
REMARK    1  A    between atoms: C_1  and  C_2
REMARK    2  A    between atoms: C_2  and  C_3
REMARK    3  A    between atoms: C_3  and  C_4
REMARK    4  A    between atoms: C_4  and  N_5
REMARK    5  A    between atoms: C_11  and  C_18
REMARK    6  A    between atoms: C_21  and  C_25
REMARK                            x       y       z     vdW  Elec       q    Type
REMARK                         _______ _______ _______ _____ _____    ______ ____
ROOT
ATOM      1  N   UNL     1       1.497  -2.405   2.455  0.00  0.00    -0.261 N 
ATOM      2  C   UNL     1       2.807  -2.721   2.361  0.00  0.00    +0.264 A 
ATOM      3  O   UNL     1       3.403  -2.603   1.308  0.00  0.00    -0.267 OA
ATOM      4  C   UNL     1       3.494  -3.213   3.568  0.00  0.00    +0.063 A 
ATOM      5  C   UNL     1       4.844  -3.560   3.552  0.00  0.00    +0.016 A 
ATOM      6  C   UNL     1       5.441  -4.014   4.709  0.00  0.00    +0.008 A 
ATOM      7  C   UNL     1       4.708  -4.128   5.880  0.00  0.00    -0.000 A 
ATOM      8  C   UNL     1       3.370  -3.788   5.909  0.00  0.00    +0.034 A 
ATOM      9  C   UNL     1       2.752  -3.328   4.756  0.00  0.00    +0.056 A 
ATOM     10  N   UNL     1       1.411  -2.976   4.742  0.00  0.00    -0.307 N 
ATOM     11  H   UNL     1       0.886  -3.050   5.554  0.00  0.00    +0.170 HD
ATOM     12  C   UNL     1       0.832  -2.527   3.614  0.00  0.00    +0.330 A 
ATOM     13  O   UNL     1      -0.345  -2.225   3.645  0.00  0.00    -0.246 OA
ENDROOT
BRANCH   7  14
ATOM     14  C   UNL     1       5.378  -4.628   7.134  0.00  0.00    +0.242 C 
ATOM     15  N   UNL     1       4.621  -5.774   7.686  0.00  0.00    -0.265 NA
ATOM     16  C   UNL     1       4.702  -5.585   9.159  0.00  0.00    +0.180 C 
ATOM     17  N   UNL     1       4.622  -4.105   9.291  0.00  0.00    -0.177 NA
ATOM     18  O   UNL     1       5.381  -3.595   8.131  0.00  0.00    -0.274 OA
ATOM     19  H   UNL     1       3.663  -5.760   7.372  0.00  0.00    +0.127 HD
ATOM     20  H   UNL     1       3.664  -3.791   9.264  0.00  0.00    +0.156 HD
BRANCH  16  21
ATOM     21  C   UNL     1       3.541  -6.252   9.851  0.00  0.00    -0.013 A 
ATOM     22  C   UNL     1       2.966  -7.383   9.300  0.00  0.00    +0.006 A 
ATOM     23  C   UNL     1       1.902  -7.996   9.934  0.00  0.00    +0.001 A 
ATOM     24  C   UNL     1       1.411  -7.479  11.118  0.00  0.00    +0.015 A 
ATOM     25  C   UNL     1       1.985  -6.348  11.669  0.00  0.00    +0.018 A 
ATOM     26  C   UNL     1       3.054  -5.737  11.037  0.00  0.00    +0.021 A 
ATOM     27 BR   UNL     1       1.314  -5.639  13.288  0.00  0.00    -0.050 Br
ENDBRANCH  16  21
ENDBRANCH   7  14
BRANCH   1  28
ATOM     28  C   UNL     1       0.789  -1.913   1.270  0.00  0.00    +0.130 C 
BRANCH  28  29
ATOM     29  C   UNL     1       0.901  -0.389   1.205  0.00  0.00    +0.022 C 
BRANCH  29  31
ATOM     30  C   UNL     1       0.274   1.649  -0.097  0.00  0.00    +0.004 C 
ATOM     31  C   UNL     1       0.163   0.125  -0.032  0.00  0.00    -0.002 C 
ENDBRANCH  29  31
ENDBRANCH  28  29
ENDBRANCH   1  28
TORSDOF 5
