REMARK  Name = ZINC49300086
REMARK  7 active torsions:
REMARK  status: ('A' for Active; 'I' for Inactive)
REMARK    1  A    between atoms: C_1  and  C_2
REMARK    2  A    between atoms: C_2  and  C_3
REMARK    3  A    between atoms: C_2  and  C_4
REMARK    4  A    between atoms: C_4  and  C_6
REMARK    5  A    between atoms: C_4  and  N_11
REMARK    6  A    between atoms: C_12  and  C_14
REMARK    7  A    between atoms: N_16  and  C_17
REMARK                            x       y       z     vdW  Elec       q    Type
REMARK                         _______ _______ _______ _____ _____    ______ ____
ROOT
ATOM      1  N   UNL     1      -2.098  -0.051   1.228  0.00  0.00    -0.300 N 
ATOM      2  C   UNL     1      -2.688   1.160   1.236  0.00  0.00    +0.300 C 
ATOM      3  O   UNL     1      -2.644   1.863   0.247  0.00  0.00    -0.265 OA
ATOM      4  H   UNL     1      -2.133  -0.613   2.018  0.00  0.00    +0.150 HD
ENDROOT
BRANCH   2   5
ATOM      5  C   UNL     1      -3.397   1.637   2.460  0.00  0.00    +0.303 C 
ATOM      6  O   UNL     1      -3.442   0.934   3.448  0.00  0.00    -0.265 OA
ATOM      7  N   UNL     1      -3.988   2.849   2.467  0.00  0.00    -0.275 N 
ATOM      8  H   UNL     1      -3.898   3.437   1.702  0.00  0.00    +0.155 HD
BRANCH   7   9
ATOM      9  C   UNL     1      -4.731   3.257   3.579  0.00  0.00    +0.069 A 
ATOM     10  C   UNL     1      -4.342   2.874   4.856  0.00  0.00    +0.027 A 
ATOM     11  C   UNL     1      -5.077   3.279   5.953  0.00  0.00    +0.022 A 
ATOM     12  C   UNL     1      -6.203   4.066   5.781  0.00  0.00    +0.044 A 
ATOM     13  C   UNL     1      -6.595   4.450   4.511  0.00  0.00    +0.060 A 
ATOM     14  C   UNL     1      -5.860   4.053   3.410  0.00  0.00    +0.146 A 
ATOM     15  F   UNL     1      -6.239   4.433   2.170  0.00  0.00    -0.203 F 
ATOM     16 CL   UNL     1      -7.124   4.573   7.163  0.00  0.00    -0.083 Cl
ENDBRANCH   7   9
ENDBRANCH   2   5
BRANCH   1  17
ATOM     17  C   UNL     1      -1.402  -0.520   0.027  0.00  0.00    +0.113 C 
BRANCH  17  18
ATOM     18  C   UNL     1      -1.374  -2.026   0.017  0.00  0.00    +0.010 A 
ATOM     19  C   UNL     1      -1.539  -2.876  -1.026  0.00  0.00    +0.013 A 
ATOM     20  C   UNL     1      -1.472  -4.238  -0.797  0.00  0.00    +0.008 A 
ATOM     21  C   UNL     1      -1.244  -4.683   0.463  0.00  0.00    +0.045 A 
ATOM     22  S   UNL     1      -1.109  -3.155   1.375  0.00  0.00    -0.100 S 
ENDBRANCH  17  18
BRANCH  17  24
ATOM     23  C   UNL     1       0.004   1.546   0.036  0.00  0.00    +0.009 C 
ATOM     24  C   UNL     1       0.031   0.017   0.026  0.00  0.00    +0.008 C 
ATOM     25  C   UNL     1       0.765  -0.488   1.270  0.00  0.00    +0.009 C 
ENDBRANCH  17  24
ENDBRANCH   1  17
TORSDOF 5
