REMARK  Name = ZINC63190207
REMARK  6 active torsions:
REMARK  status: ('A' for Active; 'I' for Inactive)
REMARK    1  A    between atoms: C_1  and  C_2
REMARK    2  A    between atoms: C_2  and  C_3
REMARK    3  A    between atoms: C_2  and  N_4
REMARK    4  A    between atoms: C_8  and  C_10
REMARK    5  A    between atoms: C_10  and  N_11
REMARK    6  A    between atoms: C_16  and  C_18
REMARK                            x       y       z     vdW  Elec       q    Type
REMARK                         _______ _______ _______ _____ _____    ______ ____
ROOT
ATOM      1  N   UNL     1       6.159  -1.649  -3.334  0.00  0.00    -0.293 NA
ATOM      2  C   UNL     1       6.688  -0.294  -3.133  0.00  0.00    +0.085 C 
ATOM      3  C   UNL     1       8.166  -0.375  -2.742  0.00  0.00    +0.015 C 
ATOM      4  C   UNL     1       8.944  -1.088  -3.851  0.00  0.00    +0.003 C 
ATOM      5  C   UNL     1       8.342  -2.478  -4.074  0.00  0.00    +0.017 C 
ATOM      6  C   UNL     1       6.860  -2.336  -4.426  0.00  0.00    +0.043 C 
ENDROOT
BRANCH   6   7
ATOM      7  C   UNL     1       6.249  -3.724  -4.630  0.00  0.00    -0.054 C 
ATOM      8  C   UNL     1       6.313  -4.524  -3.312  0.00  0.00    -0.016 C 
ATOM      9  C   UNL     1       6.647  -5.962  -3.792  0.00  0.00    -0.021 C 
ATOM     10  C   UNL     1       7.588  -5.681  -4.990  0.00  0.00    -0.082 C 
ATOM     11  N   UNL     1       7.026  -4.471  -5.637  0.00  0.00    +0.382 N 
ATOM     12  H   UNL     1       6.423  -4.740  -6.400  0.00  0.00    -0.085 HD
ATOM     13  H   UNL     1       7.776  -3.892  -5.985  0.00  0.00    -0.085 HD
ENDBRANCH   6   7
BRANCH   1  14
ATOM     14  C   UNL     1       4.710  -1.618  -3.575  0.00  0.00    +0.181 C 
BRANCH  14  19
ATOM     15  N   UNL     1       0.688  -0.476  -1.203  0.00  0.00    -0.297 N 
ATOM     16  C   UNL     1       2.031  -0.587  -1.215  0.00  0.00    +0.306 C 
ATOM     17  O   UNL     1       2.673  -0.295  -0.226  0.00  0.00    -0.252 OA
ATOM     18  N   UNL     1       2.662  -1.022  -2.324  0.00  0.00    -0.239 N 
ATOM     19  C   UNL     1       4.005  -1.132  -2.335  0.00  0.00    +0.234 C 
ATOM     20  O   UNL     1       4.646  -0.841  -1.348  0.00  0.00    -0.274 OA
ATOM     21  H   UNL     1       0.175  -0.710  -1.993  0.00  0.00    +0.151 HD
ATOM     22  H   UNL     1       2.149  -1.255  -3.114  0.00  0.00    +0.159 HD
BRANCH  15  24
ATOM     23  C   UNL     1      -0.019   1.526   0.010  0.00  0.00    +0.027 C 
ATOM     24  C   UNL     1       0.002  -0.004   0.002  0.00  0.00    +0.068 C 
ATOM     25  C   UNL     1      -1.433  -0.534   0.013  0.00  0.00    +0.027 C 
ENDBRANCH  15  24
ENDBRANCH  14  19
ENDBRANCH   1  14
TORSDOF 4
