REMARK  Name = ZINC57420419
REMARK  3 active torsions:
REMARK  status: ('A' for Active; 'I' for Inactive)
REMARK    1  A    between atoms: C_3  and  O_19
REMARK    2  A    between atoms: C_6  and  C_7
REMARK    3  A    between atoms: N_8  and  N_9
REMARK                            x       y       z     vdW  Elec       q    Type
REMARK                         _______ _______ _______ _____ _____    ______ ____
ROOT
ATOM      1  N   UNL     1      -2.446  -2.778   0.011  0.00  0.00    -0.220 N 
ATOM      2  C   UNL     1      -2.424  -4.168   0.004  0.00  0.00    +0.158 A 
ATOM      3  C   UNL     1      -3.623  -4.876   0.006  0.00  0.00    +0.084 A 
ATOM      4  C   UNL     1      -3.588  -6.260  -0.002  0.00  0.00    +0.046 A 
ATOM      5  C   UNL     1      -2.351  -6.892  -0.011  0.00  0.00    +0.079 A 
ATOM      6  C   UNL     1      -1.199  -6.125  -0.013  0.00  0.00    +0.150 A 
ATOM      7  N   UNL     1      -1.264  -4.806  -0.011  0.00  0.00    -0.216 NA
ATOM      8 CL   UNL     1       0.351  -6.907  -0.025  0.00  0.00    -0.060 Cl
ATOM      9 CL   UNL     1      -2.251  -8.625  -0.021  0.00  0.00    -0.080 Cl
ATOM     10 CL   UNL     1      -5.142  -4.035   0.019  0.00  0.00    -0.080 Cl
ATOM     11  H   UNL     1      -3.293  -2.306   0.022  0.00  0.00    +0.176 HD
ENDROOT
BRANCH   1  13
ATOM     12  C   UNL     1      -1.263  -0.761   0.011  0.00  0.00    +0.138 C 
ATOM     13  N   UNL     1      -1.243  -2.059   0.003  0.00  0.00    -0.189 NA
BRANCH  12  19
ATOM     14  C   UNL     1      -0.017   1.393   0.010  0.00  0.00    +0.013 A 
ATOM     15  C   UNL     1       1.169   2.096   0.002  0.00  0.00    +0.046 A 
ATOM     16  C   UNL     1       2.380   1.418  -0.013  0.00  0.00    +0.117 A 
ATOM     17  C   UNL     1       2.404   0.030  -0.021  0.00  0.00    +0.046 A 
ATOM     18  C   UNL     1       1.224  -0.682  -0.013  0.00  0.00    +0.013 A 
ATOM     19  C   UNL     1       0.002  -0.004   0.002  0.00  0.00    -0.005 A 
BRANCH  16  20
ATOM     20  O   UNL     1       3.546   2.116  -0.022  0.00  0.00    -0.507 OA
ATOM     21  H   UNL     1       3.893   2.313   0.859  0.00  0.00    +0.292 HD
ENDBRANCH  16  20
ENDBRANCH  12  19
ENDBRANCH   1  13
TORSDOF 3
