REMARK  Name = ZINC16827741
REMARK  8 active torsions:
REMARK  status: ('A' for Active; 'I' for Inactive)
REMARK    1  A    between atoms: C_1  and  C_2
REMARK    2  A    between atoms: C_2  and  C_4
REMARK    3  A    between atoms: C_2  and  S_14
REMARK    4  A    between atoms: N_9  and  C_10
REMARK    5  A    between atoms: C_10  and  C_11
REMARK    6  A    between atoms: C_10  and  C_12
REMARK    7  A    between atoms: C_10  and  C_13
REMARK    8  A    between atoms: S_14  and  C_15
REMARK                            x       y       z     vdW  Elec       q    Type
REMARK                         _______ _______ _______ _____ _____    ______ ____
ROOT
ATOM      1  C   UNL     1      -0.019   1.526   0.010  0.00  0.00    +0.029 C 
ATOM      2  C   UNL     1       0.002  -0.004   0.002  0.00  0.00    +0.137 C 
ENDROOT
BRANCH   2   3
ATOM      3  C   UNL     1      -1.412  -0.526   0.013  0.00  0.00    +0.233 C 
ATOM      4  O   UNL     1      -1.927  -0.901  -1.018  0.00  0.00    -0.274 OA
ATOM      5  N   UNL     1      -2.103  -0.575   1.169  0.00  0.00    -0.239 N 
ATOM      6  C   UNL     1      -3.368  -1.042   1.178  0.00  0.00    +0.306 C 
ATOM      7  O   UNL     1      -3.884  -1.418   0.144  0.00  0.00    -0.252 OA
ATOM      8  N   UNL     1      -4.059  -1.091   2.334  0.00  0.00    -0.294 N 
ATOM      9  H   UNL     1      -1.691  -0.275   1.994  0.00  0.00    +0.159 HD
ATOM     10  H   UNL     1      -3.647  -0.790   3.159  0.00  0.00    +0.151 HD
BRANCH   8  11
ATOM     11  C   UNL     1      -5.433  -1.598   2.344  0.00  0.00    +0.028 C 
ATOM     12  C   UNL     1      -5.447  -3.043   1.843  0.00  0.00    +0.031 C 
ATOM     13  C   UNL     1      -5.985  -1.547   3.771  0.00  0.00    +0.031 C 
ATOM     14  C   UNL     1      -6.303  -0.733   1.430  0.00  0.00    +0.031 C 
ENDBRANCH   8  11
ENDBRANCH   2   3
BRANCH   2  15
ATOM     15  S   UNL     1       0.851  -0.589  -1.490  0.00  0.00    -0.075 S 
BRANCH  15  16
ATOM     16  C   UNL     1       2.509  -0.029  -1.285  0.00  0.00    +0.168 A 
ATOM     17  N   UNL     1       3.524  -0.234  -2.177  0.00  0.00    -0.333 N 
ATOM     18  H   UNL     1       3.460  -0.707  -3.022  0.00  0.00    +0.168 HD
ATOM     19  C   UNL     1       4.660   0.358  -1.650  0.00  0.00    +0.068 A 
ATOM     20  C   UNL     1       5.970   0.479  -2.086  0.00  0.00    +0.047 A 
ATOM     21  C   UNL     1       6.894   1.150  -1.309  0.00  0.00    +0.043 A 
ATOM     22  C   UNL     1       6.518   1.704  -0.093  0.00  0.00    +0.022 A 
ATOM     23  C   UNL     1       5.221   1.593   0.354  0.00  0.00    +0.031 A 
ATOM     24  C   UNL     1       4.275   0.918  -0.421  0.00  0.00    +0.090 A 
ATOM     25  N   UNL     1       2.952   0.653  -0.257  0.00  0.00    -0.222 NA
ATOM     26 CL   UNL     1       8.535   1.300  -1.855  0.00  0.00    -0.083 Cl
ENDBRANCH  15  16
ENDBRANCH   2  15
TORSDOF 4
