REMARK  Name = ZINC40629960
REMARK  7 active torsions:
REMARK  status: ('A' for Active; 'I' for Inactive)
REMARK    1  A    between atoms: C_1  and  C_2
REMARK    2  A    between atoms: C_2  and  C_27
REMARK    3  A    between atoms: C_4  and  N_10
REMARK    4  A    between atoms: C_6  and  C_8
REMARK    5  A    between atoms: C_6  and  C_9
REMARK    6  A    between atoms: C_12  and  N_24
REMARK    7  A    between atoms: C_13  and  N_17
REMARK                            x       y       z     vdW  Elec       q    Type
REMARK                         _______ _______ _______ _____ _____    ______ ____
ROOT
ATOM      1  N   UNL     1       2.606  -0.807  -2.635  0.00  0.00    -0.324 N 
ATOM      2  C   UNL     1       3.796  -0.312  -3.144  0.00  0.00    +0.155 A 
ATOM      3  C   UNL     1       4.305  -0.794  -4.347  0.00  0.00    +0.205 A 
ATOM      4  C   UNL     1       5.503  -0.264  -4.816  0.00  0.00    +0.160 A 
ATOM      5  N   UNL     1       6.115   0.679  -4.102  0.00  0.00    -0.218 NA
ATOM      6  C   UNL     1       5.602   1.109  -2.968  0.00  0.00    +0.225 A 
ATOM      7  N   UNL     1       4.467   0.636  -2.493  0.00  0.00    -0.218 NA
ATOM      8  H   UNL     1       2.123  -1.498  -3.116  0.00  0.00    +0.148 HD
ENDROOT
BRANCH   1  12
ATOM      9  C   UNL     1      -0.031   1.549  -0.009  0.00  0.00    -0.010 C 
ATOM     10  C   UNL     1      -0.013   0.017  -0.016  0.00  0.00    -0.072 C 
ATOM     11  C   UNL     1       0.561  -0.487  -1.336  0.00  0.00    +0.009 C 
ATOM     12  C   UNL     1       2.076  -0.287  -1.369  0.00  0.00    +0.069 C 
ATOM     13  C   UNL     1       2.686  -1.071  -0.207  0.00  0.00    +0.009 C 
ATOM     14  C   UNL     1       2.128  -0.573   1.122  0.00  0.00    -0.072 C 
ATOM     15  N   UNL     1       0.677  -0.508   1.149  0.00  0.00    +0.386 N 
ATOM     16  C   UNL     1       2.752   0.783   1.470  0.00  0.00    -0.010 C 
ATOM     17  C   UNL     1       2.575  -1.572   2.214  0.00  0.00    -0.010 C 
ATOM     18  C   UNL     1      -1.484  -0.454   0.057  0.00  0.00    -0.010 C 
ATOM     19  H   UNL     1       0.395   0.043   1.965  0.00  0.00    -0.084 HD
ATOM     20  H   UNL     1       0.319  -1.450   1.336  0.00  0.00    -0.084 HD
ENDBRANCH   1  12
BRANCH   4  21
ATOM     21  N   UNL     1       6.051  -0.711  -6.010  0.00  0.00    -0.282 N 
ATOM     22  C   UNL     1       7.191  -0.100  -6.524  0.00  0.00    +0.124 A 
ATOM     23  C   UNL     1       7.673  -0.480  -7.772  0.00  0.00    +0.044 A 
ATOM     24  C   UNL     1       8.806   0.136  -8.271  0.00  0.00    +0.005 A 
ATOM     25  C   UNL     1       9.422   1.115  -7.503  0.00  0.00    +0.020 A 
ATOM     26  C   UNL     1       8.889   1.443  -6.272  0.00  0.00    +0.113 A 
ATOM     27  N   UNL     1       7.803   0.842  -5.823  0.00  0.00    -0.240 NA
ATOM     28  H   UNL     1       5.641  -1.450  -6.485  0.00  0.00    +0.155 HD
ENDBRANCH   4  21
BRANCH   3  29
ATOM     29  N   UNL     1       3.590  -1.843  -5.108  0.00  0.00    +0.063 N 
ATOM     30  O   UNL     1       2.768  -1.534  -5.938  0.00  0.00    -0.126 OA
ATOM     31  O   UNL     1       3.828  -3.010  -4.898  0.00  0.00    -0.126 OA
ENDBRANCH   3  29
TORSDOF 3
