REMARK  Name = ZINC35240696
REMARK  11 active torsions:
REMARK  status: ('A' for Active; 'I' for Inactive)
REMARK    1  A    between atoms: C_4  and  C_7
REMARK    2  A    between atoms: C_7  and  O_8
REMARK    3  A    between atoms: O_8  and  C_9
REMARK    4  A    between atoms: C_11  and  N_24
REMARK    5  A    between atoms: C_13  and  O_23
REMARK    6  A    between atoms: C_15  and  O_22
REMARK    7  A    between atoms: C_17  and  C_20
REMARK    8  A    between atoms: C_20  and  O_21
REMARK    9  A    between atoms: N_24  and  C_25
REMARK   10  A    between atoms: C_28  and  N_34
REMARK   11  A    between atoms: C_30  and  N_31
REMARK                            x       y       z     vdW  Elec       q    Type
REMARK                         _______ _______ _______ _____ _____    ______ ____
ROOT
ATOM      1  C   UNL     1       5.953  -0.875   1.027  0.00  0.00    +0.274 C 
ATOM      2  C   UNL     1       6.157  -1.158   2.518  0.00  0.00    +0.158 C 
ATOM      3  C   UNL     1       4.936  -1.909   3.058  0.00  0.00    +0.170 C 
ATOM      4  C   UNL     1       4.738  -3.192   2.245  0.00  0.00    +0.176 C 
ATOM      5  C   UNL     1       4.589  -2.830   0.764  0.00  0.00    +0.178 C 
ATOM      6  O   UNL     1       5.744  -2.107   0.334  0.00  0.00    -0.341 OA
ENDROOT
BRANCH   4   7
ATOM      7  O   UNL     1       5.870  -4.046   2.417  0.00  0.00    -0.387 OA
ATOM      8  H   UNL     1       5.812  -4.879   1.929  0.00  0.00    +0.210 HD
ENDBRANCH   4   7
BRANCH   3   9
ATOM      9  O   UNL     1       5.149  -2.240   4.432  0.00  0.00    -0.387 OA
ATOM     10  H   UNL     1       4.413  -2.718   4.839  0.00  0.00    +0.210 HD
ENDBRANCH   3   9
BRANCH   2  11
ATOM     11  N   UNL     1       7.358  -1.977   2.701  0.00  0.00    -0.332 N 
ATOM     12  H   UNL     1       7.633  -2.596   2.007  0.00  0.00    +0.147 HD
BRANCH  11  13
ATOM     13  C   UNL     1       8.107  -1.866   3.875  0.00  0.00    +0.058 A 
ATOM     14  C   UNL     1       7.699  -1.000   4.882  0.00  0.00    +0.027 A 
ATOM     15  C   UNL     1       8.441  -0.894   6.041  0.00  0.00    +0.034 A 
ATOM     16  C   UNL     1       9.589  -1.648   6.201  0.00  0.00    +0.128 A 
ATOM     17  C   UNL     1       9.998  -2.510   5.200  0.00  0.00    +0.067 A 
ATOM     18  C   UNL     1       9.258  -2.626   4.040  0.00  0.00    +0.149 A 
BRANCH  18  19
ATOM     19  N   UNL     1       9.693  -3.554   2.973  0.00  0.00    +0.058 N 
ATOM     20  O   UNL     1       8.873  -4.188   2.351  0.00  0.00    -0.126 OA
ATOM     21  O   UNL     1      10.869  -3.677   2.722  0.00  0.00    -0.126 OA
ENDBRANCH  18  19
BRANCH  16  22
ATOM     22  N   UNL     1      10.383  -1.530   7.445  0.00  0.00    +0.056 N 
ATOM     23  O   UNL     1      10.027  -0.776   8.320  0.00  0.00    -0.126 OA
ATOM     24  O   UNL     1      11.387  -2.189   7.586  0.00  0.00    -0.126 OA
ENDBRANCH  16  22
ENDBRANCH  11  13
ENDBRANCH   2  11
BRANCH   1  25
ATOM     25  O   UNL     1       4.813  -0.031   0.854  0.00  0.00    -0.345 OA
BRANCH  25  26
ATOM     26  C   UNL     1       4.600   0.388  -0.496  0.00  0.00    +0.198 C 
BRANCH  26  30
ATOM     27  C   UNL     1       1.138   2.884  -0.684  0.00  0.00    +0.000 A 
ATOM     28  C   UNL     1       2.383   3.443  -0.462  0.00  0.00    +0.000 A 
ATOM     29  C   UNL     1       3.503   2.635  -0.401  0.00  0.00    +0.006 A 
ATOM     30  C   UNL     1       3.378   1.268  -0.561  0.00  0.00    -0.022 A 
ATOM     31  C   UNL     1       2.134   0.708  -0.782  0.00  0.00    +0.006 A 
ATOM     32  C   UNL     1       1.014   1.516  -0.844  0.00  0.00    +0.000 A 
ENDBRANCH  26  30
ENDBRANCH  25  26
ENDBRANCH   1  25
BRANCH   5  33
ATOM     33  C   UNL     1       4.450  -4.110  -0.062  0.00  0.00    +0.190 C 
BRANCH  33  34
ATOM     34  O   UNL     1       4.195  -3.770  -1.427  0.00  0.00    -0.392 OA
ATOM     35  H   UNL     1       4.096  -4.535  -2.010  0.00  0.00    +0.210 HD
ENDBRANCH  33  34
ENDBRANCH   5  33
TORSDOF 11
