REMARK  Name = ZINC66940827
REMARK  11 active torsions:
REMARK  status: ('A' for Active; 'I' for Inactive)
REMARK    1  A    between atoms: C_1  and  C_2
REMARK    2  A    between atoms: C_5  and  N_11
REMARK    3  A    between atoms: C_7  and  C_8
REMARK    4  A    between atoms: N_11  and  C_12
REMARK    5  A    between atoms: C_12  and  C_14
REMARK    6  A    between atoms: C_12  and  C_15
REMARK    7  A    between atoms: N_17  and  C_18
REMARK    8  A    between atoms: C_18  and  C_20
REMARK    9  A    between atoms: C_18  and  C_21
REMARK   10  A    between atoms: C_26  and  O_27
REMARK   11  A    between atoms: O_27  and  C_28
REMARK                            x       y       z     vdW  Elec       q    Type
REMARK                         _______ _______ _______ _____ _____    ______ ____
ROOT
ATOM      1  C   UNL     1       0.409  -4.847  -1.375  0.00  0.00    +0.154 C 
ATOM      2  C   UNL     1       1.727  -4.728  -2.143  0.00  0.00    +0.038 C 
ENDROOT
BRANCH   1   3
ATOM      3  C   UNL     1       0.112  -6.301  -1.110  0.00  0.00    +0.233 C 
ATOM      4  O   UNL     1       0.003  -6.699   0.030  0.00  0.00    -0.274 OA
ATOM      5  N   UNL     1      -0.032  -7.158  -2.140  0.00  0.00    -0.307 N 
ATOM      6  H   UNL     1       0.056  -6.839  -3.052  0.00  0.00    +0.149 HD
BRANCH   5   7
ATOM      7  C   UNL     1      -0.320  -8.571  -1.882  0.00  0.00    +0.104 C 
ATOM      8  C   UNL     1       0.989  -9.321  -1.632  0.00  0.00    +0.033 C 
BRANCH   7   9
ATOM      9  C   UNL     1      -1.020  -9.167  -3.076  0.00  0.00    +0.014 A 
ATOM     10  C   UNL     1      -0.842  -8.614  -4.330  0.00  0.00    +0.009 A 
ATOM     11  C   UNL     1      -1.484  -9.159  -5.425  0.00  0.00    +0.001 A 
ATOM     12  C   UNL     1      -2.307 -10.260  -5.270  0.00  0.00    +0.004 A 
ATOM     13  C   UNL     1      -2.488 -10.817  -4.019  0.00  0.00    +0.046 A 
ATOM     14  C   UNL     1      -1.840 -10.274  -2.919  0.00  0.00    +0.125 A 
BRANCH  14  15
ATOM     15  O   UNL     1      -2.013 -10.824  -1.688  0.00  0.00    -0.495 OA
ATOM     16  C   UNL     1      -2.871 -11.963  -1.601  0.00  0.00    +0.277 C 
ENDBRANCH  14  15
ENDBRANCH   7   9
ENDBRANCH   5   7
ENDBRANCH   1   3
BRANCH   1  17
ATOM     17  N   UNL     1       0.519  -4.131  -0.102  0.00  0.00    -0.333 N 
ATOM     18  H   UNL     1       0.764  -4.611   0.705  0.00  0.00    +0.147 HD
BRANCH  17  23
ATOM     19  C   UNL     1      -0.501   1.454   0.081  0.00  0.00    +0.044 C 
ATOM     20  C   UNL     1      -0.230  -0.027   0.036  0.00  0.00    -0.038 A 
ATOM     21  C   UNL     1      -0.330  -0.711  -1.159  0.00  0.00    +0.006 A 
ATOM     22  C   UNL     1      -0.082  -2.070  -1.206  0.00  0.00    +0.023 A 
ATOM     23  C   UNL     1       0.270  -2.757  -0.050  0.00  0.00    +0.028 A 
ATOM     24  C   UNL     1       0.373  -2.079   1.155  0.00  0.00    +0.036 A 
ATOM     25  C   UNL     1       0.128  -0.707   1.201  0.00  0.00    +0.041 A 
BRANCH  25  26
ATOM     26  C   UNL     1       0.243   0.025   2.481  0.00  0.00    +0.242 C 
ATOM     27  O   UNL     1       0.140   1.236   2.500  0.00  0.00    -0.270 OA
ATOM     28  N   UNL     1       0.461  -0.651   3.627  0.00  0.00    -0.325 N 
ATOM     29  H   UNL     1       0.542  -1.618   3.611  0.00  0.00    +0.145 HD
ATOM     30  H   UNL     1       0.536  -0.172   4.466  0.00  0.00    +0.145 HD
ENDBRANCH  25  26
ENDBRANCH  17  23
ENDBRANCH   1  17
TORSDOF 7
