REMARK  Name = ZINC06005841
REMARK  9 active torsions:
REMARK  status: ('A' for Active; 'I' for Inactive)
REMARK    1  A    between atoms: C_1  and  C_2
REMARK    2  A    between atoms: C_5  and  S_8
REMARK    3  A    between atoms: S_8  and  N_11
REMARK    4  A    between atoms: N_11  and  N_12
REMARK    5  A    between atoms: C_16  and  C_22
REMARK    6  A    between atoms: C_19  and  C_21
REMARK    7  A    between atoms: C_22  and  C_23
REMARK    8  A    between atoms: C_22  and  C_24
REMARK    9  A    between atoms: C_22  and  C_25
REMARK                            x       y       z     vdW  Elec       q    Type
REMARK                         _______ _______ _______ _____ _____    ______ ____
ROOT
ATOM      1  N   UNL     1      -1.971   2.463   1.609  0.00  0.00    -0.137 N 
ATOM      2  H   UNL     1      -2.794   2.081   1.954  0.00  0.00    +0.197 HD
ENDROOT
BRANCH   1   3
ATOM      3  N   UNL     1      -1.132   3.199   2.455  0.00  0.00    -0.175 NA
ATOM      4  C   UNL     1      -1.500   3.459   3.654  0.00  0.00    +0.041 C 
ATOM      5  C   UNL     1      -2.791   2.898   4.207  0.00  0.00    +0.053 C 
ATOM      6  C   UNL     1      -3.607   4.043   4.807  0.00  0.00    +0.010 C 
ATOM      7  C   UNL     1      -2.755   4.795   5.831  0.00  0.00    -0.005 C 
ATOM      8  C   UNL     1      -1.554   5.437   5.135  0.00  0.00    +0.013 C 
ATOM      9  C   UNL     1      -0.658   4.340   4.550  0.00  0.00    +0.032 C 
ATOM     10  C   UNL     1       0.467   4.978   3.733  0.00  0.00    +0.014 C 
BRANCH   7  11
ATOM     11  C   UNL     1      -3.601   5.883   6.495  0.00  0.00    -0.035 C 
ATOM     12  C   UNL     1      -4.093   6.866   5.431  0.00  0.00    +0.011 C 
ATOM     13  C   UNL     1      -4.802   5.242   7.192  0.00  0.00    +0.011 C 
ATOM     14  C   UNL     1      -2.752   6.630   7.526  0.00  0.00    +0.011 C 
ENDBRANCH   7  11
ENDBRANCH   1   3
BRANCH   1  15
ATOM     15  S   UNL     1      -1.559   2.245   0.020  0.00  0.00    +0.086 S 
ATOM     16  O   UNL     1      -1.327   3.538  -0.521  0.00  0.00    -0.149 OA
ATOM     17  O   UNL     1      -2.518   1.351  -0.529  0.00  0.00    -0.149 OA
BRANCH  15  22
ATOM     18  C   UNL     1       3.739  -0.639  -0.088  0.00  0.00    +0.044 C 
ATOM     19  C   UNL     1       2.416   0.081  -0.059  0.00  0.00    -0.050 A 
ATOM     20  C   UNL     1       1.236  -0.640  -0.047  0.00  0.00    +0.005 A 
ATOM     21  C   UNL     1       0.023   0.021  -0.020  0.00  0.00    +0.029 A 
ATOM     22  C   UNL     1      -0.012   1.402  -0.006  0.00  0.00    +0.110 A 
ATOM     23  C   UNL     1       1.167   2.123  -0.018  0.00  0.00    +0.029 A 
ATOM     24  C   UNL     1       2.381   1.463  -0.045  0.00  0.00    +0.005 A 
ENDBRANCH  15  22
ENDBRANCH   1  15
TORSDOF 4
