REMARK  Name = ZINC06550464
REMARK  10 active torsions:
REMARK  status: ('A' for Active; 'I' for Inactive)
REMARK    1  A    between atoms: C_1  and  C_2
REMARK    2  A    between atoms: C_2  and  C_3
REMARK    3  A    between atoms: C_2  and  C_4
REMARK    4  A    between atoms: C_4  and  C_6
REMARK    5  A    between atoms: C_4  and  O_12
REMARK    6  A    between atoms: O_12  and  C_13
REMARK    7  A    between atoms: C_13  and  C_15
REMARK    8  A    between atoms: C_16  and  C_17
REMARK    9  A    between atoms: C_20  and  O_23
REMARK   10  A    between atoms: O_23  and  C_24
REMARK                            x       y       z     vdW  Elec       q    Type
REMARK                         _______ _______ _______ _____ _____    ______ ____
ROOT
ATOM      1  O   UNL     1       6.131   1.903  -0.342  0.00  0.00    -0.449 OA
ENDROOT
BRANCH   1   2
ATOM      2  C   UNL     1       4.886   1.424  -0.542  0.00  0.00    +0.333 C 
ATOM      3  O   UNL     1       4.711   0.230  -0.702  0.00  0.00    -0.246 OA
BRANCH   2   4
ATOM      4  C   UNL     1       3.780   2.311  -0.567  0.00  0.00    +0.092 C 
ATOM      5  C   UNL     1       2.533   1.831  -0.768  0.00  0.00    +0.015 C 
BRANCH   5   6
ATOM      6  C   UNL     1       1.387   2.751  -0.794  0.00  0.00    -0.025 A 
ATOM      7  C   UNL     1       0.094   2.257  -1.002  0.00  0.00    +0.011 A 
ATOM      8  C   UNL     1      -0.975   3.123  -1.031  0.00  0.00    +0.046 A 
ATOM      9  C   UNL     1      -0.773   4.486  -0.843  0.00  0.00    +0.127 A 
ATOM     10  C   UNL     1       0.509   4.982  -0.637  0.00  0.00    +0.046 A 
ATOM     11  C   UNL     1       1.585   4.125  -0.612  0.00  0.00    +0.011 A 
BRANCH   9  12
ATOM     12  O   UNL     1      -1.832   5.336  -0.867  0.00  0.00    -0.434 OA
BRANCH  12  13
ATOM     13  C   UNL     1      -3.121   4.760  -1.084  0.00  0.00    +0.541 C 
ATOM     14  F   UNL     1      -3.138   4.104  -2.319  0.00  0.00    -0.166 F 
ATOM     15  F   UNL     1      -3.399   3.842  -0.065  0.00  0.00    -0.166 F 
ENDBRANCH  12  13
ENDBRANCH   9  12
ENDBRANCH   5   6
ENDBRANCH   2   4
ENDBRANCH   1   2
BRANCH   1  16
ATOM     16  C   UNL     1       7.198   0.952  -0.329  0.00  0.00    +0.265 C 
BRANCH  16  17
ATOM     17  C   UNL     1       8.461   1.607  -0.826  0.00  0.00    +0.261 C 
ATOM     18  O   UNL     1       8.464   2.788  -1.098  0.00  0.00    -0.271 OA
ATOM     19  N   UNL     1       9.586   0.879  -0.968  0.00  0.00    -0.237 N 
ATOM     20  C   UNL     1      10.688   1.440  -1.503  0.00  0.00    +0.303 C 
ATOM     21  O   UNL     1      10.667   2.603  -1.858  0.00  0.00    -0.253 OA
ATOM     22  N   UNL     1      11.814   0.713  -1.645  0.00  0.00    -0.313 N 
ATOM     23  H   UNL     1       9.603  -0.049  -0.685  0.00  0.00    +0.159 HD
ATOM     24  H   UNL     1      11.831  -0.215  -1.362  0.00  0.00    +0.146 HD
ATOM     25  H   UNL     1      12.607   1.117  -2.031  0.00  0.00    +0.146 HD
ENDBRANCH  16  17
BRANCH  16  27
ATOM     26  C   UNL     1       7.625   1.638   2.035  0.00  0.00    +0.011 C 
ATOM     27  C   UNL     1       7.413   0.447   1.099  0.00  0.00    +0.033 C 
ATOM     28  C   UNL     1       6.184  -0.344   1.551  0.00  0.00    +0.011 C 
ENDBRANCH  16  27
ENDBRANCH   1  16
TORSDOF 8
