REMARK  Name = ZINC40217096
REMARK  5 active torsions:
REMARK  status: ('A' for Active; 'I' for Inactive)
REMARK    1  A    between atoms: C_1  and  C_2
REMARK    2  A    between atoms: C_6  and  C_9
REMARK    3  A    between atoms: C_7  and  O_8
REMARK    4  A    between atoms: N_11  and  C_12
REMARK    5  A    between atoms: C_12  and  C_17
REMARK                            x       y       z     vdW  Elec       q    Type
REMARK                         _______ _______ _______ _____ _____    ______ ____
ROOT
ATOM      1  C   UNL     1       0.054  -2.859   2.453  0.00  0.00    +0.249 C 
ATOM      2  O   UNL     1       0.051  -2.265   3.514  0.00  0.00    -0.270 OA
ATOM      3  N   UNL     1       0.072  -4.207   2.435  0.00  0.00    -0.293 N 
ATOM      4  H   UNL     1       0.075  -4.680   1.589  0.00  0.00    +0.151 HD
ENDROOT
BRANCH   1  10
ATOM      5  C   UNL     1      -0.018   1.503   0.010  0.00  0.00    +0.047 C 
ATOM      6  C   UNL     1       0.002  -0.004   0.002  0.00  0.00    -0.008 A 
ATOM      7  C   UNL     1       0.006  -0.687  -1.198  0.00  0.00    +0.007 A 
ATOM      8  C   UNL     1       0.025  -2.072  -1.216  0.00  0.00    +0.001 A 
ATOM      9  C   UNL     1       0.041  -2.783  -0.035  0.00  0.00    +0.017 A 
ATOM     10  C   UNL     1       0.037  -2.104   1.185  0.00  0.00    +0.078 A 
ATOM     11  C   UNL     1       0.023  -0.703   1.200  0.00  0.00    +0.132 A 
BRANCH  11  12
ATOM     12  O   UNL     1       0.025  -0.033   2.379  0.00  0.00    -0.506 OA
ATOM     13  H   UNL     1      -0.858   0.149   2.729  0.00  0.00    +0.292 HD
ENDBRANCH  11  12
ENDBRANCH   1  10
BRANCH   3  14
ATOM     14  C   UNL     1       0.089  -4.956   3.694  0.00  0.00    +0.121 C 
ATOM     15  C   UNL     1       1.378  -4.639   4.480  0.00  0.00    +0.041 C 
ATOM     16  C   UNL     1       1.766  -5.990   5.133  0.00  0.00    +0.003 C 
ATOM     17  C   UNL     1       1.409  -7.017   4.030  0.00  0.00    +0.003 C 
ATOM     18  C   UNL     1       0.109  -6.468   3.408  0.00  0.00    +0.041 C 
BRANCH  14  19
ATOM     19  C   UNL     1      -1.093  -4.611   4.501  0.00  0.00    +0.088 C 
ATOM     20  N   UNL     1      -2.005  -4.345   5.124  0.00  0.00    -0.194 NA
ENDBRANCH  14  19
ENDBRANCH   3  14
TORSDOF 4
