REMARK  Name = ZINC02416633
REMARK  6 active torsions:
REMARK  status: ('A' for Active; 'I' for Inactive)
REMARK    1  A    between atoms: C_9  and  C_23
REMARK    2  A    between atoms: C_10  and  N_22
REMARK    3  A    between atoms: N_11  and  C_14
REMARK    4  A    between atoms: C_23  and  O_25
REMARK    5  A    between atoms: O_25  and  C_26
REMARK    6  A    between atoms: C_26  and  C_27
REMARK                            x       y       z     vdW  Elec       q    Type
REMARK                         _______ _______ _______ _____ _____    ______ ____
ROOT
ATOM      1  C   UNL     1       1.193  -0.663  -0.013  0.00  0.00    +0.002 A 
ATOM      2  C   UNL     1       2.398   0.037  -0.020  0.00  0.00    +0.002 A 
ATOM      3  C   UNL     1       2.419   1.397  -0.013  0.00  0.00    +0.030 A 
ATOM      4  C   UNL     1       1.210   2.114   0.002  0.00  0.00    +0.092 A 
ATOM      5  C   UNL     1      -0.017   1.402   0.010  0.00  0.00    +0.090 A 
ATOM      6  C   UNL     1       0.002  -0.004   0.002  0.00  0.00    +0.030 A 
ATOM      7  N   UNL     1      -1.175   2.072   0.030  0.00  0.00    -0.241 NA
ATOM      8  C   UNL     1      -1.163   3.392   0.032  0.00  0.00    +0.125 A 
ATOM      9  C   UNL     1      -2.228   4.411   0.048  0.00  0.00    +0.126 A 
ATOM     10  C   UNL     1      -1.586   5.647   0.049  0.00  0.00    +0.119 A 
ATOM     11  N   UNL     1      -0.237   5.457   0.035  0.00  0.00    -0.280 N 
ATOM     12  C   UNL     1       0.064   4.107   0.025  0.00  0.00    +0.167 A 
ATOM     13  N   UNL     1       1.207   3.452   0.010  0.00  0.00    -0.225 NA
ENDROOT
BRANCH  11  14
ATOM     14  C   UNL     1       0.715   6.487   0.031  0.00  0.00    +0.051 A 
ATOM     15  C   UNL     1       1.567   6.651   1.115  0.00  0.00    +0.029 A 
ATOM     16  C   UNL     1       2.507   7.662   1.108  0.00  0.00    +0.042 A 
ATOM     17  C   UNL     1       2.593   8.521   0.025  0.00  0.00    +0.142 A 
ATOM     18  C   UNL     1       1.740   8.363  -1.056  0.00  0.00    +0.078 A 
ATOM     19  C   UNL     1       0.802   7.348  -1.054  0.00  0.00    +0.049 A 
ATOM     20 CL   UNL     1       1.851   9.440  -2.413  0.00  0.00    -0.081 Cl
ATOM     21  F   UNL     1       3.510   9.514   0.022  0.00  0.00    -0.204 F 
ENDBRANCH  11  14
BRANCH  10  22
ATOM     22  N   UNL     1      -2.214   6.864   0.063  0.00  0.00    -0.343 N 
ATOM     23  H   UNL     1      -1.690   7.681   0.063  0.00  0.00    +0.144 HD
ATOM     24  H   UNL     1      -3.183   6.910   0.072  0.00  0.00    +0.144 HD
ENDBRANCH  10  22
BRANCH   9  25
ATOM     25  C   UNL     1      -3.625   4.180   0.061  0.00  0.00    +0.345 C 
ATOM     26  O   UNL     1      -4.236   4.087  -0.988  0.00  0.00    -0.245 OA
BRANCH  25  27
ATOM     27  O   UNL     1      -4.279   4.062   1.235  0.00  0.00    -0.458 OA
BRANCH  27  28
ATOM     28  C   UNL     1      -5.688   3.830   1.173  0.00  0.00    +0.264 C 
BRANCH  28  29
ATOM     29  C   UNL     1      -6.250   3.725   2.592  0.00  0.00    +0.156 C 
ATOM     30  C   UNL     1      -7.749   3.360   2.535  0.00  0.00    +0.037 C 
ATOM     31  C   UNL     1      -8.344   4.228   3.678  0.00  0.00    +0.031 C 
ATOM     32  C   UNL     1      -7.444   5.486   3.590  0.00  0.00    +0.160 C 
ATOM     33  O   UNL     1      -6.138   4.991   3.253  0.00  0.00    -0.373 OA
ENDBRANCH  28  29
ENDBRANCH  27  28
ENDBRANCH  25  27
ENDBRANCH   9  25
TORSDOF 6
