REMARK  Name = ZINC54818563
REMARK  8 active torsions:
REMARK  status: ('A' for Active; 'I' for Inactive)
REMARK    1  A    between atoms: C_1  and  N_2
REMARK    2  A    between atoms: N_2  and  C_3
REMARK    3  A    between atoms: N_2  and  C_4
REMARK    4  A    between atoms: C_4  and  C_9
REMARK    5  A    between atoms: C_9  and  N_10
REMARK    6  A    between atoms: N_13  and  C_14
REMARK    7  A    between atoms: C_14  and  C_15
REMARK    8  A    between atoms: C_15  and  C_21
REMARK                            x       y       z     vdW  Elec       q    Type
REMARK                         _______ _______ _______ _____ _____    ______ ____
ROOT
ATOM      1  N   UNL     1      -2.631   1.277   0.826  0.00  0.00    -0.301 N 
ATOM      2  C   UNL     1      -3.331   1.950   1.761  0.00  0.00    +0.300 C 
ATOM      3  O   UNL     1      -3.772   1.363   2.730  0.00  0.00    -0.253 OA
ATOM      4  N   UNL     1      -3.542   3.274   1.622  0.00  0.00    -0.299 N 
ATOM      5  H   UNL     1      -2.280   1.746   0.053  0.00  0.00    +0.150 HD
ATOM      6  H   UNL     1      -3.190   3.743   0.849  0.00  0.00    +0.150 HD
ENDROOT
BRANCH   1   7
ATOM      7  C   UNL     1      -2.402  -0.162   0.978  0.00  0.00    +0.094 C 
BRANCH   7   8
ATOM      8  C   UNL     1      -1.682  -0.697  -0.262  0.00  0.00    -0.050 C 
ATOM      9  C   UNL     1      -2.591  -0.560  -1.502  0.00  0.00    -0.010 C 
ATOM     10  C   UNL     1      -2.296  -1.835  -2.330  0.00  0.00    -0.001 C 
ATOM     11  C   UNL     1      -2.130  -2.921  -1.238  0.00  0.00    -0.001 C 
ATOM     12  C   UNL     1      -1.390  -2.198  -0.095  0.00  0.00    -0.010 C 
BRANCH   8  14
ATOM     13  C   UNL     1       0.462  -0.170   0.676  0.00  0.00    -0.096 C 
ATOM     14  N   UNL     1      -0.429   0.040  -0.473  0.00  0.00    +0.381 N 
ATOM     15  C   UNL     1       0.225  -0.447  -1.695  0.00  0.00    -0.096 C 
ATOM     16  H   UNL     1      -0.629   1.024  -0.568  0.00  0.00    -0.082 HD
ENDBRANCH   8  14
ENDBRANCH   7   8
ENDBRANCH   1   7
BRANCH   4  17
ATOM     17  C   UNL     1      -4.302   4.006   2.638  0.00  0.00    +0.117 C 
BRANCH  17  18
ATOM     18  C   UNL     1      -4.472   5.461   2.198  0.00  0.00    +0.015 C 
ATOM     19  C   UNL     1      -5.284   6.223   3.250  0.00  0.00    +0.041 C 
ATOM     20  C   UNL     1      -4.508   6.237   4.570  0.00  0.00    +0.160 C 
ATOM     21  O   UNL     1      -3.227   6.833   4.362  0.00  0.00    -0.380 OA
ATOM     22  C   UNL     1      -2.405   6.136   3.422  0.00  0.00    +0.160 C 
ATOM     23  C   UNL     1      -3.096   6.118   2.057  0.00  0.00    +0.041 C 
BRANCH  18  24
ATOM     24  C   UNL     1      -5.191   5.507   0.874  0.00  0.00    -0.038 A 
ATOM     25  C   UNL     1      -4.539   5.976  -0.251  0.00  0.00    +0.004 A 
ATOM     26  C   UNL     1      -5.197   6.018  -1.465  0.00  0.00    +0.002 A 
ATOM     27  C   UNL     1      -6.509   5.591  -1.556  0.00  0.00    +0.020 A 
ATOM     28  C   UNL     1      -7.162   5.122  -0.431  0.00  0.00    +0.041 A 
ATOM     29  C   UNL     1      -6.500   5.074   0.784  0.00  0.00    +0.024 A 
ATOM     30 CL   UNL     1      -8.809   4.585  -0.543  0.00  0.00    -0.084 Cl
ENDBRANCH  18  24
ENDBRANCH  17  18
ENDBRANCH   4  17
TORSDOF 6
