REMARK  Name = ZINC20277647
REMARK  4 active torsions:
REMARK  status: ('A' for Active; 'I' for Inactive)
REMARK    1  A    between atoms: C_1  and  C_2
REMARK    2  A    between atoms: C_2  and  C_4
REMARK    3  A    between atoms: C_4  and  C_6
REMARK    4  A    between atoms: C_15  and  C_18
REMARK                            x       y       z     vdW  Elec       q    Type
REMARK                         _______ _______ _______ _____ _____    ______ ____
ROOT
ATOM      1  C   UNL     1      -1.842   1.539  -1.833  0.00  0.00    +0.021 A 
ATOM      2  C   UNL     1      -2.305   0.357  -1.240  0.00  0.00    +0.015 A 
ATOM      3  C   UNL     1      -3.328  -0.355  -1.826  0.00  0.00    +0.048 A 
ATOM      4  C   UNL     1      -3.903   0.096  -3.006  0.00  0.00    +0.143 A 
ATOM      5  C   UNL     1      -3.447   1.274  -3.604  0.00  0.00    +0.076 A 
ATOM      6  C   UNL     1      -2.427   1.997  -3.021  0.00  0.00    +0.038 A 
ATOM      7  N   UNL     1      -4.043   1.712  -4.795  0.00  0.00    -0.279 N 
ATOM      8  C   UNL     1      -4.805   0.849  -5.502  0.00  0.00    +0.263 C 
ATOM      9  O   UNL     1      -5.354   1.214  -6.520  0.00  0.00    -0.271 OA
ATOM     10  C   UNL     1      -4.970  -0.570  -5.020  0.00  0.00    +0.289 C 
ATOM     11  O   UNL     1      -4.910  -0.602  -3.591  0.00  0.00    -0.473 OA
ATOM     12  H   UNL     1      -3.887   2.745  -5.141  0.00  0.00    +0.155 HD
ENDROOT
BRANCH  10  13
ATOM     13  C   UNL     1      -3.865  -1.423  -5.586  0.00  0.00    +0.002 A 
ATOM     14  C   UNL     1      -2.640  -1.482  -4.947  0.00  0.00    +0.008 A 
ATOM     15  C   UNL     1      -1.628  -2.269  -5.464  0.00  0.00    +0.000 A 
ATOM     16  C   UNL     1      -1.837  -2.989  -6.626  0.00  0.00    +0.000 A 
ATOM     17  C   UNL     1      -3.059  -2.926  -7.267  0.00  0.00    +0.000 A 
ATOM     18  C   UNL     1      -4.073  -2.143  -6.748  0.00  0.00    +0.008 A 
ENDBRANCH  10  13
BRANCH   1  19
ATOM     19  C   UNL     1      -0.751   2.298  -1.209  0.00  0.00    +0.180 C 
ATOM     20  O   UNL     1      -0.436   3.382  -1.652  0.00  0.00    -0.291 OA
BRANCH  19  22
ATOM     21  C   UNL     1      -0.901   1.864   1.228  0.00  0.00    +0.033 C 
ATOM     22  C   UNL     1      -0.023   1.730  -0.018  0.00  0.00    +0.148 C 
ATOM     23 CL   UNL     1       0.342  -0.011  -0.311  0.00  0.00    -0.114 Cl
ENDBRANCH  19  22
ENDBRANCH   1  19
TORSDOF 3
