REMARK  Name = ZINC39659399
REMARK  8 active torsions:
REMARK  status: ('A' for Active; 'I' for Inactive)
REMARK    1  A    between atoms: C_1  and  C_2
REMARK    2  A    between atoms: C_2  and  C_34
REMARK    3  A    between atoms: C_5  and  C_8
REMARK    4  A    between atoms: C_8  and  N_9
REMARK    5  A    between atoms: C_10  and  C_12
REMARK    6  A    between atoms: C_23  and  C_25
REMARK    7  A    between atoms: C_25  and  O_26
REMARK    8  A    between atoms: O_26  and  C_27
REMARK                            x       y       z     vdW  Elec       q    Type
REMARK                         _______ _______ _______ _____ _____    ______ ____
ROOT
ATOM      1  C   UNL     1       3.741  -1.479   5.261  0.00  0.00    +0.100 C 
ATOM      2  C   UNL     1       4.780  -0.336   5.248  0.00  0.00    +0.121 C 
ATOM      3  N   UNL     1       5.551  -0.515   6.500  0.00  0.00    -0.297 N 
ATOM      4  C   UNL     1       5.708  -1.984   6.629  0.00  0.00    +0.115 C 
ATOM      5  C   UNL     1       4.354  -2.559   6.168  0.00  0.00    -0.004 C 
ATOM      6  C   UNL     1       4.570  -3.849   5.383  0.00  0.00    -0.010 C 
ATOM      7  C   UNL     1       5.126  -4.925   6.319  0.00  0.00    -0.082 C 
ATOM      8  N   UNL     1       4.183  -5.152   7.422  0.00  0.00    +0.379 N 
ATOM      9  C   UNL     1       4.053  -3.932   8.228  0.00  0.00    -0.082 C 
ATOM     10  C   UNL     1       3.452  -2.814   7.372  0.00  0.00    -0.010 C 
ATOM     11  C   UNL     1       6.006   0.441   7.335  0.00  0.00    +0.253 C 
ATOM     12  O   UNL     1       6.628   0.132   8.329  0.00  0.00    -0.272 OA
ATOM     13  H   UNL     1       3.281  -5.402   7.045  0.00  0.00    -0.086 HD
ATOM     14  H   UNL     1       4.522  -5.903   8.003  0.00  0.00    -0.086 HD
ENDROOT
BRANCH   1  16
ATOM     15  N   UNL     1       2.351  -2.562   3.526  0.00  0.00    -0.312 N 
ATOM     16  C   UNL     1       3.535  -2.018   3.869  0.00  0.00    +0.218 C 
ATOM     17  O   UNL     1       4.435  -1.962   3.058  0.00  0.00    -0.275 OA
ATOM     18  H   UNL     1       1.632  -2.607   4.174  0.00  0.00    +0.149 HD
BRANCH  15  19
ATOM     19  C   UNL     1       2.151  -3.086   2.172  0.00  0.00    +0.138 C 
BRANCH  19  24
ATOM     20  C   UNL     1      -1.827  -5.240   2.895  0.00  0.00    +0.074 C 
ATOM     21  C   UNL     1      -0.490  -5.567   2.227  0.00  0.00    +0.165 C 
ATOM     22  O   UNL     1      -0.541  -5.200   0.842  0.00  0.00    -0.347 OA
ATOM     23  C   UNL     1       0.483  -4.208   0.624  0.00  0.00    +0.196 C 
ATOM     24  C   UNL     1       0.732  -3.643   2.045  0.00  0.00    +0.164 C 
ATOM     25  O   UNL     1       0.564  -4.825   2.865  0.00  0.00    -0.342 OA
ATOM     26  C   UNL     1      -0.208  -7.066   2.348  0.00  0.00    +0.074 C 
ENDBRANCH  19  24
ENDBRANCH  15  19
ENDBRANCH   1  16
BRANCH  11  27
ATOM     27  C   UNL     1       5.742   1.893   7.032  0.00  0.00    +0.324 C 
BRANCH  27  28
ATOM     28  O   UNL     1       6.321   2.706   8.055  0.00  0.00    -0.483 OA
BRANCH  28  29
ATOM     29  C   UNL     1       6.172   4.051   7.932  0.00  0.00    +0.123 A 
ATOM     30  C   UNL     1       5.479   4.578   6.852  0.00  0.00    +0.046 A 
ATOM     31  C   UNL     1       5.329   5.945   6.729  0.00  0.00    +0.005 A 
ATOM     32  C   UNL     1       5.869   6.790   7.681  0.00  0.00    +0.020 A 
ATOM     33  C   UNL     1       6.560   6.268   8.760  0.00  0.00    +0.044 A 
ATOM     34  C   UNL     1       6.708   4.899   8.890  0.00  0.00    +0.065 A 
ATOM     35 CL   UNL     1       7.237   7.331   9.954  0.00  0.00    -0.083 Cl
ENDBRANCH  28  29
ENDBRANCH  27  28
ENDBRANCH  11  27
TORSDOF 6
