REMARK  Name = ZINC36500793
REMARK  12 active torsions:
REMARK  status: ('A' for Active; 'I' for Inactive)
REMARK    1  A    between atoms: C_1  and  C_2
REMARK    2  A    between atoms: C_2  and  C_3
REMARK    3  A    between atoms: C_3  and  C_4
REMARK    4  A    between atoms: C_5  and  C_6
REMARK    5  A    between atoms: C_6  and  C_8
REMARK    6  A    between atoms: C_6  and  N_17
REMARK    7  A    between atoms: N_10  and  C_11
REMARK    8  A    between atoms: N_17  and  C_18
REMARK    9  A    between atoms: C_18  and  C_19
REMARK   10  A    between atoms: C_24  and  C_26
REMARK   11  A    between atoms: C_30  and  O_33
REMARK   12  A    between atoms: C_31  and  O_32
REMARK                            x       y       z     vdW  Elec       q    Type
REMARK                         _______ _______ _______ _____ _____    ______ ____
ROOT
ATOM      1  N   UNL     1      -1.010  -5.608  -0.366  0.00  0.00    -0.275 N 
ATOM      2  C   UNL     1      -1.242  -5.745  -1.687  0.00  0.00    +0.251 C 
ATOM      3  O   UNL     1      -2.348  -5.515  -2.136  0.00  0.00    -0.270 OA
ENDROOT
BRANCH   2   4
ATOM      4  C   UNL     1      -0.155  -6.176  -2.586  0.00  0.00    +0.082 A 
ATOM      5  C   UNL     1       1.171  -5.838  -2.298  0.00  0.00    +0.017 A 
ATOM      6  C   UNL     1       2.183  -6.241  -3.140  0.00  0.00    +0.005 A 
ATOM      7  C   UNL     1       1.896  -6.983  -4.275  0.00  0.00    +0.049 A 
ATOM      8  C   UNL     1       0.589  -7.325  -4.574  0.00  0.00    +0.159 A 
ATOM      9  C   UNL     1      -0.445  -6.929  -3.730  0.00  0.00    +0.171 A 
BRANCH   9  10
ATOM     10  O   UNL     1      -1.728  -7.268  -4.017  0.00  0.00    -0.503 OA
ATOM     11  H   UNL     1      -2.191  -6.622  -4.567  0.00  0.00    +0.292 HD
ENDBRANCH   9  10
BRANCH   8  12
ATOM     12  O   UNL     1       0.314  -8.053  -5.690  0.00  0.00    -0.503 OA
ATOM     13  H   UNL     1       0.324  -9.009  -5.548  0.00  0.00    +0.292 HD
ENDBRANCH   8  12
ENDBRANCH   2   4
BRANCH   1  14
ATOM     14  C   UNL     1      -2.122  -5.675   0.584  0.00  0.00    +0.186 C 
BRANCH  14  15
ATOM     15  C   UNL     1      -1.792  -6.661   1.675  0.00  0.00    +0.238 C 
ATOM     16  O   UNL     1      -0.702  -7.192   1.703  0.00  0.00    -0.273 OA
ATOM     17  N   UNL     1      -2.708  -6.954   2.619  0.00  0.00    -0.311 N 
ATOM     18  H   UNL     1      -3.580  -6.529   2.597  0.00  0.00    +0.149 HD
BRANCH  17  19
ATOM     19  C   UNL     1      -2.386  -7.912   3.680  0.00  0.00    +0.073 C 
ATOM     20  C   UNL     1      -2.660  -9.333   3.183  0.00  0.00    +0.022 C 
ATOM     21  C   UNL     1      -2.325 -10.334   4.290  0.00  0.00    +0.002 C 
ATOM     22  C   UNL     1      -3.192 -10.047   5.517  0.00  0.00    +0.000 C 
ATOM     23  C   UNL     1      -2.918  -8.626   6.014  0.00  0.00    +0.002 C 
ATOM     24  C   UNL     1      -3.254  -7.625   4.907  0.00  0.00    +0.022 C 
ENDBRANCH  17  19
ENDBRANCH  14  15
BRANCH  14  26
ATOM     25  C   UNL     1      -1.690  -3.277   0.736  0.00  0.00    -0.029 C 
ATOM     26  C   UNL     1      -2.349  -4.314   1.190  0.00  0.00    +0.000 C 
BRANCH  25  27
ATOM     27  C   UNL     1      -2.012  -1.897   1.247  0.00  0.00    +0.027 C 
BRANCH  27  29
ATOM     28  C   UNL     1      -1.120   0.074   2.498  0.00  0.00    +0.004 C 
ATOM     29  C   UNL     1      -0.810  -1.345   2.017  0.00  0.00    +0.001 C 
ENDBRANCH  27  29
ENDBRANCH  25  27
ENDBRANCH  14  26
ENDBRANCH   1  14
BRANCH   1  30
ATOM     30  C   UNL     1       0.356  -5.390   0.118  0.00  0.00    +0.183 C 
BRANCH  30  31
ATOM     31  C   UNL     1       0.828  -4.023  -0.306  0.00  0.00    +0.122 A 
ATOM     32  C   UNL     1       1.048  -2.978   0.511  0.00  0.00    +0.046 A 
ATOM     33  C   UNL     1       1.478  -1.905  -0.303  0.00  0.00    +0.041 A 
ATOM     34  C   UNL     1       1.494  -2.358  -1.569  0.00  0.00    +0.195 A 
ATOM     35  O   UNL     1       1.104  -3.644  -1.565  0.00  0.00    -0.466 OA
ENDBRANCH  30  31
ENDBRANCH   1  30
TORSDOF 11
