REMARK  Name = ZINC04453074
REMARK  7 active torsions:
REMARK  status: ('A' for Active; 'I' for Inactive)
REMARK    1  A    between atoms: C_1  and  C_2
REMARK    2  A    between atoms: C_2  and  O_3
REMARK    3  A    between atoms: O_3  and  C_4
REMARK    4  A    between atoms: C_7  and  C_10
REMARK    5  A    between atoms: C_17  and  N_32
REMARK    6  A    between atoms: C_18  and  C_30
REMARK    7  A    between atoms: C_19  and  C_21
REMARK                            x       y       z     vdW  Elec       q    Type
REMARK                         _______ _______ _______ _____ _____    ______ ____
ROOT
ATOM      1  C   UNL     1      -2.122  -6.441  -0.157  0.00  0.00    +0.100 A 
ATOM      2  C   UNL     1      -3.074  -6.986   0.710  0.00  0.00    +0.054 A 
ATOM      3  C   UNL     1      -3.034  -8.344   0.582  0.00  0.00    +0.223 A 
ATOM      4  N   UNL     1      -2.090  -8.642  -0.335  0.00  0.00    -0.246 N 
ATOM      5  H   UNL     1      -1.843  -9.532  -0.630  0.00  0.00    +0.192 HD
ATOM      6  N   UNL     1      -1.533  -7.437  -0.790  0.00  0.00    -0.171 NA
ATOM      7  O   UNL     1      -3.838  -9.171   1.295  0.00  0.00    -0.423 OA
ATOM      8  C   UNL     1      -4.502  -8.645   2.345  0.00  0.00    +0.200 C 
ATOM      9  C   UNL     1      -4.622  -7.318   2.570  0.00  0.00    +0.098 C 
ATOM     10  C   UNL     1      -4.019  -6.284   1.651  0.00  0.00    +0.102 C 
ENDROOT
BRANCH  10  11
ATOM     11  C   UNL     1      -5.110  -5.606   0.864  0.00  0.00    -0.031 A 
ATOM     12  C   UNL     1      -5.891  -6.341  -0.008  0.00  0.00    +0.008 A 
ATOM     13  C   UNL     1      -6.894  -5.723  -0.732  0.00  0.00    +0.050 A 
ATOM     14  C   UNL     1      -7.118  -4.363  -0.585  0.00  0.00    +0.166 A 
ATOM     15  C   UNL     1      -6.331  -3.623   0.293  0.00  0.00    +0.167 A 
ATOM     16  C   UNL     1      -5.332  -4.250   1.020  0.00  0.00    +0.054 A 
ATOM     17  O   UNL     1      -6.744  -2.322   0.259  0.00  0.00    -0.453 OA
ATOM     18  C   UNL     1      -7.519  -2.197  -0.949  0.00  0.00    +0.466 C 
ATOM     19  O   UNL     1      -8.024  -3.527  -1.170  0.00  0.00    -0.453 OA
ENDBRANCH  10  11
BRANCH   1  23
ATOM     20  C   UNL     1      -1.286  -2.302  -0.675  0.00  0.00    +0.121 A 
ATOM     21  C   UNL     1      -1.492  -2.813   0.599  0.00  0.00    +0.046 A 
ATOM     22  C   UNL     1      -1.763  -4.154   0.770  0.00  0.00    +0.013 A 
ATOM     23  C   UNL     1      -1.831  -4.997  -0.338  0.00  0.00    +0.003 A 
ATOM     24  C   UNL     1      -1.625  -4.481  -1.616  0.00  0.00    +0.013 A 
ATOM     25  C   UNL     1      -1.359  -3.138  -1.781  0.00  0.00    +0.046 A 
BRANCH  20  26
ATOM     26  O   UNL     1      -1.019  -0.980  -0.841  0.00  0.00    -0.492 OA
BRANCH  26  28
ATOM     27  C   UNL     1      -0.651   1.271  -0.043  0.00  0.00    +0.048 C 
ATOM     28  C   UNL     1      -0.959  -0.177   0.340  0.00  0.00    +0.225 C 
ENDBRANCH  26  28
ENDBRANCH  20  26
ENDBRANCH   1  23
BRANCH   8  29
ATOM     29  N   UNL     1      -5.089  -9.508   3.236  0.00  0.00    -0.328 N 
ATOM     30  H   UNL     1      -5.020 -10.466   3.102  0.00  0.00    +0.145 HD
ATOM     31  H   UNL     1      -5.573  -9.159   4.002  0.00  0.00    +0.145 HD
ENDBRANCH   8  29
BRANCH   9  32
ATOM     32  C   UNL     1      -5.348  -6.876   3.722  0.00  0.00    +0.101 C 
ATOM     33  N   UNL     1      -5.925  -6.526   4.636  0.00  0.00    -0.191 NA
ENDBRANCH   9  32
TORSDOF 6
