REMARK  Name = ZINC40081777
REMARK  8 active torsions:
REMARK  status: ('A' for Active; 'I' for Inactive)
REMARK    1  A    between atoms: C_1  and  C_2
REMARK    2  A    between atoms: C_2  and  C_3
REMARK    3  A    between atoms: C_2  and  N_4
REMARK    4  A    between atoms: N_7  and  C_8
REMARK    5  A    between atoms: C_12  and  N_14
REMARK    6  A    between atoms: C_15  and  C_17
REMARK    7  A    between atoms: C_20  and  C_22
REMARK    8  A    between atoms: C_22  and  N_23
REMARK                            x       y       z     vdW  Elec       q    Type
REMARK                         _______ _______ _______ _____ _____    ______ ____
ROOT
ATOM      1  N   UNL     1       0.456  -2.400   8.084  0.00  0.00    -0.279 N 
ATOM      2  C   UNL     1      -0.190  -3.242   8.915  0.00  0.00    +0.284 C 
ATOM      3  O   UNL     1      -1.349  -3.542   8.697  0.00  0.00    -0.266 OA
ATOM      4  H   UNL     1       1.357  -2.108   8.293  0.00  0.00    +0.155 HD
ENDROOT
BRANCH   1   9
ATOM      5  C   UNL     1      -0.057  -1.285   4.614  0.00  0.00    +0.037 A 
ATOM      6  C   UNL     1      -1.426  -1.048   4.617  0.00  0.00    +0.023 A 
ATOM      7  C   UNL     1      -2.163  -1.259   5.767  0.00  0.00    +0.004 A 
ATOM      8  C   UNL     1      -1.541  -1.708   6.917  0.00  0.00    +0.023 A 
ATOM      9  C   UNL     1      -0.172  -1.947   6.920  0.00  0.00    +0.036 A 
ATOM     10  C   UNL     1       0.569  -1.741   5.765  0.00  0.00    +0.046 A 
BRANCH   5  14
ATOM     11  N   UNL     1       2.385  -1.730   1.988  0.00  0.00    -0.297 N 
ATOM     12  C   UNL     1       1.726  -1.878   3.155  0.00  0.00    +0.304 C 
ATOM     13  O   UNL     1       2.067  -2.741   3.940  0.00  0.00    -0.253 OA
ATOM     14  N   UNL     1       0.688  -1.070   3.449  0.00  0.00    -0.269 N 
ATOM     15  H   UNL     1       2.113  -1.042   1.361  0.00  0.00    +0.151 HD
ATOM     16  H   UNL     1       0.458  -0.340   2.854  0.00  0.00    +0.156 HD
BRANCH  11  18
ATOM     17  C   UNL     1       2.990  -3.901   1.039  0.00  0.00    +0.027 C 
ATOM     18  C   UNL     1       3.513  -2.608   1.668  0.00  0.00    +0.068 C 
ATOM     19  C   UNL     1       4.445  -1.902   0.682  0.00  0.00    +0.027 C 
ENDBRANCH  11  18
ENDBRANCH   5  14
ENDBRANCH   1   9
BRANCH   2  20
ATOM     20  C   UNL     1       0.504  -3.796  10.081  0.00  0.00    +0.190 A 
ATOM     21  C   UNL     1      -0.028  -4.660  10.996  0.00  0.00    +0.055 A 
ATOM     22  C   UNL     1       0.981  -4.926  11.934  0.00  0.00    +0.047 A 
ATOM     23  C   UNL     1       2.071  -4.222  11.557  0.00  0.00    +0.126 A 
ATOM     24  O   UNL     1       1.781  -3.547  10.436  0.00  0.00    -0.453 OA
BRANCH  23  25
ATOM     25  C   UNL     1       3.396  -4.204  12.274  0.00  0.00    +0.199 C 
BRANCH  25  26
ATOM     26  N   UNL     1       4.252  -5.269  11.745  0.00  0.00    -0.308 N 
ATOM     27  C   UNL     1       4.213  -6.503  12.307  0.00  0.00    +0.089 A 
ATOM     28  C   UNL     1       4.995  -7.503  11.836  0.00  0.00    +0.018 A 
ATOM     29  C   UNL     1       5.857  -7.267  10.756  0.00  0.00    +0.007 A 
ATOM     30  C   UNL     1       5.895  -6.025  10.192  0.00  0.00    +0.070 A 
ATOM     31  C   UNL     1       5.066  -5.012  10.703  0.00  0.00    +0.252 A 
ATOM     32  O   UNL     1       5.086  -3.898  10.205  0.00  0.00    -0.268 OA
ENDBRANCH  25  26
ENDBRANCH  23  25
ENDBRANCH   2  20
TORSDOF 6
