REMARK  Name = ZINC04672946
REMARK  7 active torsions:
REMARK  status: ('A' for Active; 'I' for Inactive)
REMARK    1  A    between atoms: C_1  and  C_2
REMARK    2  A    between atoms: C_4  and  N_45
REMARK    3  A    between atoms: C_5  and  C_7
REMARK    4  A    between atoms: C_5  and  C_8
REMARK    5  A    between atoms: C_5  and  N_45
REMARK    6  A    between atoms: N_16  and  C_18
REMARK    7  A    between atoms: C_21  and  N_24
REMARK                            x       y       z     vdW  Elec       q    Type
REMARK                         _______ _______ _______ _____ _____    ______ ____
ROOT
ATOM      1  C   UNL     1      -4.216   6.696   0.311  0.00  0.00    +0.068 C 
ATOM      2  C   UNL     1      -3.611   5.381  -0.108  0.00  0.00    +0.069 A 
ATOM      3  C   UNL     1      -4.301   4.170  -0.260  0.00  0.00    +0.035 A 
ATOM      4  C   UNL     1      -5.726   3.913  -0.052  0.00  0.00    +0.062 C 
ATOM      5  C   UNL     1      -3.259   3.215  -0.676  0.00  0.00    +0.069 A 
ATOM      6  C   UNL     1      -3.412   1.875  -0.958  0.00  0.00    +0.039 C 
ATOM      7  N   UNL     1      -2.102   3.954  -0.721  0.00  0.00    -0.232 N 
ATOM      8  N   UNL     1      -2.342   5.168  -0.389  0.00  0.00    -0.170 NA
ENDROOT
BRANCH   7   9
ATOM      9  C   UNL     1      -0.851   3.456  -1.071  0.00  0.00    +0.066 A 
ATOM     10  C   UNL     1      -0.742   2.450  -2.027  0.00  0.00    +0.030 A 
ATOM     11  C   UNL     1       0.500   1.955  -2.367  0.00  0.00    +0.035 A 
ATOM     12  C   UNL     1       1.638   2.465  -1.766  0.00  0.00    +0.126 A 
ATOM     13  C   UNL     1       1.536   3.468  -0.819  0.00  0.00    +0.035 A 
ATOM     14  C   UNL     1       0.297   3.965  -0.469  0.00  0.00    +0.030 A 
BRANCH  12  15
ATOM     15  N   UNL     1       2.969   1.935  -2.139  0.00  0.00    +0.056 N 
ATOM     16  O   UNL     1       3.070   0.981  -3.041  0.00  0.00    -0.126 OA
ATOM     17  O   UNL     1       4.054   2.419  -1.568  0.00  0.00    -0.126 OA
ENDBRANCH  12  15
ENDBRANCH   7   9
BRANCH   4  18
ATOM     18  N   UNL     1      -6.143   2.613  -0.098  0.00  0.00    -0.404 NA
ATOM     19  H   UNL     1      -5.714   2.116   0.692  0.00  0.00    +0.123 HD
ATOM     20  H   UNL     1      -5.811   2.206  -0.980  0.00  0.00    +0.123 HD
BRANCH  18  21
ATOM     21  C   UNL     1      -7.632   2.420  -0.022  0.00  0.00    +0.080 C 
ATOM     22  C   UNL     1      -8.238   2.535  -1.422  0.00  0.00    +0.031 C 
BRANCH  21  23
ATOM     23  C   UNL     1      -7.879   1.036   0.521  0.00  0.00    -0.029 A 
ATOM     24  C   UNL     1      -7.077  -0.016   0.120  0.00  0.00    +0.005 A 
ATOM     25  C   UNL     1      -7.301  -1.285   0.621  0.00  0.00    +0.000 A 
ATOM     26  C   UNL     1      -8.331  -1.503   1.516  0.00  0.00    +0.000 A 
ATOM     27  C   UNL     1      -9.136  -0.452   1.913  0.00  0.00    +0.000 A 
ATOM     28  C   UNL     1      -8.910   0.818   1.415  0.00  0.00    +0.005 A 
ENDBRANCH  21  23
ENDBRANCH  18  21
ENDBRANCH   4  18
TORSDOF 5
