REMARK  Name = ZINC65617459
REMARK  9 active torsions:
REMARK  status: ('A' for Active; 'I' for Inactive)
REMARK    1  A    between atoms: C_1  and  C_2
REMARK    2  A    between atoms: C_2  and  O_3
REMARK    3  A    between atoms: O_3  and  C_4
REMARK    4  A    between atoms: C_7  and  N_10
REMARK    5  A    between atoms: N_10  and  C_11
REMARK    6  A    between atoms: C_11  and  N_13
REMARK    7  A    between atoms: N_13  and  N_14
REMARK    8  A    between atoms: C_15  and  C_17
REMARK    9  A    between atoms: C_22  and  O_23
REMARK                            x       y       z     vdW  Elec       q    Type
REMARK                         _______ _______ _______ _____ _____    ______ ____
ROOT
ATOM      1  N   UNL     1       1.498  -8.652   1.892  0.00  0.00    -0.231 N 
ATOM      2  C   UNL     1       1.689  -9.983   1.980  0.00  0.00    +0.264 C 
ATOM      3  O   UNL     1       2.339 -10.445   2.898  0.00  0.00    -0.269 OA
ATOM      4  H   UNL     1       0.979  -8.284   1.160  0.00  0.00    +0.173 HD
ENDROOT
BRANCH   2   5
ATOM      5  C   UNL     1       1.110 -10.880   0.962  0.00  0.00    +0.080 A 
ATOM      6  C   UNL     1       0.368 -10.358  -0.096  0.00  0.00    +0.020 A 
ATOM      7  C   UNL     1      -0.176 -11.196  -1.055  0.00  0.00    -0.043 A 
ATOM      8  C   UNL     1       0.017 -12.560  -0.968  0.00  0.00    -0.041 A 
ATOM      9  C   UNL     1       0.751 -13.091   0.084  0.00  0.00    +0.050 A 
ATOM     10  C   UNL     1       1.305 -12.266   1.047  0.00  0.00    +0.129 A 
ATOM     11  C   UNL     1      -0.535 -13.522  -1.988  0.00  0.00    +0.035 C 
ATOM     12  C   UNL     1      -1.644 -12.863  -2.804  0.00  0.00    +0.005 C 
ATOM     13  C   UNL     1      -1.121 -11.525  -3.340  0.00  0.00    +0.005 C 
ATOM     14  C   UNL     1      -0.972 -10.560  -2.166  0.00  0.00    +0.035 C 
BRANCH  10  15
ATOM     15  O   UNL     1       2.026 -12.794   2.067  0.00  0.00    -0.506 OA
ATOM     16  H   UNL     1       1.499 -13.021   2.845  0.00  0.00    +0.292 HD
ENDBRANCH  10  15
ENDBRANCH   2   5
BRANCH   1  17
ATOM     17  N   UNL     1       2.048  -7.800   2.859  0.00  0.00    -0.245 N 
ATOM     18  H   UNL     1       2.566  -8.168   3.591  0.00  0.00    +0.172 HD
BRANCH  17  19
ATOM     19  C   UNL     1       1.856  -6.469   2.771  0.00  0.00    +0.151 C 
ATOM     20  S   UNL     1       2.528  -5.428   3.952  0.00  0.00    -0.017 S 
BRANCH  19  21
ATOM     21  N   UNL     1       1.135  -5.957   1.754  0.00  0.00    -0.296 N 
ATOM     22  H   UNL     1       0.687  -6.550   1.131  0.00  0.00    +0.154 HD
BRANCH  21  26
ATOM     23  C   UNL     1       0.831  -1.825   1.284  0.00  0.00    +0.121 A 
ATOM     24  C   UNL     1       2.050  -2.397   1.619  0.00  0.00    +0.047 A 
ATOM     25  C   UNL     1       2.151  -3.765   1.774  0.00  0.00    +0.027 A 
ATOM     26  C   UNL     1       1.033  -4.569   1.596  0.00  0.00    +0.033 A 
ATOM     27  C   UNL     1      -0.186  -3.996   1.262  0.00  0.00    +0.027 A 
ATOM     28  C   UNL     1      -0.288  -2.627   1.112  0.00  0.00    +0.047 A 
BRANCH  23  29
ATOM     29  O   UNL     1       0.732  -0.478   1.131  0.00  0.00    -0.492 OA
BRANCH  29  31
ATOM     30  C   UNL     1       1.619   1.771   1.111  0.00  0.00    +0.048 C 
ATOM     31  C   UNL     1       1.924   0.287   1.324  0.00  0.00    +0.225 C 
ENDBRANCH  29  31
ENDBRANCH  23  29
ENDBRANCH  21  26
ENDBRANCH  19  21
ENDBRANCH  17  19
ENDBRANCH   1  17
TORSDOF 8
