REMARK  Name = ZINC21971022
REMARK  4 active torsions:
REMARK  status: ('A' for Active; 'I' for Inactive)
REMARK    1  A    between atoms: C_5  and  C_6
REMARK    2  A    between atoms: N_8  and  N_9
REMARK    3  A    between atoms: C_10  and  C_12
REMARK    4  A    between atoms: C_12  and  C_13
REMARK                            x       y       z     vdW  Elec       q    Type
REMARK                         _______ _______ _______ _____ _____    ______ ____
ROOT
ATOM      1  C   UNL     1       3.463   2.701   5.144  0.00  0.00    +0.267 C 
ATOM      2  O   UNL     1       3.818   1.876   5.965  0.00  0.00    -0.268 OA
ATOM      3  N   UNL     1       3.560   4.016   5.424  0.00  0.00    -0.230 N 
ATOM      4  H   UNL     1       3.240   4.762   4.682  0.00  0.00    +0.173 HD
ENDROOT
BRANCH   1   9
ATOM      5  C   UNL     1       2.750   0.981   3.368  0.00  0.00    +0.024 A 
ATOM      6  C   UNL     1       2.217   0.828   2.092  0.00  0.00    -0.036 A 
ATOM      7  C   UNL     1       1.943   1.966   1.414  0.00  0.00    -0.006 A 
ATOM      8  S   UNL     1       2.346   3.253   2.481  0.00  0.00    -0.088 S 
ATOM      9  C   UNL     1       2.931   2.265   3.849  0.00  0.00    +0.076 A 
ATOM     10  C   UNL     1       1.415   2.062  -0.000  0.00  0.00    +0.043 C 
ATOM     11  C   UNL     1      -0.018   1.506   0.010  0.00  0.00    +0.005 C 
ATOM     12  C   UNL     1       0.002  -0.004   0.002  0.00  0.00    +0.001 C 
ATOM     13  C   UNL     1       0.438  -0.677   1.279  0.00  0.00    +0.005 C 
ATOM     14  C   UNL     1       1.947  -0.559   1.501  0.00  0.00    +0.036 C 
ENDBRANCH   1   9
BRANCH   3  15
ATOM     15  N   UNL     1       4.069   4.432   6.662  0.00  0.00    -0.234 N 
ATOM     16  C   UNL     1       4.166   5.747   6.942  0.00  0.00    +0.230 C 
ATOM     17  O   UNL     1       3.813   6.569   6.124  0.00  0.00    -0.274 OA
ATOM     18  H   UNL     1       4.389   3.686   7.404  0.00  0.00    +0.173 HD
BRANCH  16  19
ATOM     19  C   UNL     1       4.713   6.195   8.273  0.00  0.00    +0.105 C 
BRANCH  19  20
ATOM     20  C   UNL     1       4.716   7.724   8.335  0.00  0.00    +0.020 C 
ATOM     21  C   UNL     1       5.315   8.208   9.676  0.00  0.00    +0.012 C 
ATOM     22  C   UNL     1       4.438   9.446   9.973  0.00  0.00    +0.027 C 
ATOM     23  C   UNL     1       3.149   9.192   9.227  0.00  0.00    -0.031 C 
ATOM     24  C   UNL     1       3.300   8.253   8.333  0.00  0.00    -0.027 C 
ENDBRANCH  19  20
ENDBRANCH  16  19
ENDBRANCH   3  15
TORSDOF 4
