REMARK  Name = ZINC44321629
REMARK  8 active torsions:
REMARK  status: ('A' for Active; 'I' for Inactive)
REMARK    1  A    between atoms: C_13  and  C_14
REMARK    2  A    between atoms: C_14  and  O_15
REMARK    3  A    between atoms: O_15  and  C_16
REMARK    4  A    between atoms: N_18  and  CA_19
REMARK    5  A    between atoms: CA_19  and  C_21
REMARK    6  A    between atoms: CA_19  and  C_30
REMARK    7  A    between atoms: C_21  and  C_22
REMARK    8  A    between atoms: C_26  and  O_29
REMARK                            x       y       z     vdW  Elec       q    Type
REMARK                         _______ _______ _______ _____ _____    ______ ____
ROOT
ATOM      1  C   UNL     1       6.424  -1.603   2.148  0.00  0.00    +0.401 C 
ATOM      2  O   UNL     1       6.225  -0.862   3.091  0.00  0.00    -0.226 OA
ATOM      3  N   UNL     1       7.517  -2.391   2.129  0.00  0.00    -0.267 N 
ATOM      4  H   UNL     1       7.676  -2.982   1.376  0.00  0.00    +0.153 HD
ENDROOT
BRANCH   1   5
ATOM      5  O   UNL     1       5.553  -1.635   1.122  0.00  0.00    -0.449 OA
BRANCH   5   6
ATOM      6  C   UNL     1       4.416  -0.773   1.209  0.00  0.00    +0.246 C 
BRANCH   6  19
ATOM      7  C   UNL     1      -0.017   1.375   0.010  0.00  0.00    +0.001 A 
ATOM      8  C   UNL     1       1.169   2.088   0.002  0.00  0.00    +0.000 A 
ATOM      9  C   UNL     1       2.380   1.420  -0.013  0.00  0.00    +0.005 A 
ATOM     10  C   UNL     1       2.408   0.042  -0.021  0.00  0.00    -0.029 A 
ATOM     11  C   UNL     1       1.221  -0.685  -0.013  0.00  0.00    -0.014 A 
ATOM     12  C   UNL     1       0.002  -0.004   0.002  0.00  0.00    +0.009 A 
ATOM     13  C   UNL     1       1.530  -2.136  -0.025  0.00  0.00    -0.014 A 
ATOM     14  C   UNL     1       0.694  -3.254  -0.023  0.00  0.00    +0.009 A 
ATOM     15  C   UNL     1       1.238  -4.521  -0.035  0.00  0.00    +0.001 A 
ATOM     16  C   UNL     1       2.611  -4.690  -0.050  0.00  0.00    +0.000 A 
ATOM     17  C   UNL     1       3.445  -3.587  -0.052  0.00  0.00    +0.005 A 
ATOM     18  C   UNL     1       2.910  -2.316  -0.040  0.00  0.00    -0.029 A 
ATOM     19  C   UNL     1       3.547  -0.948  -0.038  0.00  0.00    +0.088 C 
ENDBRANCH   6  19
ENDBRANCH   5   6
ENDBRANCH   1   5
BRANCH   3  20
ATOM     20  CA  UNL     1       8.466  -2.355   3.245  0.00  0.00    +0.193 C 
BRANCH  20  21
ATOM     21  C   UNL     1       7.993  -3.282   4.335  0.00  0.00    +0.376 C 
ATOM     22  O   UNL     1       7.068  -4.048   4.126  0.00  0.00    -0.244 OA
ATOM     23  OXT UNL     1       8.537  -3.267   5.426  0.00  0.00    -0.244 OA
ENDBRANCH  20  21
BRANCH  20  24
ATOM     24  C   UNL     1       9.845  -2.803   2.756  0.00  0.00    +0.070 C 
BRANCH  24  25
ATOM     25  C   UNL     1      10.370  -1.807   1.755  0.00  0.00    -0.023 A 
ATOM     26  C   UNL     1      10.180  -2.022   0.402  0.00  0.00    +0.005 A 
ATOM     27  C   UNL     1      10.661  -1.111  -0.520  0.00  0.00    +0.004 A 
ATOM     28  C   UNL     1      11.334   0.018  -0.091  0.00  0.00    +0.047 A 
ATOM     29  C   UNL     1      11.526   0.237   1.264  0.00  0.00    +0.135 A 
ATOM     30  C   UNL     1      11.037  -0.677   2.189  0.00  0.00    +0.086 A 
ATOM     31 CL   UNL     1      11.269  -0.404   3.887  0.00  0.00    -0.079 Cl
BRANCH  29  32
ATOM     32  O   UNL     1      12.187   1.346   1.688  0.00  0.00    -0.505 OA
ATOM     33  H   UNL     1      11.614   2.109   1.847  0.00  0.00    +0.292 HD
ENDBRANCH  29  32
ENDBRANCH  24  25
ENDBRANCH  20  24
ENDBRANCH   3  20
TORSDOF 8
