REMARK  Name = ZINC06793327
REMARK  11 active torsions:
REMARK  status: ('A' for Active; 'I' for Inactive)
REMARK    1  A    between atoms: C_1  and  O_2
REMARK    2  A    between atoms: O_2  and  C_3
REMARK    3  A    between atoms: C_5  and  C_10
REMARK    4  A    between atoms: C_8  and  O_9
REMARK    5  A    between atoms: C_14  and  O_29
REMARK    6  A    between atoms: C_15  and  O_27
REMARK    7  A    between atoms: C_19  and  C_25
REMARK    8  A    between atoms: C_21  and  C_23
REMARK    9  A    between atoms: C_23  and  O_24
REMARK   10  A    between atoms: C_25  and  O_26
REMARK   11  A    between atoms: O_27  and  C_28
REMARK                            x       y       z     vdW  Elec       q    Type
REMARK                         _______ _______ _______ _____ _____    ______ ____
ROOT
ATOM      1  C   UNL     1       4.741   1.318  -0.101  0.00  0.00    +0.055 C 
ATOM      2  C   UNL     1       5.602   1.653   1.088  0.00  0.00    -0.033 A 
ATOM      3  C   UNL     1       5.172   1.223   2.338  0.00  0.00    +0.053 A 
ATOM      4  C   UNL     1       5.912   1.502   3.471  0.00  0.00    +0.159 A 
ATOM      5  C   UNL     1       7.099   2.220   3.358  0.00  0.00    +0.162 A 
ATOM      6  C   UNL     1       7.524   2.644   2.115  0.00  0.00    +0.053 A 
ATOM      7  C   UNL     1       6.777   2.360   0.977  0.00  0.00    -0.040 A 
ATOM      8  C   UNL     1       7.306   2.850  -0.346  0.00  0.00    +0.041 C 
ATOM      9  C   UNL     1       6.202   2.846  -1.401  0.00  0.00    +0.025 C 
ATOM     10  C   UNL     1       5.535   1.465  -1.397  0.00  0.00    +0.032 C 
ENDROOT
BRANCH   1  13
ATOM     11  C   UNL     1       1.213   2.614  -0.486  0.00  0.00    +0.162 A 
ATOM     12  C   UNL     1       2.303   1.759  -0.454  0.00  0.00    +0.053 A 
ATOM     13  C   UNL     1       3.556   2.249  -0.136  0.00  0.00    -0.036 A 
ATOM     14  C   UNL     1       3.725   3.591   0.151  0.00  0.00    +0.008 A 
ATOM     15  C   UNL     1       2.642   4.449   0.121  0.00  0.00    +0.049 A 
ATOM     16  C   UNL     1       1.384   3.966  -0.203  0.00  0.00    +0.158 A 
BRANCH  11  18
ATOM     17  C   UNL     1      -0.120   0.737  -1.084  0.00  0.00    +0.277 C 
ATOM     18  O   UNL     1      -0.020   2.134  -0.799  0.00  0.00    -0.491 OA
ENDBRANCH  11  18
BRANCH  16  19
ATOM     19  O   UNL     1       0.318   4.810  -0.238  0.00  0.00    -0.503 OA
ATOM     20  H   UNL     1      -0.145   4.894   0.606  0.00  0.00    +0.292 HD
ENDBRANCH  16  19
ENDBRANCH   1  13
BRANCH   5  21
ATOM     21  O   UNL     1       7.836   2.503   4.465  0.00  0.00    -0.491 OA
ATOM     22  C   UNL     1       9.042   3.244   4.270  0.00  0.00    +0.277 C 
ENDBRANCH   5  21
BRANCH   4  23
ATOM     23  O   UNL     1       5.484   1.076   4.690  0.00  0.00    -0.503 OA
ATOM     24  H   UNL     1       5.808   0.198   4.936  0.00  0.00    +0.292 HD
ENDBRANCH   4  23
BRANCH  10  25
ATOM     25  C   UNL     1       4.592   1.345  -2.596  0.00  0.00    +0.160 C 
BRANCH  25  26
ATOM     26  O   UNL     1       4.017   0.037  -2.620  0.00  0.00    -0.395 OA
ATOM     27  H   UNL     1       3.407  -0.111  -3.356  0.00  0.00    +0.209 HD
ENDBRANCH  25  26
ENDBRANCH  10  25
BRANCH   9  28
ATOM     28  C   UNL     1       6.805   3.123  -2.779  0.00  0.00    +0.160 C 
BRANCH  28  29
ATOM     29  O   UNL     1       7.354   4.442  -2.802  0.00  0.00    -0.395 OA
ATOM     30  H   UNL     1       7.754   4.687  -3.648  0.00  0.00    +0.209 HD
ENDBRANCH  28  29
ENDBRANCH   9  28
TORSDOF 9
