REMARK  Name = ZINC39794982
REMARK  2 active torsions:
REMARK  status: ('A' for Active; 'I' for Inactive)
REMARK    1  A    between atoms: C_6  and  C_7
REMARK    2  A    between atoms: C_10  and  C_12
REMARK                            x       y       z     vdW  Elec       q    Type
REMARK                         _______ _______ _______ _____ _____    ______ ____
ROOT
ATOM      1  C   UNL     1      -4.909  -1.041   0.037  0.00  0.00    +0.128 C 
ATOM      2  C   UNL     1      -5.323  -0.295  -1.198  0.00  0.00    +0.070 A 
ATOM      3  C   UNL     1      -6.263   0.688  -1.138  0.00  0.00    +0.113 A 
ATOM      4  N   UNL     1      -6.626   1.350  -2.287  0.00  0.00    -0.295 N 
ATOM      5  C   UNL     1      -6.056   1.032  -3.463  0.00  0.00    +0.328 A 
ATOM      6  O   UNL     1      -6.389   1.627  -4.471  0.00  0.00    -0.247 OA
ATOM      7  N   UNL     1      -5.122   0.067  -3.541  0.00  0.00    -0.275 N 
ATOM      8  C   UNL     1      -4.739  -0.607  -2.439  0.00  0.00    +0.260 A 
ATOM      9  O   UNL     1      -3.891  -1.480  -2.517  0.00  0.00    -0.267 OA
ATOM     10  N   UNL     1      -6.842   1.018   0.062  0.00  0.00    -0.303 N 
ATOM     11  C   UNL     1      -6.242   0.677   1.244  0.00  0.00    +0.017 C 
ATOM     12  C   UNL     1      -5.307  -0.295   1.284  0.00  0.00    +0.027 C 
ATOM     13  C   UNL     1      -4.675  -0.640   2.492  0.00  0.00    +0.162 C 
ATOM     14  O   UNL     1      -3.842  -1.524   2.497  0.00  0.00    -0.292 OA
ATOM     15  C   UNL     1      -5.010   0.065   3.778  0.00  0.00    +0.080 C 
ATOM     16  C   UNL     1      -5.472   1.490   3.459  0.00  0.00    +0.014 C 
ATOM     17  C   UNL     1      -6.656   1.411   2.496  0.00  0.00    +0.051 C 
ATOM     18  H   UNL     1      -4.721  -0.147  -4.399  0.00  0.00    +0.173 HD
ATOM     19  H   UNL     1      -7.685   1.497   0.072  0.00  0.00    +0.153 HD
ATOM     20  H   UNL     1      -7.297   2.050  -2.249  0.00  0.00    +0.172 HD
ENDROOT
BRANCH   1  24
ATOM     21  C   UNL     1      -1.266  -0.763   0.011  0.00  0.00    +0.135 A 
ATOM     22  C   UNL     1      -1.385  -2.118   0.010  0.00  0.00    +0.050 A 
ATOM     23  C   UNL     1      -2.765  -2.404   0.020  0.00  0.00    +0.046 A 
ATOM     24  C   UNL     1      -3.413  -1.223   0.026  0.00  0.00    +0.118 A 
ATOM     25  O   UNL     1      -2.504  -0.234   0.026  0.00  0.00    -0.459 OA
BRANCH  21  31
ATOM     26  C   UNL     1      -0.017   1.392   0.010  0.00  0.00    +0.013 A 
ATOM     27  C   UNL     1       1.170   2.095   0.002  0.00  0.00    +0.021 A 
ATOM     28  C   UNL     1       2.378   1.419  -0.013  0.00  0.00    +0.041 A 
ATOM     29  C   UNL     1       2.404   0.034  -0.021  0.00  0.00    +0.021 A 
ATOM     30  C   UNL     1       1.223  -0.680  -0.014  0.00  0.00    +0.013 A 
ATOM     31  C   UNL     1       0.002  -0.004   0.002  0.00  0.00    +0.017 A 
ATOM     32 CL   UNL     1       3.868   2.311  -0.023  0.00  0.00    -0.084 Cl
ENDBRANCH  21  31
ENDBRANCH   1  24
TORSDOF 2
