REMARK  Name = ZINC43671581
REMARK  4 active torsions:
REMARK  status: ('A' for Active; 'I' for Inactive)
REMARK    1  A    between atoms: C_1  and  C_2
REMARK    2  A    between atoms: C_10  and  C_19
REMARK    3  A    between atoms: C_11  and  C_13
REMARK    4  A    between atoms: C_19  and  O_20
REMARK                            x       y       z     vdW  Elec       q    Type
REMARK                         _______ _______ _______ _____ _____    ______ ____
ROOT
ATOM      1  C   UNL     1      -0.301   1.516   0.051  0.00  0.00    +0.044 C 
ATOM      2  C   UNL     1      -0.190   0.014   0.030  0.00  0.00    -0.046 A 
ATOM      3  C   UNL     1      -0.139  -0.678  -1.172  0.00  0.00    +0.023 A 
ATOM      4  C   UNL     1      -0.036  -2.055  -1.156  0.00  0.00    +0.113 A 
ATOM      5  N   UNL     1       0.013  -2.716  -0.016  0.00  0.00    -0.236 NA
ATOM      6  C   UNL     1      -0.033  -2.093   1.151  0.00  0.00    +0.156 A 
ATOM      7  C   UNL     1      -0.131  -0.708   1.210  0.00  0.00    +0.051 A 
ATOM      8  N   UNL     1       0.022  -2.834   2.334  0.00  0.00    -0.202 N 
ATOM      9  C   UNL     1      -0.343  -4.136   2.479  0.00  0.00    +0.140 A 
ATOM     10  C   UNL     1      -0.141  -4.481   3.771  0.00  0.00    +0.042 A 
ATOM     11  C   UNL     1       0.366  -3.353   4.445  0.00  0.00    +0.100 A 
ATOM     12  N   UNL     1       0.468  -2.368   3.577  0.00  0.00    -0.163 NA
ATOM     13 CL   UNL     1      -0.960  -5.171   1.229  0.00  0.00    -0.061 Cl
ENDROOT
BRANCH  11  14
ATOM     14  C   UNL     1       0.729  -3.287   5.883  0.00  0.00    +0.003 A 
ATOM     15  C   UNL     1       1.412  -4.345   6.480  0.00  0.00    +0.010 A 
ATOM     16  C   UNL     1       1.748  -4.279   7.817  0.00  0.00    +0.001 A 
ATOM     17  C   UNL     1       1.407  -3.165   8.564  0.00  0.00    +0.000 A 
ATOM     18  C   UNL     1       0.729  -2.113   7.976  0.00  0.00    +0.001 A 
ATOM     19  C   UNL     1       0.393  -2.166   6.638  0.00  0.00    +0.010 A 
ENDBRANCH  11  14
BRANCH  10  20
ATOM     20  C   UNL     1      -0.410  -5.832   4.380  0.00  0.00    +0.196 C 
BRANCH  20  21
ATOM     21  O   UNL     1       0.714  -6.687   4.160  0.00  0.00    -0.390 OA
ATOM     22  H   UNL     1       0.610  -7.576   4.527  0.00  0.00    +0.210 HD
ENDBRANCH  20  21
ENDBRANCH  10  20
TORSDOF 3
