REMARK  Name = ZINC03206333
REMARK  8 active torsions:
REMARK  status: ('A' for Active; 'I' for Inactive)
REMARK    1  A    between atoms: C_1  and  C_2
REMARK    2  A    between atoms: C_2  and  C_4
REMARK    3  A    between atoms: C_2  and  N_15
REMARK    4  A    between atoms: C_4  and  C_6
REMARK    5  A    between atoms: C_4  and  N_46
REMARK    6  A    between atoms: N_15  and  C_16
REMARK    7  A    between atoms: C_16  and  N_18
REMARK    8  A    between atoms: N_18  and  C_19
REMARK                            x       y       z     vdW  Elec       q    Type
REMARK                         _______ _______ _______ _____ _____    ______ ____
ROOT
ATOM      1  C   UNL     1       1.025   1.143  -0.279  0.00  0.00    +0.026 C 
ATOM      2  C   UNL     1      -0.474   0.895  -0.101  0.00  0.00    +0.060 C 
ENDROOT
BRANCH   2   3
ATOM      3  N   UNL     1      -0.918   1.478   1.168  0.00  0.00    -0.325 N 
ATOM      4  H   UNL     1      -1.300   2.370   1.185  0.00  0.00    +0.148 HD
BRANCH   3   5
ATOM      5  C   UNL     1      -0.798   0.775   2.311  0.00  0.00    +0.135 C 
ATOM      6  S   UNL     1      -0.125  -0.799   2.282  0.00  0.00    -0.019 S 
BRANCH   5   7
ATOM      7  N   UNL     1      -1.206   1.311   3.478  0.00  0.00    -0.296 N 
ATOM      8  H   UNL     1      -1.529   2.226   3.505  0.00  0.00    +0.154 HD
BRANCH   7   9
ATOM      9  C   UNL     1      -1.165   0.549   4.651  0.00  0.00    +0.051 A 
ATOM     10  C   UNL     1      -0.024  -0.174   4.971  0.00  0.00    +0.025 A 
ATOM     11  C   UNL     1       0.016  -0.922   6.132  0.00  0.00    +0.002 A 
ATOM     12  C   UNL     1      -1.083  -0.959   6.970  0.00  0.00    +0.002 A 
ATOM     13  C   UNL     1      -2.223  -0.245   6.653  0.00  0.00    +0.022 A 
ATOM     14  C   UNL     1      -2.268   0.510   5.496  0.00  0.00    +0.062 A 
ATOM     15 CL   UNL     1      -3.700   1.407   5.098  0.00  0.00    -0.082 Cl
ENDBRANCH   7   9
ENDBRANCH   5   7
ENDBRANCH   3   5
ENDBRANCH   2   3
BRANCH   2  16
ATOM     16  C   UNL     1      -1.239   1.544  -1.256  0.00  0.00    -0.011 C 
BRANCH  16  21
ATOM     17  C   UNL     1      -0.806  -0.433  -2.609  0.00  0.00    -0.078 C 
ATOM     18  C   UNL     1      -0.725  -0.716  -4.130  0.00  0.00    -0.020 C 
ATOM     19  C   UNL     1      -1.524   0.457  -4.743  0.00  0.00    -0.020 C 
ATOM     20  C   UNL     1      -1.505   1.561  -3.671  0.00  0.00    -0.078 C 
ATOM     21  N   UNL     1      -0.713   1.035  -2.558  0.00  0.00    +0.386 N 
ATOM     22  H   UNL     1       0.266   1.324  -2.662  0.00  0.00    -0.081 HD
ENDBRANCH  16  21
BRANCH  16  23
ATOM     23  C   UNL     1      -1.073   3.041  -1.191  0.00  0.00    -0.022 A 
ATOM     24  C   UNL     1      -1.927   3.974  -0.706  0.00  0.00    +0.009 A 
ATOM     25  C   UNL     1      -1.559   5.306  -0.749  0.00  0.00    +0.008 A 
ATOM     26  C   UNL     1      -0.355   5.639  -1.275  0.00  0.00    +0.045 A 
ATOM     27  S   UNL     1       0.305   4.043  -1.726  0.00  0.00    -0.103 S 
ENDBRANCH  16  23
ENDBRANCH   2  16
TORSDOF 7
