REMARK  Name = ZINC65833017
REMARK  9 active torsions:
REMARK  status: ('A' for Active; 'I' for Inactive)
REMARK    1  A    between atoms: C_1  and  C_2
REMARK    2  A    between atoms: C_4  and  O_23
REMARK    3  A    between atoms: C_5  and  O_21
REMARK    4  A    between atoms: C_7  and  S_8
REMARK    5  A    between atoms: S_8  and  N_11
REMARK    6  A    between atoms: N_11  and  N_12
REMARK    7  A    between atoms: N_15  and  C_16
REMARK    8  A    between atoms: O_21  and  C_22
REMARK    9  A    between atoms: O_23  and  C_24
REMARK                            x       y       z     vdW  Elec       q    Type
REMARK                         _______ _______ _______ _____ _____    ______ ____
ROOT
ATOM      1  S   UNL     1      -0.056  -0.056   2.733  0.00  0.00    +0.074 S 
ATOM      2  O   UNL     1      -1.266   0.687   2.776  0.00  0.00    -0.152 OA
ATOM      3  O   UNL     1       0.215  -1.125   3.630  0.00  0.00    -0.152 OA
ENDROOT
BRANCH   1  10
ATOM      4  C   UNL     1       2.258  -1.741   1.765  0.00  0.00    +0.046 C 
ATOM      5  C   UNL     1       1.169  -1.482   0.755  0.00  0.00    -0.020 A 
ATOM      6  C   UNL     1       1.270  -2.011  -0.519  0.00  0.00    +0.054 A 
ATOM      7  C   UNL     1       0.271  -1.773  -1.448  0.00  0.00    +0.162 A 
ATOM      8  C   UNL     1      -0.833  -1.002  -1.097  0.00  0.00    +0.163 A 
ATOM      9  C   UNL     1      -0.928  -0.475   0.181  0.00  0.00    +0.078 A 
ATOM     10  C   UNL     1       0.070  -0.721   1.106  0.00  0.00    +0.113 A 
BRANCH   8  11
ATOM     11  O   UNL     1      -1.817  -0.766  -2.006  0.00  0.00    -0.491 OA
ATOM     12  C   UNL     1      -2.920   0.034  -1.575  0.00  0.00    +0.277 C 
ENDBRANCH   8  11
BRANCH   7  13
ATOM     13  O   UNL     1       0.369  -2.292  -2.701  0.00  0.00    -0.491 OA
ATOM     14  C   UNL     1       1.530  -3.073  -2.992  0.00  0.00    +0.277 C 
ENDBRANCH   7  13
ENDBRANCH   1  10
BRANCH   1  15
ATOM     15  N   UNL     1       1.177   1.036   2.912  0.00  0.00    -0.107 NA
ATOM     16  H   UNL     1       1.836   0.911   3.612  0.00  0.00    +0.172 HD
BRANCH  15  17
ATOM     17  N   UNL     1       1.266   2.139   2.053  0.00  0.00    -0.216 N 
ATOM     18  C   UNL     1       1.314   3.386   2.561  0.00  0.00    +0.315 C 
ATOM     19  O   UNL     1       1.392   4.343   1.815  0.00  0.00    -0.251 OA
ATOM     20  N   UNL     1       1.277   3.572   3.895  0.00  0.00    -0.296 N 
ATOM     21  H   UNL     1       1.293   2.004   1.093  0.00  0.00    +0.172 HD
ATOM     22  H   UNL     1       1.215   2.809   4.490  0.00  0.00    +0.151 HD
BRANCH  20  23
ATOM     23  C   UNL     1       1.329   4.928   4.447  0.00  0.00    +0.074 C 
ATOM     24  C   UNL     1       2.797   5.361   4.647  0.00  0.00    +0.022 C 
ATOM     25  C   UNL     1       2.775   6.184   5.959  0.00  0.00    +0.002 C 
ATOM     26  C   UNL     1       1.759   5.407   6.833  0.00  0.00    +0.002 C 
ATOM     27  C   UNL     1       0.669   4.958   5.837  0.00  0.00    +0.022 C 
ENDBRANCH  20  23
ENDBRANCH  15  17
ENDBRANCH   1  15
TORSDOF 6
