REMARK  Name = ZINC30779177
REMARK  7 active torsions:
REMARK  status: ('A' for Active; 'I' for Inactive)
REMARK    1  A    between atoms: N_7  and  C_11
REMARK    2  A    between atoms: C_11  and  C_12
REMARK    3  A    between atoms: C_12  and  O_13
REMARK    4  A    between atoms: O_13  and  C_14
REMARK    5  A    between atoms: C_14  and  C_16
REMARK    6  A    between atoms: C_16  and  C_17
REMARK    7  A    between atoms: C_20  and  N_23
REMARK                            x       y       z     vdW  Elec       q    Type
REMARK                         _______ _______ _______ _____ _____    ______ ____
ROOT
ATOM      1  C   UNL     1      -0.641   1.754  -1.215  0.00  0.00    +0.312 C 
ATOM      2  O   UNL     1      -1.547   2.542  -1.080  0.00  0.00    -0.250 OA
ENDROOT
BRANCH   1   3
ATOM      3  O   UNL     1      -0.173   1.472  -2.441  0.00  0.00    -0.463 OA
BRANCH   3   4
ATOM      4  C   UNL     1      -0.804   2.150  -3.559  0.00  0.00    +0.254 C 
BRANCH   4   5
ATOM      5  C   UNL     1      -0.142   1.704  -4.865  0.00  0.00    +0.169 C 
BRANCH   5  12
ATOM      6  C   UNL     1      -3.510  -0.540  -7.014  0.00  0.00    +0.002 A 
ATOM      7  C   UNL     1      -3.351  -1.915  -6.974  0.00  0.00    +0.004 A 
ATOM      8  C   UNL     1      -2.263  -2.472  -6.333  0.00  0.00    +0.048 A 
ATOM      9  C   UNL     1      -1.323  -1.653  -5.726  0.00  0.00    +0.157 A 
ATOM     10  C   UNL     1      -1.484  -0.269  -5.766  0.00  0.00    +0.090 A 
ATOM     11  C   UNL     1      -2.580   0.284  -6.412  0.00  0.00    +0.030 A 
ATOM     12  N   UNL     1      -0.400   0.279  -5.081  0.00  0.00    -0.271 N 
ATOM     13  C   UNL     1       0.371  -0.744  -4.660  0.00  0.00    +0.421 A 
ATOM     14  O   UNL     1       1.405  -0.630  -4.030  0.00  0.00    -0.223 OA
ATOM     15  O   UNL     1      -0.182  -1.906  -5.040  0.00  0.00    -0.407 OA
ENDBRANCH   5  12
ENDBRANCH   4   5
ENDBRANCH   3   4
ENDBRANCH   1   3
BRANCH   1  16
ATOM     16  C   UNL     1      -0.036   1.088  -0.006  0.00  0.00    +0.155 C 
BRANCH  16  17
ATOM     17  C   UNL     1      -0.735   1.573   1.238  0.00  0.00    -0.037 A 
ATOM     18  C   UNL     1      -0.260   2.687   1.906  0.00  0.00    +0.006 A 
ATOM     19  C   UNL     1      -0.902   3.137   3.043  0.00  0.00    +0.023 A 
ATOM     20  C   UNL     1      -2.019   2.465   3.521  0.00  0.00    +0.035 A 
ATOM     21  C   UNL     1      -2.490   1.344   2.850  0.00  0.00    +0.023 A 
ATOM     22  C   UNL     1      -1.847   0.901   1.711  0.00  0.00    +0.006 A 
BRANCH  20  23
ATOM     23  N   UNL     1      -2.668   2.916   4.675  0.00  0.00    -0.270 N 
ATOM     24  C   UNL     1      -3.249   2.032   5.511  0.00  0.00    +0.301 C 
ATOM     25  O   UNL     1      -3.125   0.838   5.315  0.00  0.00    -0.253 OA
ATOM     26  N   UNL     1      -3.965   2.471   6.565  0.00  0.00    -0.313 N 
ATOM     27  H   UNL     1      -2.706   3.992   4.901  0.00  0.00    +0.156 HD
ATOM     28  H   UNL     1      -4.439   1.749   7.247  0.00  0.00    +0.146 HD
ATOM     29  H   UNL     1      -4.077   3.550   6.743  0.00  0.00    +0.146 HD
ENDBRANCH  20  23
ENDBRANCH  16  17
ENDBRANCH   1  16
TORSDOF 7
