REMARK  Name = ZINC03764203
REMARK  8 active torsions:
REMARK  status: ('A' for Active; 'I' for Inactive)
REMARK    1  A    between atoms: C_1  and  O_2
REMARK    2  A    between atoms: O_2  and  C_3
REMARK    3  A    between atoms: C_3  and  C_5
REMARK    4  A    between atoms: C_5  and  C_6
REMARK    5  A    between atoms: C_11  and  N_28
REMARK    6  A    between atoms: C_12  and  C_26
REMARK    7  A    between atoms: C_13  and  C_21
REMARK    8  A    between atoms: C_15  and  C_18
REMARK                            x       y       z     vdW  Elec       q    Type
REMARK                         _______ _______ _______ _____ _____    ______ ____
ROOT
ATOM      1  C   UNL     1      -0.986  -2.231  -0.274  0.00  0.00    +0.150 C 
ATOM      2  C   UNL     1      -1.130  -0.730  -0.170  0.00  0.00    +0.239 C 
ATOM      3  O   UNL     1      -2.221  -0.202  -0.159  0.00  0.00    -0.274 OA
ATOM      4  N   UNL     1       0.003  -0.001  -0.090  0.00  0.00    -0.220 N 
ATOM      5  C   UNL     1      -0.017   1.399   0.010  0.00  0.00    +0.110 C 
ATOM      6  C   UNL     1       1.092   2.164   0.091  0.00  0.00    +0.078 C 
ATOM      7  C   UNL     1       2.448   1.488   0.075  0.00  0.00    +0.107 C 
ATOM      8  C   UNL     1       2.426  -0.023  -0.033  0.00  0.00    +0.055 C 
ATOM      9  C   UNL     1       1.223  -0.650  -0.106  0.00  0.00    +0.086 C 
ATOM     10  S   UNL     1       0.842  -2.387  -0.240  0.00  0.00    -0.096 S 
ENDROOT
BRANCH   8  11
ATOM     11  C   UNL     1       3.623  -0.759  -0.056  0.00  0.00    +0.241 C 
ATOM     12  O   UNL     1       3.589  -1.975  -0.144  0.00  0.00    -0.271 OA
ATOM     13  N   UNL     1       4.808  -0.121   0.017  0.00  0.00    -0.326 N 
ATOM     14  H   UNL     1       4.834   0.846   0.087  0.00  0.00    +0.145 HD
ATOM     15  H   UNL     1       5.634  -0.630   0.001  0.00  0.00    +0.145 HD
ENDBRANCH   8  11
BRANCH   7  16
ATOM     16  C   UNL     1       3.234   2.033  -1.090  0.00  0.00    +0.003 A 
ATOM     17  C   UNL     1       4.361   2.785  -1.082  0.00  0.00    +0.012 A 
ATOM     18  C   UNL     1       4.915   3.175  -2.286  0.00  0.00    +0.008 A 
ATOM     19  C   UNL     1       4.315   2.793  -3.440  0.00  0.00    +0.045 A 
ATOM     20  S   UNL     1       2.926   1.847  -2.839  0.00  0.00    -0.101 S 
ENDBRANCH   7  16
BRANCH   5  21
ATOM     21  N   UNL     1      -1.238   2.028   0.019  0.00  0.00    -0.345 N 
ATOM     22  H   UNL     1      -1.352   2.859   0.506  0.00  0.00    +0.144 HD
ATOM     23  H   UNL     1      -1.987   1.641  -0.462  0.00  0.00    +0.144 HD
ENDBRANCH   5  21
BRANCH   6  24
ATOM     24  C   UNL     1       0.989   3.589   0.191  0.00  0.00    +0.099 C 
ATOM     25  N   UNL     1       0.907   4.719   0.269  0.00  0.00    -0.191 NA
ENDBRANCH   6  24
BRANCH   1  26
ATOM     26  C   UNL     1      -1.625  -2.934   0.926  0.00  0.00    +0.144 C 
BRANCH  26  27
ATOM     27  C   UNL     1      -1.567  -4.426   0.722  0.00  0.00    +0.308 C 
ATOM     28  O   UNL     1      -1.067  -4.881  -0.279  0.00  0.00    -0.251 OA
BRANCH  27  30
ATOM     29  C   UNL     1      -1.983  -6.676   1.391  0.00  0.00    +0.280 C 
ATOM     30  O   UNL     1      -2.072  -5.250   1.654  0.00  0.00    -0.468 OA
ENDBRANCH  27  30
ENDBRANCH  26  27
ENDBRANCH   1  26
TORSDOF 7
