REMARK  Name = ZINC62826843
REMARK  7 active torsions:
REMARK  status: ('A' for Active; 'I' for Inactive)
REMARK    1  A    between atoms: C_1  and  C_2
REMARK    2  A    between atoms: C_2  and  C_3
REMARK    3  A    between atoms: C_2  and  C_4
REMARK    4  A    between atoms: C_4  and  C_5
REMARK    5  A    between atoms: C_7  and  C_11
REMARK    6  A    between atoms: N_8  and  C_10
REMARK    7  A    between atoms: C_16  and  N_17
REMARK                            x       y       z     vdW  Elec       q    Type
REMARK                         _______ _______ _______ _____ _____    ______ ____
ROOT
ATOM      1  C   UNL     1       0.108   0.064   2.287  0.00  0.00    +0.152 A 
ATOM      2  N   UNL     1       0.112   1.238   2.913  0.00  0.00    -0.211 NA
ATOM      3  C   UNL     1      -0.817   1.246   3.848  0.00  0.00    +0.160 A 
ATOM      4  N   UNL     1      -1.438   0.045   3.824  0.00  0.00    -0.248 N 
ATOM      5  N   UNL     1      -0.823  -0.696   2.802  0.00  0.00    -0.155 NA
ATOM      6  C   UNL     1      -2.537  -0.395   4.687  0.00  0.00    +0.174 C 
ENDROOT
BRANCH   3   7
ATOM      7  C   UNL     1      -1.125   2.368   4.760  0.00  0.00    +0.041 A 
ATOM      8  C   UNL     1      -2.447   2.772   4.953  0.00  0.00    +0.013 A 
ATOM      9  C   UNL     1      -2.729   3.819   5.805  0.00  0.00    +0.002 A 
ATOM     10  C   UNL     1      -1.706   4.473   6.472  0.00  0.00    +0.017 A 
ATOM     11  C   UNL     1      -0.393   4.084   6.290  0.00  0.00    +0.039 A 
ATOM     12  C   UNL     1      -0.092   3.028   5.439  0.00  0.00    +0.049 A 
ATOM     13 BR   UNL     1       0.995   4.985   7.205  0.00  0.00    -0.048 Br
BRANCH  12  14
ATOM     14  N   UNL     1       1.231   2.630   5.258  0.00  0.00    -0.357 N 
ATOM     15  H   UNL     1       1.438   1.889   4.668  0.00  0.00    +0.142 HD
ATOM     16  H   UNL     1       1.944   3.094   5.723  0.00  0.00    +0.142 HD
ENDBRANCH  12  14
ENDBRANCH   3   7
BRANCH   1  17
ATOM     17  C   UNL     1       1.027  -0.325   1.157  0.00  0.00    +0.081 C 
BRANCH  17  19
ATOM     18  C   UNL     1       0.264   1.585  -0.262  0.00  0.00    +0.007 C 
ATOM     19  C   UNL     1       0.386   0.062  -0.178  0.00  0.00    -0.010 C 
ATOM     20  C   UNL     1       1.259  -0.444  -1.328  0.00  0.00    +0.007 C 
ENDBRANCH  17  19
ENDBRANCH   1  17
TORSDOF 4
