REMARK  Name = ZINC33719785
REMARK  6 active torsions:
REMARK  status: ('A' for Active; 'I' for Inactive)
REMARK    1  A    between atoms: C_1  and  C_2
REMARK    2  A    between atoms: C_2  and  C_21
REMARK    3  A    between atoms: C_10  and  O_20
REMARK    4  A    between atoms: C_12  and  O_19
REMARK    5  A    between atoms: C_14  and  O_17
REMARK    6  A    between atoms: O_17  and  C_18
REMARK                            x       y       z     vdW  Elec       q    Type
REMARK                         _______ _______ _______ _____ _____    ______ ____
ROOT
ATOM      1  C   UNL     1       0.554   3.614   1.328  0.00  0.00    +0.074 C 
ATOM      2  C   UNL     1      -0.833   2.973   1.253  0.00  0.00    +0.165 C 
ATOM      3  O   UNL     1      -0.694   1.553   1.179  0.00  0.00    -0.347 OA
ATOM      4  C   UNL     1      -0.013   1.086   0.008  0.00  0.00    +0.197 C 
ATOM      5  C   UNL     1      -0.763   1.598  -1.222  0.00  0.00    +0.178 C 
ATOM      6  C   UNL     1      -0.866   3.126  -1.127  0.00  0.00    +0.184 C 
ATOM      7  O   UNL     1      -1.520   3.462   0.096  0.00  0.00    -0.341 OA
ATOM      8  C   UNL     1      -1.651   3.638  -2.334  0.00  0.00    +0.179 C 
ATOM      9  C   UNL     1      -0.926   3.194  -3.610  0.00  0.00    +0.201 C 
ATOM     10  C   UNL     1      -0.765   1.673  -3.608  0.00  0.00    +0.281 C 
ATOM     11  O   UNL     1      -0.078   1.254  -2.425  0.00  0.00    -0.341 OA
ATOM     12  C   UNL     1      -1.629   3.337   2.508  0.00  0.00    +0.074 C 
ENDROOT
BRANCH  10  13
ATOM     13  O   UNL     1      -2.055   1.059  -3.649  0.00  0.00    -0.352 OA
ATOM     14  C   UNL     1      -2.018  -0.364  -3.765  0.00  0.00    +0.197 C 
ENDBRANCH  10  13
BRANCH   9  15
ATOM     15  O   UNL     1      -1.688   3.589  -4.752  0.00  0.00    -0.384 OA
ATOM     16  H   UNL     1      -1.324   3.356  -5.764  0.00  0.00    +0.210 HD
ENDBRANCH   9  15
BRANCH   8  17
ATOM     17  O   UNL     1      -2.971   3.090  -2.316  0.00  0.00    -0.386 OA
ATOM     18  H   UNL     1      -3.685   3.349  -3.112  0.00  0.00    +0.210 HD
ENDBRANCH   8  17
TORSDOF 3
