REMARK  Name = ZINC53006637
REMARK  7 active torsions:
REMARK  status: ('A' for Active; 'I' for Inactive)
REMARK    1  A    between atoms: C_1  and  C_2
REMARK    2  A    between atoms: C_5  and  N_20
REMARK    3  A    between atoms: C_6  and  C_8
REMARK    4  A    between atoms: N_10  and  C_11
REMARK    5  A    between atoms: C_13  and  C_18
REMARK    6  A    between atoms: C_16  and  C_17
REMARK    7  A    between atoms: N_20  and  N_21
REMARK                            x       y       z     vdW  Elec       q    Type
REMARK                         _______ _______ _______ _____ _____    ______ ____
ROOT
ATOM      1  C   UNL     1       0.031  -2.908   2.153  0.00  0.00    +0.250 C 
ATOM      2  O   UNL     1       0.133  -4.119   2.109  0.00  0.00    -0.270 OA
ATOM      3  N   UNL     1      -0.066  -2.282   3.342  0.00  0.00    -0.281 N 
ATOM      4  H   UNL     1      -0.211  -1.324   3.376  0.00  0.00    +0.155 HD
ENDROOT
BRANCH   1  10
ATOM      5  C   UNL     1      -0.015   1.504  -0.168  0.00  0.00    +0.044 C 
ATOM      6  C   UNL     1      -0.009  -0.002  -0.220  0.00  0.00    -0.050 A 
ATOM      7  C   UNL     1      -0.021  -0.649  -1.446  0.00  0.00    +0.005 A 
ATOM      8  C   UNL     1      -0.016  -2.027  -1.508  0.00  0.00    +0.025 A 
ATOM      9  C   UNL     1       0.001  -2.777  -0.339  0.00  0.00    +0.053 A 
ATOM     10  C   UNL     1       0.013  -2.125   0.904  0.00  0.00    +0.059 A 
ATOM     11  C   UNL     1       0.013  -0.728   0.950  0.00  0.00    +0.018 A 
BRANCH   9  12
ATOM     12  N   UNL     1       0.006  -4.165  -0.399  0.00  0.00    -0.282 N 
ATOM     13  H   UNL     1       0.095  -4.685   0.415  0.00  0.00    +0.166 HD
BRANCH  12  14
ATOM     14  N   UNL     1      -0.115  -4.797  -1.604  0.00  0.00    -0.256 NA
ATOM     15  H   UNL     1       0.601  -4.491  -2.246  0.00  0.00    +0.140 HD
ATOM     16  H   UNL     1      -0.096  -5.799  -1.490  0.00  0.00    +0.140 HD
ENDBRANCH  12  14
ENDBRANCH   9  12
ENDBRANCH   1  10
BRANCH   3  17
ATOM     17  C   UNL     1       0.043  -3.015   4.529  0.00  0.00    +0.038 A 
ATOM     18  C   UNL     1      -0.452  -4.308   4.593  0.00  0.00    +0.042 A 
ATOM     19  C   UNL     1      -0.341  -5.035   5.779  0.00  0.00    +0.054 A 
ATOM     20  C   UNL     1       0.269  -4.454   6.893  0.00  0.00    +0.019 A 
ATOM     21  C   UNL     1       0.758  -3.166   6.819  0.00  0.00    +0.006 A 
ATOM     22  C   UNL     1       0.652  -2.448   5.642  0.00  0.00    -0.029 A 
ATOM     23  C   UNL     1       1.194  -1.044   5.568  0.00  0.00    +0.045 C 
BRANCH  19  24
ATOM     24  C   UNL     1      -0.850  -6.371   5.853  0.00  0.00    +0.099 C 
ATOM     25  N   UNL     1      -1.254  -7.431   5.912  0.00  0.00    -0.191 NA
ENDBRANCH  19  24
ENDBRANCH   3  17
TORSDOF 5
