REMARK  Name = ZINC66596243
REMARK  10 active torsions:
REMARK  status: ('A' for Active; 'I' for Inactive)
REMARK    1  A    between atoms: C_1  and  C_2
REMARK    2  A    between atoms: C_3  and  C_7
REMARK    3  A    between atoms: C_7  and  N_8
REMARK    4  A    between atoms: N_8  and  C_9
REMARK    5  A    between atoms: N_12  and  C_13
REMARK    6  A    between atoms: C_13  and  C_14
REMARK    7  A    between atoms: C_14  and  C_15
REMARK    8  A    between atoms: C_15  and  N_16
REMARK    9  A    between atoms: C_18  and  C_25
REMARK   10  A    between atoms: C_21  and  C_24
REMARK                            x       y       z     vdW  Elec       q    Type
REMARK                         _______ _______ _______ _____ _____    ______ ____
ROOT
ATOM      1  N   UNL     1       1.368  -0.036  -3.052  0.00  0.00    -0.284 N 
ATOM      2  C   UNL     1       2.071  -1.145  -3.701  0.00  0.00    +0.134 C 
ATOM      3  C   UNL     1       1.988   1.150  -2.885  0.00  0.00    +0.302 C 
ATOM      4  O   UNL     1       1.405   2.070  -2.346  0.00  0.00    -0.253 OA
ATOM      5  N   UNL     1       3.254   1.314  -3.316  0.00  0.00    -0.299 N 
ATOM      6  H   UNL     1       3.720   0.580  -3.746  0.00  0.00    +0.150 HD
ENDROOT
BRANCH   1   7
ATOM      7  C   UNL     1      -0.008  -0.215  -2.583  0.00  0.00    +0.153 C 
BRANCH   7  10
ATOM      8  C   UNL     1      -0.018   1.503   0.010  0.00  0.00    +0.066 C 
ATOM      9  C   UNL     1       0.002  -0.004   0.002  0.00  0.00    +0.050 A 
ATOM     10  C   UNL     1       0.006  -0.708  -1.159  0.00  0.00    +0.029 A 
ATOM     11  S   UNL     1       0.032  -2.379  -0.531  0.00  0.00    -0.079 S 
ATOM     12  C   UNL     1       0.036  -2.009   1.111  0.00  0.00    +0.156 A 
ATOM     13  N   UNL     1       0.023  -0.699   1.122  0.00  0.00    -0.252 NA
ENDBRANCH   7  10
ENDBRANCH   1   7
BRANCH   5  14
ATOM     14  C   UNL     1       3.928   2.603  -3.135  0.00  0.00    +0.107 C 
BRANCH  14  15
ATOM     15  C   UNL     1       5.345   2.522  -3.708  0.00  0.00    +0.034 C 
BRANCH  15  16
ATOM     16  C   UNL     1       6.048   3.868  -3.519  0.00  0.00    +0.086 C 
BRANCH  16  17
ATOM     17  N   UNL     1       7.408   3.790  -4.069  0.00  0.00    -0.297 NA
ATOM     18  C   UNL     1       8.238   2.857  -3.293  0.00  0.00    +0.115 C 
ATOM     19  C   UNL     1       9.625   2.762  -3.934  0.00  0.00    +0.130 C 
ATOM     20  O   UNL     1      10.202   4.069  -4.006  0.00  0.00    -0.371 OA
ATOM     21  C   UNL     1       9.420   5.003  -4.755  0.00  0.00    +0.130 C 
ATOM     22  C   UNL     1       8.031   5.121  -4.122  0.00  0.00    +0.115 C 
ATOM     23  C   UNL     1       9.285   4.515  -6.198  0.00  0.00    +0.039 C 
ATOM     24  C   UNL     1      10.518   1.854  -3.086  0.00  0.00    +0.039 C 
ENDBRANCH  16  17
ENDBRANCH  15  16
ENDBRANCH  14  15
ENDBRANCH   5  14
TORSDOF 6
