REMARK  Name = ZINC67462202
REMARK  8 active torsions:
REMARK  status: ('A' for Active; 'I' for Inactive)
REMARK    1  A    between atoms: C_1  and  C_2
REMARK    2  A    between atoms: C_5  and  N_9
REMARK    3  A    between atoms: C_10  and  C_12
REMARK    4  A    between atoms: C_12  and  C_13
REMARK    5  A    between atoms: C_13  and  N_14
REMARK    6  A    between atoms: N_17  and  N_18
REMARK    7  A    between atoms: C_19  and  C_21
REMARK    8  A    between atoms: C_22  and  C_26
REMARK                            x       y       z     vdW  Elec       q    Type
REMARK                         _______ _______ _______ _____ _____    ______ ____
ROOT
ATOM      1  N   UNL     1      -0.330  -8.309  -2.633  0.00  0.00    -0.298 N 
ATOM      2  C   UNL     1      -0.429  -8.977  -3.799  0.00  0.00    +0.316 C 
ATOM      3  O   UNL     1      -0.442  -8.366  -4.851  0.00  0.00    -0.251 OA
ATOM      4  N   UNL     1      -0.513 -10.322  -3.800  0.00  0.00    -0.218 N 
ATOM      5  H   UNL     1      -0.319  -8.796  -1.794  0.00  0.00    +0.150 HD
ATOM      6  H   UNL     1      -0.584 -10.803  -4.640  0.00  0.00    +0.174 HD
ENDROOT
BRANCH   4   7
ATOM      7  N   UNL     1      -0.497 -11.026  -2.589  0.00  0.00    -0.229 N 
ATOM      8  C   UNL     1      -0.582 -12.371  -2.590  0.00  0.00    +0.267 C 
ATOM      9  O   UNL     1      -0.671 -12.974  -3.643  0.00  0.00    -0.268 OA
ATOM     10  H   UNL     1      -0.426 -10.545  -1.750  0.00  0.00    +0.173 HD
BRANCH   8  11
ATOM     11  C   UNL     1      -0.565 -13.107  -1.323  0.00  0.00    +0.078 A 
ATOM     12  C   UNL     1      -0.634 -14.475  -1.106  0.00  0.00    -0.031 A 
ATOM     13  C   UNL     1      -0.596 -14.873   0.209  0.00  0.00    +0.011 A 
ATOM     14  C   UNL     1      -0.495 -13.933   1.180  0.00  0.00    +0.046 A 
ATOM     15  S   UNL     1      -0.444 -12.478   0.341  0.00  0.00    -0.092 S 
ATOM     16  C   UNL     1      -0.746 -15.462  -2.239  0.00  0.00    +0.045 C 
ENDBRANCH   8  11
ENDBRANCH   4   7
BRANCH   1  17
ATOM     17  C   UNL     1      -0.238  -6.847  -2.632  0.00  0.00    +0.115 C 
BRANCH  17  18
ATOM     18  C   UNL     1      -0.136  -6.343  -1.191  0.00  0.00    +0.115 C 
BRANCH  18  20
ATOM     19  N   UNL     1       0.057  -4.171  -0.023  0.00  0.00    -0.284 N 
ATOM     20  C   UNL     1      -0.042  -4.839  -1.190  0.00  0.00    +0.219 C 
ATOM     21  O   UNL     1      -0.055  -4.230  -2.238  0.00  0.00    -0.275 OA
ATOM     22  H   UNL     1       0.149  -4.660   0.809  0.00  0.00    +0.155 HD
BRANCH  19  27
ATOM     23  C   UNL     1      -0.064   1.502   0.016  0.00  0.00    +0.044 C 
ATOM     24  C   UNL     1      -0.031  -0.005   0.006  0.00  0.00    -0.049 A 
ATOM     25  C   UNL     1      -0.622  -0.701  -1.033  0.00  0.00    +0.005 A 
ATOM     26  C   UNL     1      -0.594  -2.082  -1.045  0.00  0.00    +0.025 A 
ATOM     27  C   UNL     1       0.028  -2.772  -0.014  0.00  0.00    +0.052 A 
ATOM     28  C   UNL     1       0.621  -2.070   1.029  0.00  0.00    +0.062 A 
ATOM     29  C   UNL     1       0.595  -0.688   1.032  0.00  0.00    +0.025 A 
ATOM     30 CL   UNL     1       1.401  -2.928   2.321  0.00  0.00    -0.082 Cl
ENDBRANCH  19  27
ENDBRANCH  18  20
ENDBRANCH  17  18
ENDBRANCH   1  17
TORSDOF 6
