REMARK  Name = ZINC39955851
REMARK  6 active torsions:
REMARK  status: ('A' for Active; 'I' for Inactive)
REMARK    1  A    between atoms: C_4  and  C_7
REMARK    2  A    between atoms: C_7  and  C_9
REMARK    3  A    between atoms: C_7  and  O_29
REMARK    4  A    between atoms: C_9  and  N_10
REMARK    5  A    between atoms: C_11  and  C_13
REMARK    6  A    between atoms: C_16  and  C_19
REMARK                            x       y       z     vdW  Elec       q    Type
REMARK                         _______ _______ _______ _____ _____    ______ ____
ROOT
ATOM      1  C   UNL     1       7.200  -2.921  -2.685  0.00  0.00    +0.378 C 
ATOM      2  N   UNL     1       8.306  -2.003  -2.374  0.00  0.00    -0.282 N 
ATOM      3  C   UNL     1       9.141  -1.994  -3.478  0.00  0.00    +0.168 C 
ATOM      4  N   UNL     1       8.694  -2.776  -4.408  0.00  0.00    -0.066 NA
ATOM      5  O   UNL     1       7.487  -3.402  -4.007  0.00  0.00    -0.360 OA
ATOM      6  H   UNL     1       8.427  -1.500  -1.554  0.00  0.00    +0.152 HD
ENDROOT
BRANCH   3   7
ATOM      7  C   UNL     1      10.379  -1.197  -3.583  0.00  0.00    +0.018 C 
ATOM      8  C   UNL     1      11.151  -1.250  -4.739  0.00  0.00    +0.017 C 
ATOM      9  C   UNL     1      12.271  -0.407  -4.743  0.00  0.00    -0.017 C 
ATOM     10  C   UNL     1      13.481  -0.496  -5.324  0.00  0.00    +0.025 C 
ATOM     11  C   UNL     1      14.338   0.481  -4.770  0.00  0.00    +0.106 C 
ATOM     12  N   UNL     1      13.711   1.276  -3.950  0.00  0.00    -0.279 NA
ATOM     13  C   UNL     1      12.307   0.889  -3.950  0.00  0.00    +0.158 C 
ATOM     14  C   UNL     1      11.718   0.620  -2.599  0.00  0.00    +0.005 C 
ATOM     15  C   UNL     1      10.800  -0.337  -2.468  0.00  0.00    +0.009 C 
ENDBRANCH   3   7
BRANCH   1  17
ATOM     16  N   UNL     1       5.358  -1.774  -1.497  0.00  0.00    -0.308 N 
ATOM     17  C   UNL     1       5.885  -2.186  -2.668  0.00  0.00    +0.275 C 
ATOM     18  O   UNL     1       5.300  -1.964  -3.707  0.00  0.00    -0.270 OA
ATOM     19  H   UNL     1       5.826  -1.951  -0.666  0.00  0.00    +0.149 HD
BRANCH  16  20
ATOM     20  C   UNL     1       4.080  -1.059  -1.480  0.00  0.00    +0.140 C 
BRANCH  20  21
ATOM     21  C   UNL     1       3.711  -0.707  -0.038  0.00  0.00    +0.162 C 
BRANCH  21  25
ATOM     22  C   UNL     1      -0.017   1.378   0.010  0.00  0.00    +0.000 A 
ATOM     23  C   UNL     1       1.171   2.086   0.002  0.00  0.00    +0.000 A 
ATOM     24  C   UNL     1       2.377   1.411  -0.013  0.00  0.00    +0.006 A 
ATOM     25  C   UNL     1       2.396   0.029  -0.020  0.00  0.00    -0.018 A 
ATOM     26  C   UNL     1       1.208  -0.679  -0.012  0.00  0.00    +0.006 A 
ATOM     27  C   UNL     1       0.002  -0.004   0.002  0.00  0.00    +0.000 A 
ENDBRANCH  21  25
BRANCH  21  28
ATOM     28  O   UNL     1       3.596  -1.907   0.731  0.00  0.00    -0.386 OA
ATOM     29  H   UNL     1       2.922  -2.519   0.405  0.00  0.00    +0.210 HD
ENDBRANCH  21  28
ENDBRANCH  20  21
ENDBRANCH  16  20
ENDBRANCH   1  17
TORSDOF 6
