REMARK  Name = ZINC49160196
REMARK  8 active torsions:
REMARK  status: ('A' for Active; 'I' for Inactive)
REMARK    1  A    between atoms: C_1  and  C_2
REMARK    2  A    between atoms: C_2  and  C_3
REMARK    3  A    between atoms: C_3  and  C_4
REMARK    4  A    between atoms: C_4  and  C_5
REMARK    5  A    between atoms: C_5  and  N_6
REMARK    6  A    between atoms: N_9  and  N_10
REMARK    7  A    between atoms: C_11  and  C_13
REMARK    8  A    between atoms: N_17  and  C_18
REMARK                            x       y       z     vdW  Elec       q    Type
REMARK                         _______ _______ _______ _____ _____    ______ ____
ROOT
ATOM      1  N   UNL     1      -2.742  -6.772  -0.422  0.00  0.00    -0.228 N 
ATOM      2  C   UNL     1      -2.728  -8.120  -0.412  0.00  0.00    +0.277 C 
ATOM      3  O   UNL     1      -3.773  -8.740  -0.479  0.00  0.00    -0.267 OA
ATOM      4  H   UNL     1      -1.917  -6.277  -0.299  0.00  0.00    +0.173 HD
ENDROOT
BRANCH   2   5
ATOM      5  C   UNL     1      -1.454  -8.838  -0.319  0.00  0.00    +0.108 A 
ATOM      6  C   UNL     1      -0.199  -8.269  -0.273  0.00  0.00    +0.054 A 
ATOM      7  C   UNL     1       0.725  -9.315  -0.187  0.00  0.00    +0.078 A 
ATOM      8  C   UNL     1       0.033 -10.482  -0.181  0.00  0.00    +0.128 A 
ATOM      9  N   UNL     1      -1.294 -10.206  -0.255  0.00  0.00    -0.329 N 
ATOM     10  C   UNL     1      -2.374 -11.195  -0.268  0.00  0.00    +0.150 C 
ATOM     11 CL   UNL     1       0.729 -12.070  -0.087  0.00  0.00    -0.062 Cl
ATOM     12 CL   UNL     1       2.451  -9.150  -0.102  0.00  0.00    -0.080 Cl
ENDBRANCH   2   5
BRANCH   1  16
ATOM     13  N   UNL     1      -2.817  -4.051  -0.451  0.00  0.00    -0.298 N 
ATOM     14  C   UNL     1      -3.963  -4.738  -0.623  0.00  0.00    +0.316 C 
ATOM     15  O   UNL     1      -5.011  -4.143  -0.787  0.00  0.00    -0.251 OA
ATOM     16  N   UNL     1      -3.949  -6.086  -0.612  0.00  0.00    -0.218 N 
ATOM     17  H   UNL     1      -1.981  -4.526  -0.320  0.00  0.00    +0.150 HD
ATOM     18  H   UNL     1      -4.774  -6.581  -0.735  0.00  0.00    +0.174 HD
BRANCH  13  19
ATOM     19  C   UNL     1      -2.832  -2.586  -0.463  0.00  0.00    +0.106 C 
BRANCH  19  20
ATOM     20  C   UNL     1      -1.412  -2.059  -0.249  0.00  0.00    +0.019 C 
BRANCH  20  21
ATOM     21  C   UNL     1      -1.428  -0.529  -0.261  0.00  0.00    +0.001 C 
BRANCH  21  23
ATOM     22  C   UNL     1      -0.024   1.527  -0.059  0.00  0.00    +0.004 C 
ATOM     23  C   UNL     1      -0.007  -0.003  -0.047  0.00  0.00    -0.003 C 
ENDBRANCH  21  23
ENDBRANCH  20  21
ENDBRANCH  19  20
ENDBRANCH  13  19
ENDBRANCH   1  16
TORSDOF 6
