REMARK  Name = ZINC62843840
REMARK  4 active torsions:
REMARK  status: ('A' for Active; 'I' for Inactive)
REMARK    1  A    between atoms: C_1  and  C_2
REMARK    2  A    between atoms: C_2  and  C_20
REMARK    3  A    between atoms: N_10  and  C_11
REMARK    4  A    between atoms: N_15  and  C_17
REMARK                            x       y       z     vdW  Elec       q    Type
REMARK                         _______ _______ _______ _____ _____    ______ ____
ROOT
ATOM      1  C   UNL     1      -0.018   1.521   0.008  0.00  0.00    +0.023 C 
ATOM      2  C   UNL     1       0.002  -0.009   0.001  0.00  0.00    +0.072 C 
ATOM      3  C   UNL     1      -1.434  -0.537   0.011  0.00  0.00    +0.037 C 
ATOM      4  C   UNL     1      -2.159  -0.012   1.254  0.00  0.00    +0.110 C 
ATOM      5  N   UNL     1      -1.376  -0.370   2.444  0.00  0.00    -0.286 N 
ATOM      6  C   UNL     1       0.042   0.011   2.498  0.00  0.00    +0.110 C 
ATOM      7  C   UNL     1       0.742  -0.514   1.241  0.00  0.00    +0.037 C 
ATOM      8  C   UNL     1      -1.947  -1.035   3.468  0.00  0.00    +0.302 C 
ATOM      9  O   UNL     1      -3.141  -1.264   3.452  0.00  0.00    -0.253 OA
ATOM     10  N   UNL     1      -1.195  -1.447   4.508  0.00  0.00    -0.298 N 
ATOM     11  H   UNL     1      -0.258  -1.201   4.556  0.00  0.00    +0.150 HD
ENDROOT
BRANCH  10  12
ATOM     12  C   UNL     1      -1.793  -2.265   5.566  0.00  0.00    +0.056 C 
ATOM     13  C   UNL     1      -2.383  -1.375   6.691  0.00  0.00    +0.002 C 
ATOM     14  C   UNL     1      -2.324  -2.294   7.929  0.00  0.00    -0.077 C 
ATOM     15  N   UNL     1      -1.298  -3.320   7.663  0.00  0.00    +0.383 N 
ATOM     16  C   UNL     1      -0.708  -3.061   6.332  0.00  0.00    -0.056 C 
ATOM     17  H   UNL     1      -1.723  -4.235   7.673  0.00  0.00    -0.081 HD
BRANCH  15  18
ATOM     18  C   UNL     1      -0.252  -3.250   8.691  0.00  0.00    -0.069 C 
ATOM     19  C   UNL     1      -0.129  -4.431   9.655  0.00  0.00    -0.017 C 
ATOM     20  C   UNL     1       0.926  -4.219   8.567  0.00  0.00    -0.017 C 
ENDBRANCH  15  18
ENDBRANCH  10  12
BRANCH   2  21
ATOM     21  C   UNL     1       0.708  -0.496  -1.238  0.00  0.00    +0.362 C 
ATOM     22  O   UNL     1       1.153   0.306  -2.042  0.00  0.00    -0.246 OA
ATOM     23  O   UNL     1       0.833  -1.692  -1.438  0.00  0.00    -0.246 OA
ENDBRANCH   2  21
TORSDOF 3
