REMARK  Name = ZINC56177628
REMARK  10 active torsions:
REMARK  status: ('A' for Active; 'I' for Inactive)
REMARK    1  A    between atoms: C_1  and  C_2
REMARK    2  A    between atoms: N_5  and  C_11
REMARK    3  A    between atoms: C_7  and  C_10
REMARK    4  A    between atoms: C_14  and  N_18
REMARK    5  A    between atoms: N_18  and  C_19
REMARK    6  A    between atoms: C_19  and  C_21
REMARK    7  A    between atoms: C_19  and  C_22
REMARK    8  A    between atoms: N_27  and  C_28
REMARK    9  A    between atoms: C_28  and  C_29
REMARK   10  A    between atoms: C_28  and  C_30
REMARK                            x       y       z     vdW  Elec       q    Type
REMARK                         _______ _______ _______ _____ _____    ______ ____
ROOT
ATOM      1  C   UNL     1       2.796   0.529  -2.201  0.00  0.00    +0.066 A 
ATOM      2  C   UNL     1       2.818   1.917  -2.237  0.00  0.00    +0.028 A 
ATOM      3  C   UNL     1       3.461   2.571  -3.269  0.00  0.00    +0.025 A 
ATOM      4  C   UNL     1       4.088   1.842  -4.272  0.00  0.00    +0.031 A 
ATOM      5  C   UNL     1       4.067   0.454  -4.237  0.00  0.00    +0.063 A 
ATOM      6  C   UNL     1       3.428  -0.202  -3.202  0.00  0.00    +0.146 A 
ATOM      7  F   UNL     1       3.411  -1.552  -3.164  0.00  0.00    -0.203 F 
ENDROOT
BRANCH   1  11
ATOM      8  C   UNL     1      -0.019   1.526   0.010  0.00  0.00    +0.039 C 
ATOM      9  C   UNL     1       0.002  -0.004   0.002  0.00  0.00    +0.133 C 
ATOM     10  C   UNL     1       0.722  -0.499  -1.258  0.00  0.00    +0.136 C 
ATOM     11  N   UNL     1       2.143  -0.135  -1.154  0.00  0.00    -0.323 N 
ATOM     12  C   UNL     1       2.860  -0.488   0.082  0.00  0.00    +0.136 C 
ATOM     13  C   UNL     1       2.036   0.007   1.277  0.00  0.00    +0.133 C 
ATOM     14  O   UNL     1       0.695  -0.479   1.159  0.00  0.00    -0.371 OA
ATOM     15  C   UNL     1       2.656  -0.513   2.575  0.00  0.00    +0.039 C 
ENDBRANCH   1  11
BRANCH   4  16
ATOM     16  N   UNL     1       4.739   2.507  -5.317  0.00  0.00    -0.333 N 
ATOM     17  H   UNL     1       4.753   3.476  -5.342  0.00  0.00    +0.147 HD
BRANCH  16  18
ATOM     18  C   UNL     1       5.400   1.738  -6.375  0.00  0.00    +0.154 C 
ATOM     19  C   UNL     1       4.376   1.362  -7.448  0.00  0.00    +0.038 C 
BRANCH  18  20
ATOM     20  C   UNL     1       6.493   2.571  -6.994  0.00  0.00    +0.240 C 
ATOM     21  O   UNL     1       6.700   3.695  -6.591  0.00  0.00    -0.273 OA
ATOM     22  N   UNL     1       7.241   2.065  -7.995  0.00  0.00    -0.239 N 
ATOM     23  C   UNL     1       8.218   2.810  -8.548  0.00  0.00    +0.306 C 
ATOM     24  O   UNL     1       8.425   3.937  -8.144  0.00  0.00    -0.252 OA
ATOM     25  N   UNL     1       8.966   2.304  -9.549  0.00  0.00    -0.297 N 
ATOM     26  H   UNL     1       7.075   1.165  -8.317  0.00  0.00    +0.159 HD
ATOM     27  H   UNL     1       8.800   1.405  -9.871  0.00  0.00    +0.151 HD
BRANCH  25  28
ATOM     28  C   UNL     1      10.028   3.114 -10.150  0.00  0.00    +0.068 C 
ATOM     29  C   UNL     1      11.307   2.975  -9.322  0.00  0.00    +0.027 C 
ATOM     30  C   UNL     1      10.291   2.631 -11.578  0.00  0.00    +0.027 C 
ENDBRANCH  25  28
ENDBRANCH  18  20
ENDBRANCH  16  18
ENDBRANCH   4  16
TORSDOF 5
