REMARK  Name = ZINC45019461
REMARK  8 active torsions:
REMARK  status: ('A' for Active; 'I' for Inactive)
REMARK    1  A    between atoms: C_1  and  C_2
REMARK    2  A    between atoms: C_2  and  C_4
REMARK    3  A    between atoms: C_2  and  S_17
REMARK    4  A    between atoms: N_6  and  C_7
REMARK    5  A    between atoms: C_7  and  C_8
REMARK    6  A    between atoms: C_11  and  S_13
REMARK    7  A    between atoms: S_13  and  N_16
REMARK    8  A    between atoms: S_17  and  C_20
REMARK                            x       y       z     vdW  Elec       q    Type
REMARK                         _______ _______ _______ _____ _____    ______ ____
ROOT
ATOM      1  C   UNL     1       2.787  -1.004   2.431  0.00  0.00    +0.146 C 
ENDROOT
BRANCH   1   2
ATOM      2  C   UNL     1       4.274  -0.917   2.199  0.00  0.00    +0.009 A 
ATOM      3  C   UNL     1       5.121   0.105   2.469  0.00  0.00    +0.015 A 
ATOM      4  C   UNL     1       6.463  -0.039   2.168  0.00  0.00    +0.036 A 
ATOM      5  C   UNL     1       6.891  -1.199   1.613  0.00  0.00    +0.142 A 
ATOM      6  S   UNL     1       5.376  -2.138   1.505  0.00  0.00    -0.072 S 
BRANCH   5   7
ATOM      7  S   UNL     1       8.520  -1.663   1.129  0.00  0.00    +0.062 S 
ATOM      8  O   UNL     1       8.378  -2.669   0.135  0.00  0.00    -0.153 OA
ATOM      9  O   UNL     1       9.233  -0.456   0.894  0.00  0.00    -0.153 OA
BRANCH   7  10
ATOM     10  N   UNL     1       9.232  -2.387   2.437  0.00  0.00    -0.203 NA
ATOM     11  H   UNL     1       8.739  -2.481   3.267  0.00  0.00    +0.144 HD
ATOM     12  H   UNL     1      10.142  -2.717   2.373  0.00  0.00    +0.144 HD
ENDBRANCH   7  10
ENDBRANCH   5   7
ENDBRANCH   1   2
BRANCH   1  15
ATOM     13  C   UNL     1       0.731  -0.503   1.223  0.00  0.00    +0.237 C 
ATOM     14  O   UNL     1       0.105  -0.891   2.187  0.00  0.00    -0.274 OA
ATOM     15  N   UNL     1       2.079  -0.519   1.244  0.00  0.00    -0.309 N 
ATOM     16  H   UNL     1       2.579  -0.208   0.473  0.00  0.00    +0.149 HD
BRANCH  13  18
ATOM     17  C   UNL     1      -0.019   1.526   0.010  0.00  0.00    +0.042 C 
ATOM     18  C   UNL     1       0.002  -0.004   0.002  0.00  0.00    +0.212 C 
BRANCH  18  19
ATOM     19  S   UNL     1      -1.700  -0.632   0.015  0.00  0.00    -0.023 S 
ATOM     20  O   UNL     1      -1.658  -2.046  -0.118  0.00  0.00    -0.174 OA
ATOM     21  O   UNL     1      -2.381  -0.062   1.124  0.00  0.00    -0.174 OA
ATOM     22  C   UNL     1      -2.397   0.068  -1.507  0.00  0.00    +0.194 C 
ENDBRANCH  18  19
ENDBRANCH  13  18
ENDBRANCH   1  15
TORSDOF 6
