REMARK  Name = ZINC63640868
REMARK  11 active torsions:
REMARK  status: ('A' for Active; 'I' for Inactive)
REMARK    1  A    between atoms: C_1  and  C_2
REMARK    2  A    between atoms: C_2  and  C_3
REMARK    3  A    between atoms: C_2  and  O_4
REMARK    4  A    between atoms: O_4  and  C_5
REMARK    5  A    between atoms: C_8  and  C_25
REMARK    6  A    between atoms: C_10  and  N_11
REMARK    7  A    between atoms: N_11  and  C_12
REMARK    8  A    between atoms: C_12  and  C_13
REMARK    9  A    between atoms: C_12  and  C_14
REMARK   10  A    between atoms: N_16  and  C_17
REMARK   11  A    between atoms: C_18  and  C_22
REMARK                            x       y       z     vdW  Elec       q    Type
REMARK                         _______ _______ _______ _____ _____    ______ ____
ROOT
ATOM      1  C   UNL     1       2.839  -1.507  -4.664  0.00  0.00    +0.154 C 
ATOM      2  C   UNL     1       3.314  -0.233  -5.366  0.00  0.00    +0.038 C 
ENDROOT
BRANCH   1   3
ATOM      3  C   UNL     1       1.959  -2.297  -5.598  0.00  0.00    +0.238 C 
ATOM      4  O   UNL     1       0.810  -2.536  -5.291  0.00  0.00    -0.273 OA
ATOM      5  N   UNL     1       2.448  -2.737  -6.774  0.00  0.00    -0.278 N 
ATOM      6  H   UNL     1       3.367  -2.545  -7.019  0.00  0.00    +0.155 HD
BRANCH   5   7
ATOM      7  C   UNL     1       1.638  -3.464  -7.633  0.00  0.00    +0.084 A 
ATOM      8  C   UNL     1       1.970  -3.997  -8.870  0.00  0.00    +0.065 A 
ATOM      9  C   UNL     1       0.926  -4.718  -9.564  0.00  0.00    +0.022 A 
ATOM     10  C   UNL     1      -0.258  -4.791  -8.928  0.00  0.00    +0.048 A 
ATOM     11  S   UNL     1       0.035  -3.906  -7.412  0.00  0.00    -0.081 S 
BRANCH   8  12
ATOM     12  C   UNL     1       3.309  -3.838  -9.444  0.00  0.00    +0.244 C 
ATOM     13  O   UNL     1       4.165  -3.225  -8.833  0.00  0.00    -0.270 OA
ATOM     14  N   UNL     1       3.594  -4.371 -10.649  0.00  0.00    -0.325 N 
ATOM     15  H   UNL     1       2.912  -4.860 -11.136  0.00  0.00    +0.145 HD
ATOM     16  H   UNL     1       4.480  -4.266 -11.029  0.00  0.00    +0.145 HD
ENDBRANCH   8  12
ENDBRANCH   5   7
ENDBRANCH   1   3
BRANCH   1  17
ATOM     17  N   UNL     1       2.079  -1.147  -3.464  0.00  0.00    -0.330 N 
ATOM     18  H   UNL     1       1.112  -1.085  -3.503  0.00  0.00    +0.147 HD
BRANCH  17  24
ATOM     19  C   UNL     1       2.026  -0.553  -1.118  0.00  0.00    +0.142 A 
ATOM     20  C   UNL     1       2.686  -0.308   0.077  0.00  0.00    +0.049 A 
ATOM     21  C   UNL     1       4.061  -0.395   0.140  0.00  0.00    +0.022 A 
ATOM     22  C   UNL     1       4.793  -0.732  -1.002  0.00  0.00    +0.054 A 
ATOM     23  C   UNL     1       4.128  -0.979  -2.206  0.00  0.00    +0.045 A 
ATOM     24  C   UNL     1       2.749  -0.895  -2.261  0.00  0.00    +0.071 A 
BRANCH  22  25
ATOM     25  C   UNL     1       6.220  -0.822  -0.938  0.00  0.00    +0.099 C 
ATOM     26  N   UNL     1       7.353  -0.894  -0.887  0.00  0.00    -0.191 NA
ENDBRANCH  22  25
BRANCH  19  27
ATOM     27  O   UNL     1       0.671  -0.465  -1.174  0.00  0.00    -0.488 OA
BRANCH  27  29
ATOM     28  C   UNL     1      -0.049   1.266   0.351  0.00  0.00    +0.051 C 
ATOM     29  C   UNL     1      -0.016  -0.235   0.058  0.00  0.00    +0.167 C 
ATOM     30  C   UNL     1      -1.447  -0.766  -0.049  0.00  0.00    +0.051 C 
ENDBRANCH  27  29
ENDBRANCH  19  27
ENDBRANCH  17  24
ENDBRANCH   1  17
TORSDOF 8
