REMARK  Name = ZINC37995925
REMARK  5 active torsions:
REMARK  status: ('A' for Active; 'I' for Inactive)
REMARK    1  A    between atoms: C_1  and  C_2
REMARK    2  A    between atoms: C_5  and  C_7
REMARK    3  A    between atoms: C_7  and  C_9
REMARK    4  A    between atoms: C_7  and  N_10
REMARK    5  A    between atoms: C_11  and  C_13
REMARK                            x       y       z     vdW  Elec       q    Type
REMARK                         _______ _______ _______ _____ _____    ______ ____
ROOT
ATOM      1  N   UNL     1       2.811  -2.961  -0.914  0.00  0.00    -0.302 N 
ATOM      2  C   UNL     1       3.494  -3.975  -1.482  0.00  0.00    +0.245 C 
ATOM      3  O   UNL     1       3.174  -5.126  -1.254  0.00  0.00    -0.270 OA
ATOM      4  H   UNL     1       3.066  -2.043  -1.096  0.00  0.00    +0.150 HD
ENDROOT
BRANCH   2   5
ATOM      5  C   UNL     1       4.628  -3.689  -2.379  0.00  0.00    +0.046 A 
ATOM      6  C   UNL     1       5.004  -2.373  -2.640  0.00  0.00    +0.014 A 
ATOM      7  C   UNL     1       6.068  -2.108  -3.482  0.00  0.00    +0.003 A 
ATOM      8  C   UNL     1       6.775  -3.135  -4.076  0.00  0.00    +0.026 A 
ATOM      9  C   UNL     1       6.424  -4.458  -3.834  0.00  0.00    +0.047 A 
ATOM     10  C   UNL     1       5.346  -4.744  -2.976  0.00  0.00    +0.012 A 
ATOM     11  C   UNL     1       5.242  -6.199  -2.927  0.00  0.00    +0.028 A 
ATOM     12  C   UNL     1       6.216  -6.691  -3.715  0.00  0.00    +0.083 A 
ATOM     13  N   UNL     1       6.926  -5.665  -4.271  0.00  0.00    -0.361 N 
ATOM     14  H   UNL     1       7.678  -5.771  -4.874  0.00  0.00    +0.165 HD
ENDBRANCH   2   5
BRANCH   1  15
ATOM     15  C   UNL     1       1.684  -3.245  -0.023  0.00  0.00    +0.136 C 
ATOM     16  C   UNL     1       2.205  -3.494   1.394  0.00  0.00    +0.036 C 
BRANCH  15  21
ATOM     17  C   UNL     1      -0.018   1.503   0.010  0.00  0.00    +0.086 C 
ATOM     18  C   UNL     1       0.002  -0.004   0.002  0.00  0.00    +0.102 A 
ATOM     19  C   UNL     1      -1.078  -0.805   0.003  0.00  0.00    +0.045 A 
ATOM     20  C   UNL     1      -0.601  -2.136  -0.007  0.00  0.00    +0.047 A 
ATOM     21  C   UNL     1       0.742  -2.069  -0.013  0.00  0.00    +0.125 A 
ATOM     22  O   UNL     1       1.102  -0.775  -0.013  0.00  0.00    -0.463 OA
ENDBRANCH  15  21
ENDBRANCH   1  15
TORSDOF 3
