REMARK  Name = ZINC54055456
REMARK  5 active torsions:
REMARK  status: ('A' for Active; 'I' for Inactive)
REMARK    1  A    between atoms: C_1  and  C_2
REMARK    2  A    between atoms: C_2  and  C_4
REMARK    3  A    between atoms: C_2  and  N_7
REMARK    4  A    between atoms: N_7  and  C_8
REMARK    5  A    between atoms: N_11  and  C_12
REMARK                            x       y       z     vdW  Elec       q    Type
REMARK                         _______ _______ _______ _____ _____    ______ ____
ROOT
ATOM      1  N   UNL     1       0.711  -0.489   1.189  0.00  0.00    -0.275 N 
ATOM      2  C   UNL     1       0.218  -0.149   2.526  0.00  0.00    +0.134 C 
ATOM      3  C   UNL     1       1.816  -1.249   1.051  0.00  0.00    +0.303 C 
ATOM      4  O   UNL     1       2.224  -1.531  -0.059  0.00  0.00    -0.253 OA
ATOM      5  N   UNL     1       2.467  -1.695   2.143  0.00  0.00    -0.298 N 
ATOM      6  H   UNL     1       2.141  -1.470   3.028  0.00  0.00    +0.150 HD
ENDROOT
BRANCH   5   7
ATOM      7  C   UNL     1       3.669  -2.520   1.992  0.00  0.00    +0.059 C 
ATOM      8  C   UNL     1       4.944  -1.636   1.918  0.00  0.00    +0.002 C 
ATOM      9  C   UNL     1       6.009  -2.400   2.743  0.00  0.00    -0.077 C 
ATOM     10  N   UNL     1       5.378  -3.658   3.145  0.00  0.00    +0.383 N 
ATOM     11  C   UNL     1       3.928  -3.350   3.261  0.00  0.00    -0.048 C 
ATOM     12  C   UNL     1       3.180  -4.676   3.287  0.00  0.00    -0.014 C 
ATOM     13  C   UNL     1       3.617  -5.428   4.554  0.00  0.00    -0.003 C 
ATOM     14  C   UNL     1       5.137  -5.584   4.589  0.00  0.00    -0.019 C 
ATOM     15  C   UNL     1       5.829  -4.223   4.408  0.00  0.00    -0.078 C 
ATOM     16  H   UNL     1       5.502  -4.341   2.412  0.00  0.00    -0.081 HD
ENDBRANCH   5   7
BRANCH   1  18
ATOM     17  C   UNL     1      -0.019   1.526   0.010  0.00  0.00    +0.040 C 
ATOM     18  C   UNL     1       0.002  -0.004   0.002  0.00  0.00    +0.187 C 
BRANCH  18  19
ATOM     19  C   UNL     1      -1.412  -0.526   0.013  0.00  0.00    +0.376 C 
ATOM     20  O   UNL     1      -2.118  -0.393  -0.972  0.00  0.00    -0.244 OA
ATOM     21  O   UNL     1      -1.849  -1.081   1.006  0.00  0.00    -0.244 OA
ENDBRANCH  18  19
ENDBRANCH   1  18
TORSDOF 3
