REMARK  Name = ZINC41025859
REMARK  5 active torsions:
REMARK  status: ('A' for Active; 'I' for Inactive)
REMARK    1  A    between atoms: C_1  and  C_2
REMARK    2  A    between atoms: C_2  and  C_3
REMARK    3  A    between atoms: C_6  and  N_9
REMARK    4  A    between atoms: N_9  and  C_10
REMARK    5  A    between atoms: C_10  and  C_11
REMARK                            x       y       z     vdW  Elec       q    Type
REMARK                         _______ _______ _______ _____ _____    ______ ____
ROOT
ATOM      1  N   UNL     1       2.657  -1.834  -4.664  0.00  0.00    -0.279 N 
ATOM      2  C   UNL     1       1.924  -2.162  -5.795  0.00  0.00    +0.155 A 
ATOM      3  C   UNL     1       1.730  -1.229  -6.815  0.00  0.00    +0.126 A 
ATOM      4  C   UNL     1       0.980  -1.609  -7.941  0.00  0.00    +0.183 A 
ATOM      5  N   UNL     1       0.943  -0.544  -8.763  0.00  0.00    -0.216 NA
ATOM      6  H   UNL     1       2.639   0.630  -6.437  0.00  0.00    +0.167 HD
ATOM      7  C   UNL     1       1.605   0.446  -8.232  0.00  0.00    +0.199 A 
ATOM      8  N   UNL     1       2.110   0.078  -7.032  0.00  0.00    -0.340 N 
ATOM      9  N   UNL     1       0.482  -2.849  -7.990  0.00  0.00    -0.214 NA
ATOM     10  C   UNL     1       0.691  -3.694  -7.005  0.00  0.00    +0.225 A 
ATOM     11  N   UNL     1       1.396  -3.375  -5.934  0.00  0.00    -0.218 NA
ENDROOT
BRANCH   1  15
ATOM     12  C   UNL     1       0.707  -0.492  -1.237  0.00  0.00    -0.048 A 
ATOM     13  C   UNL     1      -0.011  -0.714  -2.397  0.00  0.00    +0.005 A 
ATOM     14  C   UNL     1       0.632  -1.159  -3.536  0.00  0.00    +0.024 A 
ATOM     15  C   UNL     1       2.002  -1.383  -3.514  0.00  0.00    +0.036 A 
ATOM     16  C   UNL     1       2.721  -1.160  -2.347  0.00  0.00    +0.024 A 
ATOM     17  C   UNL     1       2.073  -0.710  -1.214  0.00  0.00    +0.005 A 
BRANCH  12  19
ATOM     18  C   UNL     1      -0.013   1.523   0.016  0.00  0.00    +0.009 C 
ATOM     19  C   UNL     1       0.002  -0.007   0.003  0.00  0.00    +0.032 C 
ENDBRANCH  12  19
ENDBRANCH   1  15
BRANCH   1  20
ATOM     20  C   UNL     1       4.116  -1.958  -4.675  0.00  0.00    +0.154 C 
BRANCH  20  21
ATOM     21  C   UNL     1       4.506  -3.341  -4.218  0.00  0.00    +0.007 A 
ATOM     22  C   UNL     1       4.695  -4.462  -4.955  0.00  0.00    +0.013 A 
ATOM     23  C   UNL     1       5.054  -5.633  -4.314  0.00  0.00    +0.008 A 
ATOM     24  C   UNL     1       5.207  -5.625  -2.967  0.00  0.00    +0.045 A 
ATOM     25  S   UNL     1       4.845  -3.924  -2.565  0.00  0.00    -0.100 S 
ENDBRANCH  20  21
ENDBRANCH   1  20
TORSDOF 4
