REMARK  Name = ZINC36142241
REMARK  4 active torsions:
REMARK  status: ('A' for Active; 'I' for Inactive)
REMARK    1  A    between atoms: C_1  and  C_2
REMARK    2  A    between atoms: C_2  and  C_17
REMARK    3  A    between atoms: C_4  and  C_13
REMARK    4  A    between atoms: C_4  and  N_16
REMARK                            x       y       z     vdW  Elec       q    Type
REMARK                         _______ _______ _______ _____ _____    ______ ____
ROOT
ATOM      1  C   UNL     1       0.813   0.982   0.379  0.00  0.00    +0.055 C 
ATOM      2  C   UNL     1       0.403  -0.483   0.214  0.00  0.00    +0.105 C 
ATOM      3  C   UNL     1      -1.124  -0.582   0.106  0.00  0.00    +0.050 C 
ATOM      4  C   UNL     1      -1.492  -2.043  -0.168  0.00  0.00    +0.065 C 
ATOM      5  C   UNL     1      -0.760  -2.941   0.796  0.00  0.00    -0.005 A 
ATOM      6  C   UNL     1      -1.217  -4.236   0.979  0.00  0.00    +0.026 A 
ATOM      7  C   UNL     1      -0.568  -5.087   1.853  0.00  0.00    +0.041 A 
ATOM      8  C   UNL     1       0.544  -4.647   2.549  0.00  0.00    +0.023 A 
ATOM      9  C   UNL     1       1.002  -3.358   2.371  0.00  0.00    +0.047 A 
ATOM     10  C   UNL     1       0.349  -2.497   1.494  0.00  0.00    +0.124 A 
ATOM     11  O   UNL     1       0.824  -1.232   1.355  0.00  0.00    -0.486 OA
ATOM     12 CL   UNL     1      -1.147  -6.708   2.076  0.00  0.00    -0.084 Cl
ATOM     13  C   UNL     1       1.048  -1.060  -1.048  0.00  0.00    +0.055 C 
ENDROOT
BRANCH   4  14
ATOM     14  N   UNL     1      -1.115  -2.392  -1.544  0.00  0.00    +0.392 N 
ATOM     15  H   UNL     1      -0.436  -1.728  -1.885  0.00  0.00    -0.088 HD
ATOM     16  H   UNL     1      -0.716  -3.318  -1.558  0.00  0.00    -0.088 HD
ATOM     17  H   UNL     1      -1.934  -2.369  -2.133  0.00  0.00    -0.088 HD
ENDBRANCH   4  14
BRANCH   4  18
ATOM     18  C   UNL     1      -2.978  -2.226   0.005  0.00  0.00    +0.349 C 
ATOM     19  O   UNL     1      -3.658  -2.614  -0.930  0.00  0.00    -0.248 OA
ATOM     20  O   UNL     1      -3.501  -1.987   1.081  0.00  0.00    -0.248 OA
ENDBRANCH   4  18
TORSDOF 2
