REMARK  Name = ZINC16740791
REMARK  8 active torsions:
REMARK  status: ('A' for Active; 'I' for Inactive)
REMARK    1  A    between atoms: C_1  and  C_2
REMARK    2  A    between atoms: C_2  and  C_3
REMARK    3  A    between atoms: C_4  and  C_21
REMARK    4  A    between atoms: C_5  and  C_13
REMARK    5  A    between atoms: C_16  and  O_20
REMARK    6  A    between atoms: C_17  and  O_19
REMARK    7  A    between atoms: C_21  and  O_23
REMARK    8  A    between atoms: O_23  and  C_24
REMARK                            x       y       z     vdW  Elec       q    Type
REMARK                         _______ _______ _______ _____ _____    ______ ____
ROOT
ATOM      1  C   UNL     1       0.725   5.522  -0.155  0.00  0.00    +0.023 C 
ATOM      2  C   UNL     1      -0.616   5.533  -0.109  0.00  0.00    +0.082 C 
ATOM      3  C   UNL     1      -1.441   4.289   0.090  0.00  0.00    +0.179 C 
ATOM      4  N   UNL     1      -0.593   3.112  -0.074  0.00  0.00    -0.221 N 
ATOM      5  C   UNL     1       0.761   3.164  -0.125  0.00  0.00    +0.218 A 
ATOM      6  N   UNL     1       1.206   1.946  -0.269  0.00  0.00    -0.201 NA
ATOM      7  C   UNL     1       0.175   1.096  -0.318  0.00  0.00    +0.247 A 
ATOM      8  N   UNL     1      -0.944   1.770  -0.209  0.00  0.00    -0.156 NA
ATOM      9  N   UNL     1       1.452   4.365  -0.035  0.00  0.00    -0.287 N 
ATOM     10  H   UNL     1       2.411   4.385   0.108  0.00  0.00    +0.155 HD
ENDROOT
BRANCH   3  11
ATOM     11  C   UNL     1      -2.031   4.294   1.477  0.00  0.00    -0.015 A 
ATOM     12  C   UNL     1      -1.199   4.319   2.580  0.00  0.00    +0.010 A 
ATOM     13  C   UNL     1      -1.735   4.330   3.854  0.00  0.00    +0.049 A 
ATOM     14  C   UNL     1      -3.110   4.303   4.027  0.00  0.00    +0.158 A 
ATOM     15  C   UNL     1      -3.947   4.272   2.917  0.00  0.00    +0.159 A 
ATOM     16  C   UNL     1      -3.403   4.268   1.643  0.00  0.00    +0.055 A 
BRANCH  15  17
ATOM     17  O   UNL     1      -5.297   4.247   3.082  0.00  0.00    -0.503 OA
ATOM     18  H   UNL     1      -5.670   3.357   3.140  0.00  0.00    +0.292 HD
ENDBRANCH  15  17
BRANCH  14  19
ATOM     19  O   UNL     1      -3.639   4.308   5.280  0.00  0.00    -0.503 OA
ATOM     20  H   UNL     1      -3.773   3.425   5.653  0.00  0.00    +0.292 HD
ENDBRANCH  14  19
ENDBRANCH   3  11
BRANCH   1  22
ATOM     21  C   UNL     1       1.818   7.412   1.020  0.00  0.00    +0.010 C 
ATOM     22  C   UNL     1       1.457   6.826  -0.346  0.00  0.00    +0.048 C 
ENDBRANCH   1  22
BRANCH   2  23
ATOM     23  C   UNL     1      -1.286   6.768  -0.254  0.00  0.00    +0.339 C 
ATOM     24  O   UNL     1      -1.699   7.355   0.728  0.00  0.00    -0.245 OA
BRANCH  23  25
ATOM     25  O   UNL     1      -1.466   7.298  -1.482  0.00  0.00    -0.465 OA
ATOM     26  C   UNL     1      -2.151   8.550  -1.555  0.00  0.00    +0.280 C 
ENDBRANCH  23  25
ENDBRANCH   2  23
TORSDOF 6
