REMARK  Name = ZINC11013146
REMARK  10 active torsions:
REMARK  status: ('A' for Active; 'I' for Inactive)
REMARK    1  A    between atoms: C_1  and  C_2
REMARK    2  A    between atoms: C_5  and  C_7
REMARK    3  A    between atoms: C_7  and  C_8
REMARK    4  A    between atoms: N_10  and  N_11
REMARK    5  A    between atoms: C_12  and  C_14
REMARK    6  A    between atoms: C_14  and  N_45
REMARK    7  A    between atoms: C_15  and  N_45
REMARK    8  A    between atoms: C_16  and  C_17
REMARK    9  A    between atoms: C_16  and  N_45
REMARK   10  A    between atoms: C_19  and  N_24
REMARK                            x       y       z     vdW  Elec       q    Type
REMARK                         _______ _______ _______ _____ _____    ______ ____
ROOT
ATOM      1  N   UNL     1      -6.798   0.106   3.640  0.00  0.00    -0.236 N 
ATOM      2  C   UNL     1      -8.125   0.128   3.874  0.00  0.00    +0.213 C 
ATOM      3  O   UNL     1      -8.753   1.152   3.709  0.00  0.00    -0.276 OA
ATOM      4  H   UNL     1      -6.295  -0.714   3.772  0.00  0.00    +0.173 HD
ENDROOT
BRANCH   1   7
ATOM      5  C   UNL     1      -4.816   1.244   2.973  0.00  0.00    +0.235 C 
ATOM      6  O   UNL     1      -4.188   0.220   3.138  0.00  0.00    -0.274 OA
ATOM      7  N   UNL     1      -6.143   1.266   3.207  0.00  0.00    -0.234 N 
ATOM      8  H   UNL     1      -6.646   2.086   3.075  0.00  0.00    +0.173 HD
BRANCH   5   9
ATOM      9  C   UNL     1      -4.112   2.493   2.506  0.00  0.00    +0.160 C 
BRANCH   9  14
ATOM     10  C   UNL     1      -0.013   1.086   0.008  0.00  0.00    +0.066 C 
ATOM     11  C   UNL     1      -0.718   1.572   1.248  0.00  0.00    +0.046 A 
ATOM     12  C   UNL     1      -0.028   1.807   2.393  0.00  0.00    +0.070 A 
ATOM     13  S   UNL     1      -1.351   2.342   3.469  0.00  0.00    -0.080 S 
ATOM     14  C   UNL     1      -2.646   2.202   2.320  0.00  0.00    +0.087 A 
ATOM     15  N   UNL     1      -2.017   1.784   1.245  0.00  0.00    -0.249 NA
ENDBRANCH   9  14
ENDBRANCH   5   9
ENDBRANCH   1   7
BRANCH   2  16
ATOM     16  C   UNL     1      -8.829  -1.120   4.341  0.00  0.00    +0.020 C 
BRANCH  16  18
ATOM     17  C   UNL     1     -10.902  -0.533   3.238  0.00  0.00    -0.095 C 
ATOM     18  N   UNL     1     -10.261  -0.814   4.539  0.00  0.00    +0.386 N 
ATOM     19  H   UNL     1     -10.345   0.015   5.139  0.00  0.00    -0.081 HD
BRANCH  18  20
ATOM     20  C   UNL     1     -10.934  -1.953   5.198  0.00  0.00    -0.041 C 
BRANCH  20  21
ATOM     21  C   UNL     1     -12.329  -1.534   5.587  0.00  0.00    -0.043 A 
ATOM     22  C   UNL     1     -13.415  -1.995   4.865  0.00  0.00    +0.036 A 
ATOM     23  C   UNL     1     -14.694  -1.615   5.224  0.00  0.00    +0.126 A 
ATOM     24  C   UNL     1     -14.889  -0.767   6.299  0.00  0.00    +0.034 A 
ATOM     25  C   UNL     1     -13.803  -0.301   7.017  0.00  0.00    +0.022 A 
ATOM     26  C   UNL     1     -12.523  -0.685   6.661  0.00  0.00    +0.042 A 
ATOM     27 CL   UNL     1     -11.159  -0.101   7.563  0.00  0.00    -0.083 Cl
BRANCH  23  28
ATOM     28  N   UNL     1     -15.857  -2.113   4.455  0.00  0.00    +0.056 N 
ATOM     29  O   UNL     1     -16.984  -1.775   4.768  0.00  0.00    -0.126 OA
ATOM     30  O   UNL     1     -15.686  -2.861   3.509  0.00  0.00    -0.126 OA
ENDBRANCH  23  28
ENDBRANCH  20  21
ENDBRANCH  18  20
ENDBRANCH  16  18
ENDBRANCH   2  16
TORSDOF 8
