REMARK  Name = ZINC26865367
REMARK  5 active torsions:
REMARK  status: ('A' for Active; 'I' for Inactive)
REMARK    1  A    between atoms: C_8  and  C_11
REMARK    2  A    between atoms: C_11  and  N_12
REMARK    3  A    between atoms: N_12  and  S_13
REMARK    4  A    between atoms: S_13  and  C_16
REMARK    5  A    between atoms: C_21  and  N_22
REMARK                            x       y       z     vdW  Elec       q    Type
REMARK                         _______ _______ _______ _____ _____    ______ ____
ROOT
ATOM      1  S   UNL     1       6.474  -3.927   0.809  0.00  0.00    +0.061 S 
ATOM      2  O   UNL     1       7.790  -3.686   0.330  0.00  0.00    -0.153 OA
ATOM      3  O   UNL     1       6.060  -3.560   2.118  0.00  0.00    -0.153 OA
ENDROOT
BRANCH   1   4
ATOM      4  C   UNL     1       6.193  -5.660   0.659  0.00  0.00    +0.135 A 
ATOM      5  C   UNL     1       5.724  -6.380   1.743  0.00  0.00    +0.032 A 
ATOM      6  C   UNL     1       5.503  -7.739   1.626  0.00  0.00    +0.022 A 
ATOM      7  C   UNL     1       5.751  -8.379   0.425  0.00  0.00    +0.043 A 
ATOM      8  C   UNL     1       6.220  -7.659  -0.659  0.00  0.00    +0.054 A 
ATOM      9  C   UNL     1       6.436  -6.298  -0.542  0.00  0.00    +0.154 A 
ATOM     10 CL   UNL     1       5.474 -10.087   0.278  0.00  0.00    -0.083 Cl
BRANCH   9  11
ATOM     11  N   UNL     1       6.933  -5.526  -1.703  0.00  0.00    +0.058 N 
ATOM     12  O   UNL     1       7.268  -6.100  -2.713  0.00  0.00    -0.126 OA
ATOM     13  O   UNL     1       7.003  -4.320  -1.641  0.00  0.00    -0.126 OA
ENDBRANCH   9  11
ENDBRANCH   1   4
BRANCH   1  14
ATOM     14  N   UNL     1       5.442  -3.171  -0.243  0.00  0.00    -0.186 NA
ATOM     15  H   UNL     1       5.797  -2.648  -0.979  0.00  0.00    +0.148 HD
BRANCH  14  16
ATOM     16  C   UNL     1       3.993  -3.292  -0.062  0.00  0.00    +0.150 C 
BRANCH  16  24
ATOM     17  C   UNL     1       0.035   1.163  -0.801  0.00  0.00    +0.000 A 
ATOM     18  C   UNL     1       1.178   1.916  -0.602  0.00  0.00    +0.004 A 
ATOM     19  C   UNL     1       2.400   1.298  -0.437  0.00  0.00    +0.046 A 
ATOM     20  C   UNL     1       2.494  -0.091  -0.471  0.00  0.00    +0.124 A 
ATOM     21  C   UNL     1       1.341  -0.836  -0.679  0.00  0.00    -0.002 A 
ATOM     22  C   UNL     1       0.121  -0.218  -0.839  0.00  0.00    +0.007 A 
ATOM     23  C   UNL     1       1.752  -2.296  -0.691  0.00  0.00    +0.084 C 
ATOM     24  C   UNL     1       3.286  -2.196  -0.861  0.00  0.00    +0.193 C 
ATOM     25  O   UNL     1       3.582  -0.896  -0.321  0.00  0.00    -0.487 OA
ENDBRANCH  16  24
ENDBRANCH  14  16
ENDBRANCH   1  14
TORSDOF 5
