REMARK  Name = ZINC02850641
REMARK  12 active torsions:
REMARK  status: ('A' for Active; 'I' for Inactive)
REMARK    1  A    between atoms: C_1  and  C_2
REMARK    2  A    between atoms: C_5  and  S_19
REMARK    3  A    between atoms: C_7  and  O_8
REMARK    4  A    between atoms: O_8  and  C_9
REMARK    5  A    between atoms: C_9  and  C_10
REMARK    6  A    between atoms: N_12  and  C_13
REMARK    7  A    between atoms: S_19  and  N_22
REMARK    8  A    between atoms: N_22  and  C_23
REMARK    9  A    between atoms: C_23  and  C_25
REMARK   10  A    between atoms: C_23  and  C_28
REMARK   11  A    between atoms: C_25  and  C_26
REMARK   12  A    between atoms: C_25  and  C_27
REMARK                            x       y       z     vdW  Elec       q    Type
REMARK                         _______ _______ _______ _____ _____    ______ ____
ROOT
ATOM      1  C   UNL     1      -0.226   1.562  -0.871  0.00  0.00    +0.047 C 
ATOM      2  C   UNL     1      -0.158   0.068  -0.679  0.00  0.00    -0.007 A 
ATOM      3  C   UNL     1      -0.250  -0.773  -1.771  0.00  0.00    +0.029 A 
ATOM      4  C   UNL     1      -0.187  -2.144  -1.596  0.00  0.00    +0.068 A 
ATOM      5  C   UNL     1      -0.032  -2.675  -0.328  0.00  0.00    +0.127 A 
ATOM      6  C   UNL     1       0.061  -1.837   0.766  0.00  0.00    +0.076 A 
ATOM      7  C   UNL     1       0.004  -0.462   0.592  0.00  0.00    +0.126 A 
ATOM      8 CL   UNL     1      -0.303  -3.200  -2.970  0.00  0.00    -0.082 Cl
ENDROOT
BRANCH   5   9
ATOM      9  S   UNL     1       0.047  -4.422  -0.108  0.00  0.00    +0.061 S 
ATOM     10  O   UNL     1       1.000  -4.906  -1.044  0.00  0.00    -0.153 OA
ATOM     11  O   UNL     1       0.168  -4.650   1.289  0.00  0.00    -0.153 OA
BRANCH   9  12
ATOM     12  N   UNL     1      -1.420  -5.040  -0.564  0.00  0.00    -0.176 NA
ATOM     13  H   UNL     1      -1.478  -5.645  -1.320  0.00  0.00    +0.149 HD
BRANCH  12  14
ATOM     14  C   UNL     1      -2.631  -4.672   0.174  0.00  0.00    +0.192 C 
BRANCH  14  15
ATOM     15  C   UNL     1      -3.808  -4.566  -0.798  0.00  0.00    +0.012 C 
ATOM     16  C   UNL     1      -4.101  -5.943  -1.396  0.00  0.00    +0.009 C 
ATOM     17  C   UNL     1      -5.043  -4.061  -0.050  0.00  0.00    +0.009 C 
ENDBRANCH  14  15
BRANCH  14  18
ATOM     18  C   UNL     1      -2.928  -5.726   1.209  0.00  0.00    +0.374 C 
ATOM     19  O   UNL     1      -3.492  -5.420   2.246  0.00  0.00    -0.245 OA
ATOM     20  O   UNL     1      -2.604  -6.884   1.010  0.00  0.00    -0.245 OA
ENDBRANCH  14  18
ENDBRANCH  12  14
ENDBRANCH   9  12
ENDBRANCH   5   9
BRANCH   7  21
ATOM     21  O   UNL     1       0.100   0.365   1.667  0.00  0.00    -0.482 OA
BRANCH  21  22
ATOM     22  C   UNL     1       0.265  -0.251   2.946  0.00  0.00    +0.324 C 
BRANCH  22  23
ATOM     23  C   UNL     1       0.353   0.814   4.008  0.00  0.00    +0.251 C 
ATOM     24  O   UNL     1       0.282   1.985   3.700  0.00  0.00    -0.272 OA
ATOM     25  N   UNL     1       0.511   0.466   5.301  0.00  0.00    -0.310 N 
ATOM     26  H   UNL     1       0.568  -0.471   5.547  0.00  0.00    +0.149 HD
BRANCH  25  27
ATOM     27  C   UNL     1       0.597   1.501   6.333  0.00  0.00    +0.073 C 
ATOM     28  C   UNL     1       2.041   1.995   6.442  0.00  0.00    +0.022 C 
ATOM     29  C   UNL     1       2.131   3.076   7.521  0.00  0.00    +0.002 C 
ATOM     30  C   UNL     1       1.688   2.494   8.865  0.00  0.00    +0.000 C 
ATOM     31  C   UNL     1       0.244   2.001   8.756  0.00  0.00    +0.002 C 
ATOM     32  C   UNL     1       0.154   0.919   7.677  0.00  0.00    +0.022 C 
ENDBRANCH  25  27
ENDBRANCH  22  23
ENDBRANCH  21  22
ENDBRANCH   7  21
TORSDOF 9
