REMARK  Name = ZINC65365050
REMARK  5 active torsions:
REMARK  status: ('A' for Active; 'I' for Inactive)
REMARK    1  A    between atoms: C_1  and  C_2
REMARK    2  A    between atoms: C_5  and  N_9
REMARK    3  A    between atoms: N_12  and  C_13
REMARK    4  A    between atoms: C_13  and  C_14
REMARK    5  A    between atoms: C_14  and  N_15
REMARK                            x       y       z     vdW  Elec       q    Type
REMARK                         _______ _______ _______ _____ _____    ______ ____
ROOT
ATOM      1  C   UNL     1       0.419  -6.931   2.379  0.00  0.00    +0.124 C 
ENDROOT
BRANCH   1   5
ATOM      2  N   UNL     1       0.057  -4.171  -0.022  0.00  0.00    -0.269 N 
ATOM      3  C   UNL     1       0.174  -4.850   1.136  0.00  0.00    +0.304 C 
ATOM      4  O   UNL     1       0.172  -4.252   2.195  0.00  0.00    -0.253 OA
ATOM      5  N   UNL     1       0.292  -6.193   1.121  0.00  0.00    -0.298 N 
ATOM      6  H   UNL     1      -0.019  -4.652  -0.861  0.00  0.00    +0.156 HD
ATOM      7  H   UNL     1       0.294  -6.670   0.276  0.00  0.00    +0.150 HD
BRANCH   2  12
ATOM      8  C   UNL     1       0.015   1.503   0.011  0.00  0.00    +0.045 C 
ATOM      9  C   UNL     1       0.025  -0.004   0.002  0.00  0.00    -0.032 A 
ATOM     10  C   UNL     1       0.780  -0.694   0.933  0.00  0.00    +0.006 A 
ATOM     11  C   UNL     1       0.792  -2.075   0.928  0.00  0.00    +0.024 A 
ATOM     12  C   UNL     1       0.046  -2.771  -0.014  0.00  0.00    +0.036 A 
ATOM     13  C   UNL     1      -0.711  -2.077  -0.948  0.00  0.00    +0.043 A 
ATOM     14  C   UNL     1      -0.724  -0.694  -0.934  0.00  0.00    +0.046 A 
ATOM     15 CL   UNL     1      -1.675   0.176  -2.096  0.00  0.00    -0.083 Cl
ENDBRANCH   2  12
ENDBRANCH   1   5
BRANCH   1  16
ATOM     16  C   UNL     1       0.538  -8.428   2.083  0.00  0.00    +0.121 C 
BRANCH  16  17
ATOM     17  N   UNL     1       0.664  -9.166   3.341  0.00  0.00    -0.326 N 
ATOM     18  C   UNL     1       0.787 -10.553   3.325  0.00  0.00    +0.141 A 
ATOM     19  C   UNL     1       0.796 -11.241   2.111  0.00  0.00    +0.049 A 
ATOM     20  C   UNL     1       0.920 -12.618   2.147  0.00  0.00    +0.053 A 
ATOM     21  C   UNL     1       1.029 -13.234   3.394  0.00  0.00    +0.176 A 
ATOM     22  N   UNL     1       1.011 -12.501   4.494  0.00  0.00    -0.128 NA
ATOM     23  N   UNL     1       0.902 -11.222   4.462  0.00  0.00    -0.132 NA
ATOM     24  N   UNL     1       1.156 -14.625   3.480  0.00  0.00    -0.220 N 
ATOM     25  C   UNL     1       1.264 -15.349   4.624  0.00  0.00    +0.116 A 
ATOM     26  C   UNL     1       1.366 -16.653   4.276  0.00  0.00    +0.041 A 
ATOM     27  C   UNL     1       1.319 -16.731   2.879  0.00  0.00    +0.135 A 
ATOM     28  N   UNL     1       1.188 -15.520   2.402  0.00  0.00    -0.173 NA
ATOM     29  H   UNL     1       0.663  -8.690   4.186  0.00  0.00    +0.148 HD
ENDBRANCH  16  17
ENDBRANCH   1  16
TORSDOF 4
