REMARK  Name = ZINC37630185
REMARK  8 active torsions:
REMARK  status: ('A' for Active; 'I' for Inactive)
REMARK    1  A    between atoms: C_2  and  C_16
REMARK    2  A    between atoms: C_3  and  O_15
REMARK    3  A    between atoms: C_6  and  C_9
REMARK    4  A    between atoms: C_9  and  C_10
REMARK    5  A    between atoms: C_9  and  C_12
REMARK    6  A    between atoms: C_10  and  O_11
REMARK    7  A    between atoms: C_12  and  O_13
REMARK    8  A    between atoms: C_16  and  O_17
REMARK                            x       y       z     vdW  Elec       q    Type
REMARK                         _______ _______ _______ _____ _____    ______ ____
ROOT
ATOM      1  C   UNL     1      -0.017   1.427   0.010  0.00  0.00    +0.193 C 
ATOM      2  C   UNL     1       1.425   1.944  -0.001  0.00  0.00    +0.142 C 
ATOM      3  C   UNL     1       2.187   1.312   1.169  0.00  0.00    +0.276 C 
ATOM      4  O   UNL     1       2.066  -0.111   1.088  0.00  0.00    -0.319 OA
ATOM      5  C   UNL     1       0.714  -0.577   1.101  0.00  0.00    +0.278 C 
ATOM      6  O   UNL     1       0.002  -0.004   0.002  0.00  0.00    -0.347 OA
ATOM      7 CL   UNL     1       1.425   3.738   0.176  0.00  0.00    -0.108 Cl
ENDROOT
BRANCH   5   8
ATOM      8  C   UNL     1       0.699  -2.102   0.980  0.00  0.00    +0.141 C 
ATOM      9 CL   UNL     1       1.597  -2.824   2.367  0.00  0.00    -0.108 Cl
BRANCH   8  10
ATOM     10  C   UNL     1      -0.748  -2.600   0.995  0.00  0.00    +0.186 C 
BRANCH  10  11
ATOM     11  O   UNL     1      -1.460  -2.028  -0.104  0.00  0.00    -0.393 OA
ATOM     12  H   UNL     1      -2.386  -2.300  -0.158  0.00  0.00    +0.209 HD
ENDBRANCH  10  11
ENDBRANCH   8  10
BRANCH   8  13
ATOM     13  C   UNL     1       1.368  -2.516  -0.332  0.00  0.00    +0.186 C 
BRANCH  13  14
ATOM     14  O   UNL     1       1.353  -3.940  -0.445  0.00  0.00    -0.393 OA
ATOM     15  H   UNL     1       1.762  -4.275  -1.255  0.00  0.00    +0.209 HD
ENDBRANCH  13  14
ENDBRANCH   8  13
ENDBRANCH   5   8
BRANCH   3  16
ATOM     16  O   UNL     1       1.633   1.771   2.404  0.00  0.00    -0.365 OA
ATOM     17  H   UNL     1       2.067   1.411   3.189  0.00  0.00    +0.213 HD
ENDBRANCH   3  16
BRANCH   2  18
ATOM     18  C   UNL     1       2.099   1.556  -1.319  0.00  0.00    +0.186 C 
BRANCH  18  19
ATOM     19  O   UNL     1       1.379   2.134  -2.410  0.00  0.00    -0.393 OA
ATOM     20  H   UNL     1       1.750   1.930  -3.279  0.00  0.00    +0.209 HD
ENDBRANCH  18  19
ENDBRANCH   2  18
TORSDOF 8
