REMARK  Name = ZINC65182570
REMARK  10 active torsions:
REMARK  status: ('A' for Active; 'I' for Inactive)
REMARK    1  A    between atoms: C_1  and  C_2
REMARK    2  A    between atoms: C_2  and  C_3
REMARK    3  A    between atoms: C_6  and  C_32
REMARK    4  A    between atoms: C_11  and  C_13
REMARK    5  A    between atoms: C_16  and  C_19
REMARK    6  A    between atoms: C_19  and  C_20
REMARK    7  A    between atoms: C_20  and  N_21
REMARK    8  A    between atoms: N_21  and  C_22
REMARK    9  A    between atoms: C_23  and  C_25
REMARK   10  A    between atoms: C_28  and  C_31
REMARK                            x       y       z     vdW  Elec       q    Type
REMARK                         _______ _______ _______ _____ _____    ______ ____
ROOT
ATOM      1  C   UNL     1      -1.500  -2.578  -1.199  0.00  0.00    +0.318 C 
ATOM      2  N   UNL     1      -1.906  -3.992  -1.244  0.00  0.00    -0.291 N 
ATOM      3  C   UNL     1      -2.675  -4.149  -2.373  0.00  0.00    +0.139 C 
ATOM      4  N   UNL     1      -2.797  -3.046  -3.018  0.00  0.00    -0.072 NA
ATOM      5  O   UNL     1      -2.097  -1.997  -2.369  0.00  0.00    -0.367 OA
ATOM      6  H   UNL     1      -1.675  -4.681  -0.602  0.00  0.00    +0.151 HD
ENDROOT
BRANCH   1  15
ATOM      7  C   UNL     1      -1.655  -0.444   0.084  0.00  0.00    -0.033 C 
ATOM      8  C   UNL     1      -2.817   0.248   0.090  0.00  0.00    -0.000 A 
ATOM      9  C   UNL     1      -3.119   1.684   0.103  0.00  0.00    +0.013 A 
ATOM     10  C   UNL     1      -4.411   2.083   0.108  0.00  0.00    -0.050 A 
ATOM     11  C   UNL     1      -5.467   1.161   0.102  0.00  0.00    +0.005 A 
ATOM     12  C   UNL     1      -5.269  -0.174   0.090  0.00  0.00    +0.026 A 
ATOM     13  C   UNL     1      -3.950  -0.705   0.083  0.00  0.00    +0.043 A 
ATOM     14  N   UNL     1      -3.506  -1.938   0.073  0.00  0.00    -0.373 N 
ATOM     15  C   UNL     1      -2.039  -1.907   0.066  0.00  0.00    +0.169 C 
ATOM     16  C   UNL     1      -4.724   3.557   0.121  0.00  0.00    +0.044 C 
ATOM     17  H   UNL     1      -4.055  -2.738   0.067  0.00  0.00    +0.160 HD
BRANCH   7  19
ATOM     18  C   UNL     1      -0.335   1.655   0.107  0.00  0.00    +0.008 C 
ATOM     19  C   UNL     1      -0.261   0.127   0.087  0.00  0.00    +0.030 C 
ENDBRANCH   7  19
ENDBRANCH   1  15
BRANCH   3  20
ATOM     20  C   UNL     1      -3.298  -5.454  -2.800  0.00  0.00    +0.094 C 
BRANCH  20  21
ATOM     21  C   UNL     1      -4.079  -5.245  -4.099  0.00  0.00    +0.115 C 
BRANCH  21  22
ATOM     22  N   UNL     1      -4.684  -6.513  -4.514  0.00  0.00    -0.300 N 
ATOM     23  C   UNL     1      -6.027  -6.870  -4.051  0.00  0.00    +0.132 C 
ATOM     24  C   UNL     1      -4.005  -7.351  -5.322  0.00  0.00    +0.246 C 
ATOM     25  O   UNL     1      -2.852  -7.107  -5.620  0.00  0.00    -0.270 OA
BRANCH  24  26
ATOM     26  C   UNL     1      -4.662  -8.568  -5.846  0.00  0.00    +0.037 A 
ATOM     27  C   UNL     1      -6.020  -8.548  -6.167  0.00  0.00    +0.013 A 
ATOM     28  C   UNL     1      -6.626  -9.687  -6.655  0.00  0.00    +0.004 A 
ATOM     29  C   UNL     1      -5.892 -10.847  -6.826  0.00  0.00    -0.050 A 
ATOM     30  C   UNL     1      -4.545 -10.873  -6.509  0.00  0.00    +0.004 A 
ATOM     31  C   UNL     1      -3.925  -9.740  -6.026  0.00  0.00    +0.013 A 
ATOM     32  C   UNL     1      -6.561 -12.087  -7.360  0.00  0.00    +0.044 C 
ENDBRANCH  24  26
ENDBRANCH  21  22
ENDBRANCH  20  21
ENDBRANCH   3  20
TORSDOF 6
