REMARK  Name = ZINC53249439
REMARK  6 active torsions:
REMARK  status: ('A' for Active; 'I' for Inactive)
REMARK    1  A    between atoms: CB_1  and  CA_2
REMARK    2  A    between atoms: CA_2  and  C_4
REMARK    3  A    between atoms: CA_2  and  N_7
REMARK    4  A    between atoms: N_10  and  C_11
REMARK    5  A    between atoms: N_10  and  C_12
REMARK    6  A    between atoms: N_17  and  C_19
REMARK                            x       y       z     vdW  Elec       q    Type
REMARK                         _______ _______ _______ _____ _____    ______ ____
ROOT
ATOM      1  N   ALA A   1       0.688  -0.476  -1.203  0.00  0.00    -0.286 N 
ATOM      2  C   UNK A   0       0.006  -0.608  -2.358  0.00  0.00    +0.303 C 
ATOM      3  O   UNK A   0      -1.178  -0.335  -2.400  0.00  0.00    -0.253 OA
ATOM      4  N   UNK A   0       0.637  -1.043  -3.467  0.00  0.00    -0.287 N 
ATOM      5  C   UNK A   0       2.064  -1.372  -3.417  0.00  0.00    +0.134 C 
ATOM      6  H   ALA A   1       1.632  -0.695  -1.170  0.00  0.00    +0.151 HD
ENDROOT
BRANCH   4   7
ATOM      7  C   UNK A   0      -0.104  -1.186  -4.723  0.00  0.00    +0.061 C 
ATOM      8  C   UNK A   0      -0.043  -2.643  -5.190  0.00  0.00    +0.019 C 
ATOM      9  C   UNK A   0      -0.753  -2.766  -6.541  0.00  0.00    -0.017 C 
ATOM     10  C   UNK A   0      -0.102  -1.809  -7.542  0.00  0.00    -0.079 C 
ATOM     11  N   UNK A   0      -0.216  -0.431  -7.051  0.00  0.00    +0.379 N 
ATOM     12  C   UNK A   0       0.522  -0.286  -5.791  0.00  0.00    -0.056 C 
ATOM     13  C   UNK A   0       0.340   0.491  -8.051  0.00  0.00    -0.096 C 
ATOM     14  H   UNK A   0      -1.188  -0.209  -6.897  0.00  0.00    -0.082 HD
ENDBRANCH   4   7
BRANCH   1  16
ATOM     15  CB  ALA A   1      -0.019   1.526   0.010  0.00  0.00    +0.040 C 
ATOM     16  CA  ALA A   1       0.002  -0.004   0.002  0.00  0.00    +0.184 C 
BRANCH  16  17
ATOM     17  C   ALA A   1       0.731  -0.503   1.223  0.00  0.00    +0.376 C 
ATOM     18  O   ALA A   1       0.228  -0.379   2.326  0.00  0.00    -0.244 OA
ATOM     19  OXT ALA A   1       1.824  -1.032   1.107  0.00  0.00    -0.244 OA
ENDBRANCH  16  17
ENDBRANCH   1  16
TORSDOF 3
