REMARK  Name = ZINC02618116
REMARK  11 active torsions:
REMARK  status: ('A' for Active; 'I' for Inactive)
REMARK    1  A    between atoms: C_1  and  C_2
REMARK    2  A    between atoms: C_2  and  C_3
REMARK    3  A    between atoms: C_2  and  C_4
REMARK    4  A    between atoms: C_4  and  C_5
REMARK    5  A    between atoms: C_5  and  N_6
REMARK    6  A    between atoms: N_6  and  C_7
REMARK    7  A    between atoms: C_8  and  N_23
REMARK    8  A    between atoms: N_9  and  C_16
REMARK    9  A    between atoms: C_16  and  C_17
REMARK   10  A    between atoms: C_24  and  C_26
REMARK   11  A    between atoms: C_26  and  C_27
REMARK                            x       y       z     vdW  Elec       q    Type
REMARK                         _______ _______ _______ _____ _____    ______ ____
ROOT
ATOM      1  C   UNL     1      -3.588  -2.638  -1.219  0.00  0.00    +0.140 A 
ATOM      2  C   UNL     1      -3.292  -3.457  -2.289  0.00  0.00    +0.128 A 
ATOM      3  N   UNL     1      -4.151  -3.494  -3.363  0.00  0.00    -0.276 N 
ATOM      4  C   UNL     1      -5.265  -2.741  -3.370  0.00  0.00    +0.331 A 
ATOM      5  O   UNL     1      -6.011  -2.787  -4.330  0.00  0.00    -0.246 OA
ATOM      6  N   UNL     1      -5.569  -1.937  -2.336  0.00  0.00    -0.273 N 
ATOM      7  H   UNL     1      -6.379  -1.404  -2.365  0.00  0.00    +0.173 HD
ATOM      8  C   UNL     1      -4.765  -1.868  -1.257  0.00  0.00    +0.277 A 
ATOM      9  O   UNL     1      -5.053  -1.140  -0.323  0.00  0.00    -0.266 OA
ENDROOT
BRANCH   1  10
ATOM     10  N   UNL     1      -2.727  -2.578  -0.103  0.00  0.00    -0.264 N 
ATOM     11  C   UNL     1      -3.147  -3.028   1.098  0.00  0.00    +0.224 C 
ATOM     12  O   UNL     1      -4.226  -3.573   1.198  0.00  0.00    -0.275 OA
BRANCH  10  13
ATOM     13  C   UNL     1      -1.377  -2.027  -0.247  0.00  0.00    +0.114 C 
BRANCH  13  14
ATOM     14  C   UNL     1      -1.428  -0.505  -0.096  0.00  0.00    +0.022 C 
BRANCH  14  16
ATOM     15  C   UNL     1      -0.086   1.598  -0.221  0.00  0.00    +0.007 C 
ATOM     16  C   UNL     1      -0.019   0.070  -0.247  0.00  0.00    -0.016 C 
ATOM     17  C   UNL     1       0.859  -0.422   0.905  0.00  0.00    +0.007 C 
ENDBRANCH  14  16
ENDBRANCH  13  14
ENDBRANCH  10  13
BRANCH  11  18
ATOM     18  C   UNL     1      -2.275  -2.854   2.315  0.00  0.00    +0.131 C 
BRANCH  18  19
ATOM     19  C   UNL     1      -2.970  -3.437   3.518  0.00  0.00    -0.037 A 
ATOM     20  C   UNL     1      -3.807  -2.647   4.284  0.00  0.00    +0.005 A 
ATOM     21  C   UNL     1      -4.444  -3.181   5.388  0.00  0.00    +0.022 A 
ATOM     22  C   UNL     1      -4.245  -4.507   5.727  0.00  0.00    +0.059 A 
ATOM     23  C   UNL     1      -3.407  -5.299   4.961  0.00  0.00    +0.060 A 
ATOM     24  C   UNL     1      -2.774  -4.764   3.853  0.00  0.00    +0.025 A 
ATOM     25 CL   UNL     1      -3.155  -6.963   5.386  0.00  0.00    -0.082 Cl
ATOM     26 CL   UNL     1      -5.045  -5.178   7.114  0.00  0.00    -0.082 Cl
ENDBRANCH  18  19
ENDBRANCH  11  18
ENDBRANCH   1  10
BRANCH   2  27
ATOM     27  N   UNL     1      -2.154  -4.227  -2.283  0.00  0.00    -0.343 N 
ATOM     28  H   UNL     1      -1.519  -4.147  -1.554  0.00  0.00    +0.144 HD
ATOM     29  H   UNL     1      -1.985  -4.849  -3.007  0.00  0.00    +0.144 HD
ENDBRANCH   2  27
BRANCH   3  30
ATOM     30  C   UNL     1      -3.850  -4.359  -4.507  0.00  0.00    +0.163 C 
BRANCH  30  31
ATOM     31  C   UNL     1      -4.467  -5.716  -4.286  0.00  0.00    -0.028 A 
ATOM     32  C   UNL     1      -3.750  -6.705  -3.638  0.00  0.00    +0.005 A 
ATOM     33  C   UNL     1      -4.316  -7.949  -3.436  0.00  0.00    +0.000 A 
ATOM     34  C   UNL     1      -5.600  -8.206  -3.881  0.00  0.00    +0.000 A 
ATOM     35  C   UNL     1      -6.317  -7.217  -4.529  0.00  0.00    +0.000 A 
ATOM     36  C   UNL     1      -5.752  -5.971  -4.727  0.00  0.00    +0.005 A 
ENDBRANCH  30  31
ENDBRANCH   3  30
TORSDOF 9
