REMARK  Name = ZINC17663666
REMARK  11 active torsions:
REMARK  status: ('A' for Active; 'I' for Inactive)
REMARK    1  A    between atoms: C_1  and  C_2
REMARK    2  A    between atoms: C_2  and  C_3
REMARK    3  A    between atoms: C_3  and  C_4
REMARK    4  A    between atoms: C_3  and  N_6
REMARK    5  A    between atoms: C_4  and  C_5
REMARK    6  A    between atoms: C_7  and  C_21
REMARK    7  A    between atoms: C_10  and  S_11
REMARK    8  A    between atoms: S_11  and  C_12
REMARK    9  A    between atoms: C_12  and  C_13
REMARK   10  A    between atoms: C_21  and  O_22
REMARK   11  A    between atoms: O_22  and  C_23
REMARK                            x       y       z     vdW  Elec       q    Type
REMARK                         _______ _______ _______ _____ _____    ______ ____
ROOT
ATOM      1  N   UNL     1      -0.727   2.011  -1.176  0.00  0.00    -0.300 N 
ATOM      2  C   UNL     1      -1.857   2.781  -1.206  0.00  0.00    +0.172 A 
ATOM      3  N   UNL     1      -2.153   2.987  -2.458  0.00  0.00    -0.130 NA
ATOM      4  N   UNL     1      -1.298   2.399  -3.216  0.00  0.00    -0.122 NA
ATOM      5  C   UNL     1      -0.400   1.784  -2.482  0.00  0.00    +0.192 A 
ENDROOT
BRANCH   1   6
ATOM      6  C   UNL     1      -0.019   1.526   0.010  0.00  0.00    +0.091 C 
BRANCH   6   8
ATOM      7  C   UNL     1      -1.427  -0.534   0.139  0.00  0.00    +0.006 C 
ATOM      8  C   UNL     1       0.002  -0.004   0.002  0.00  0.00    +0.022 C 
ENDBRANCH   6   8
BRANCH   6   9
ATOM      9  C   UNL     1       1.417   2.055  -0.000  0.00  0.00    +0.022 C 
ATOM     10  C   UNL     1       1.399   3.579   0.134  0.00  0.00    +0.006 C 
ENDBRANCH   6   9
ENDBRANCH   1   6
BRANCH   5  11
ATOM     11  S   UNL     1       0.969   0.844  -3.071  0.00  0.00    -0.078 S 
BRANCH  11  12
ATOM     12  C   UNL     1       0.721   1.011  -4.856  0.00  0.00    +0.153 C 
BRANCH  12  13
ATOM     13  C   UNL     1       1.808   0.265  -5.586  0.00  0.00    +0.146 A 
ATOM     14  N   UNL     1       2.928   0.884  -5.912  0.00  0.00    -0.199 NA
ATOM     15  C   UNL     1       3.892   0.227  -6.553  0.00  0.00    +0.217 A 
ATOM     16  N   UNL     1       3.722  -1.051  -6.874  0.00  0.00    -0.181 NA
ATOM     17  C   UNL     1       2.592  -1.669  -6.549  0.00  0.00    +0.217 A 
ATOM     18  N   UNL     1       1.635  -1.007  -5.904  0.00  0.00    -0.199 NA
ATOM     19  N   UNL     1       2.411  -2.996  -6.881  0.00  0.00    -0.327 N 
ATOM     20  N   UNL     1       5.064   0.874  -6.889  0.00  0.00    -0.327 N 
ATOM     21  H   UNL     1       1.585  -3.447  -6.644  0.00  0.00    +0.145 HD
ATOM     22  H   UNL     1       3.109  -3.478  -7.351  0.00  0.00    +0.145 HD
ATOM     23  H   UNL     1       5.765   0.395  -7.359  0.00  0.00    +0.145 HD
ATOM     24  H   UNL     1       5.187   1.807  -6.654  0.00  0.00    +0.145 HD
ENDBRANCH  12  13
ENDBRANCH  11  12
ENDBRANCH   5  11
BRANCH   2  25
ATOM     25  C   UNL     1      -2.619   3.296  -0.012  0.00  0.00    +0.305 C 
BRANCH  25  26
ATOM     26  O   UNL     1      -2.101   4.573   0.368  0.00  0.00    -0.483 OA
BRANCH  26  27
ATOM     27  C   UNL     1      -2.682   5.181   1.436  0.00  0.00    +0.139 A 
ATOM     28  C   UNL     1      -3.731   4.564   2.101  0.00  0.00    +0.047 A 
ATOM     29  C   UNL     1      -4.316   5.181   3.190  0.00  0.00    +0.004 A 
ATOM     30  C   UNL     1      -3.863   6.418   3.611  0.00  0.00    +0.002 A 
ATOM     31  C   UNL     1      -2.821   7.038   2.947  0.00  0.00    +0.023 A 
ATOM     32  C   UNL     1      -2.229   6.422   1.860  0.00  0.00    +0.083 A 
ATOM     33 CL   UNL     1      -0.920   7.201   1.026  0.00  0.00    -0.080 Cl
ENDBRANCH  26  27
ENDBRANCH  25  26
ENDBRANCH   2  25
TORSDOF 9
