REMARK  Name = ZINC39325853
REMARK  12 active torsions:
REMARK  status: ('A' for Active; 'I' for Inactive)
REMARK    1  A    between atoms: C_1  and  C_2
REMARK    2  A    between atoms: C_2  and  C_3
REMARK    3  A    between atoms: C_2  and  O_4
REMARK    4  A    between atoms: O_4  and  C_5
REMARK    5  A    between atoms: C_10  and  C_11
REMARK    6  A    between atoms: C_14  and  C_25
REMARK    7  A    between atoms: C_20  and  N_24
REMARK    8  A    between atoms: C_21  and  C_22
REMARK    9  A    between atoms: C_28  and  O_33
REMARK   10  A    between atoms: C_29  and  O_31
REMARK   11  A    between atoms: O_31  and  C_32
REMARK   12  A    between atoms: O_33  and  C_34
REMARK                            x       y       z     vdW  Elec       q    Type
REMARK                         _______ _______ _______ _____ _____    ______ ____
ROOT
ATOM      1  C   UNL     1      -3.818  -1.756  -0.112  0.00  0.00    +0.105 C 
ATOM      2  C   UNL     1      -4.879  -1.248  -1.054  0.00  0.00    +0.054 A 
ATOM      3  C   UNL     1      -4.813  -0.254  -1.972  0.00  0.00    +0.074 A 
ATOM      4  N   UNL     1      -6.037  -0.179  -2.576  0.00  0.00    -0.273 N 
ATOM      5  H   UNL     1      -6.291   0.441  -3.277  0.00  0.00    +0.189 HD
ATOM      6  N   UNL     1      -6.862  -1.159  -2.001  0.00  0.00    -0.135 NA
ATOM      7  C   UNL     1      -6.176  -1.796  -1.095  0.00  0.00    +0.245 A 
ATOM      8  O   UNL     1      -6.551  -2.819  -0.281  0.00  0.00    -0.421 OA
ATOM      9  C   UNL     1      -5.742  -3.119   0.754  0.00  0.00    +0.201 C 
ATOM     10  C   UNL     1      -4.478  -2.663   0.895  0.00  0.00    +0.098 C 
ENDROOT
BRANCH   1  16
ATOM     11  C   UNL     1      -1.433  -2.211  -0.741  0.00  0.00    +0.125 A 
ATOM     12  C   UNL     1      -0.477  -2.924  -1.450  0.00  0.00    +0.046 A 
ATOM     13  C   UNL     1      -0.866  -3.941  -2.300  0.00  0.00    +0.004 A 
ATOM     14  C   UNL     1      -2.206  -4.249  -2.445  0.00  0.00    +0.001 A 
ATOM     15  C   UNL     1      -3.161  -3.539  -1.740  0.00  0.00    +0.008 A 
ATOM     16  C   UNL     1      -2.777  -2.525  -0.884  0.00  0.00    +0.007 A 
BRANCH  11  17
ATOM     17  O   UNL     1      -1.054  -1.210   0.096  0.00  0.00    -0.489 OA
BRANCH  17  19
ATOM     18  C   UNL     1       0.618   0.412   0.742  0.00  0.00    +0.051 C 
ATOM     19  C   UNL     1       0.349  -1.026   0.294  0.00  0.00    +0.167 C 
ATOM     20  C   UNL     1       0.844  -1.996   1.369  0.00  0.00    +0.051 C 
ENDBRANCH  17  19
ENDBRANCH  11  17
ENDBRANCH   1  16
BRANCH   3  21
ATOM     21  C   UNL     1      -3.636   0.593  -2.267  0.00  0.00    +0.004 A 
ATOM     22  C   UNL     1      -2.939   1.208  -1.227  0.00  0.00    +0.014 A 
ATOM     23  C   UNL     1      -1.842   1.998  -1.503  0.00  0.00    +0.050 A 
ATOM     24  C   UNL     1      -1.429   2.182  -2.814  0.00  0.00    +0.162 A 
ATOM     25  C   UNL     1      -2.120   1.570  -3.857  0.00  0.00    +0.162 A 
ATOM     26  C   UNL     1      -3.217   0.773  -3.586  0.00  0.00    +0.059 A 
BRANCH  25  27
ATOM     27  O   UNL     1      -1.713   1.753  -5.142  0.00  0.00    -0.491 OA
ATOM     28  C   UNL     1      -2.469   1.096  -6.162  0.00  0.00    +0.277 C 
ENDBRANCH  25  27
BRANCH  24  29
ATOM     29  O   UNL     1      -0.347   2.961  -3.082  0.00  0.00    -0.491 OA
ATOM     30  C   UNL     1       0.373   3.478  -1.961  0.00  0.00    +0.277 C 
ENDBRANCH  24  29
ENDBRANCH   3  21
BRANCH   9  31
ATOM     31  N   UNL     1      -6.236  -3.943   1.734  0.00  0.00    -0.328 N 
ATOM     32  H   UNL     1      -7.140  -4.289   1.666  0.00  0.00    +0.145 HD
ATOM     33  H   UNL     1      -5.681  -4.180   2.494  0.00  0.00    +0.145 HD
ENDBRANCH   9  31
BRANCH  10  34
ATOM     34  C   UNL     1      -3.732  -3.060   2.051  0.00  0.00    +0.101 C 
ATOM     35  N   UNL     1      -3.140  -3.375   2.968  0.00  0.00    -0.191 NA
ENDBRANCH  10  34
TORSDOF 8
