REMARK  Name = ZINC15835647
REMARK  5 active torsions:
REMARK  status: ('A' for Active; 'I' for Inactive)
REMARK    1  A    between atoms: C_4  and  C_7
REMARK    2  A    between atoms: C_7  and  C_8
REMARK    3  A    between atoms: C_8  and  N_9
REMARK    4  A    between atoms: C_10  and  C_12
REMARK    5  A    between atoms: C_13  and  N_29
REMARK                            x       y       z     vdW  Elec       q    Type
REMARK                         _______ _______ _______ _____ _____    ______ ____
ROOT
ATOM      1  C   UNL     1      -6.394   0.019  -0.863  0.00  0.00    +0.097 A 
ATOM      2  C   UNL     1      -5.071   0.316  -1.111  0.00  0.00    +0.054 A 
ATOM      3  C   UNL     1      -4.237   0.732   0.005  0.00  0.00    +0.031 A 
ATOM      4  C   UNL     1      -2.857   1.084  -0.009  0.00  0.00    -0.030 A 
ATOM      5  C   UNL     1      -2.253   1.453   1.146  0.00  0.00    -0.005 A 
ATOM      6  C   UNL     1      -2.989   1.477   2.342  0.00  0.00    +0.103 A 
ATOM      7  C   UNL     1      -4.891   0.788   1.254  0.00  0.00    +0.089 A 
ATOM      8  S   UNL     1      -6.556   0.293   0.890  0.00  0.00    -0.064 S 
ATOM      9  N   UNL     1      -2.364   1.851   3.523  0.00  0.00    -0.316 N 
ATOM     10  C   UNL     1      -1.882   3.254   3.449  0.00  0.00    +0.106 C 
ATOM     11  C   UNL     1      -1.719   3.651   4.938  0.00  0.00    +0.020 C 
ATOM     12  C   UNL     1      -2.917   2.949   5.617  0.00  0.00    +0.020 C 
ATOM     13  C   UNL     1      -3.310   1.808   4.659  0.00  0.00    +0.106 C 
ATOM     14  C   UNL     1      -0.802   1.856   1.210  0.00  0.00    +0.039 C 
ATOM     15  C   UNL     1      -0.056   1.370  -0.031  0.00  0.00    +0.005 C 
ATOM     16  C   UNL     1      -0.837   1.817  -1.272  0.00  0.00    +0.005 C 
ATOM     17  C   UNL     1      -2.141   1.022  -1.330  0.00  0.00    +0.036 C 
ATOM     18  N   UNL     1      -4.307   1.149   2.422  0.00  0.00    -0.337 N 
ATOM     19  H   UNL     1      -4.824   1.173   3.309  0.00  0.00    +0.168 HD
ENDROOT
BRANCH   1  21
ATOM     20  N   UNL     1      -8.640  -0.648  -1.352  0.00  0.00    -0.311 N 
ATOM     21  C   UNL     1      -7.386  -0.402  -1.781  0.00  0.00    +0.253 C 
ATOM     22  O   UNL     1      -7.106  -0.542  -2.958  0.00  0.00    -0.270 OA
ATOM     23  H   UNL     1      -8.863  -0.537  -0.415  0.00  0.00    +0.149 HD
BRANCH  20  24
ATOM     24  C   UNL     1      -9.666  -1.085  -2.302  0.00  0.00    +0.109 C 
BRANCH  24  25
ATOM     25  C   UNL     1     -10.990  -1.293  -1.563  0.00  0.00    +0.054 C 
BRANCH  25  29
ATOM     26  C   UNL     1     -13.983  -2.564  -4.333  0.00  0.00    +0.000 A 
ATOM     27  C   UNL     1     -13.204  -3.501  -3.679  0.00  0.00    +0.000 A 
ATOM     28  C   UNL     1     -12.235  -3.089  -2.783  0.00  0.00    +0.004 A 
ATOM     29  C   UNL     1     -12.046  -1.741  -2.541  0.00  0.00    -0.046 A 
ATOM     30  C   UNL     1     -12.828  -0.805  -3.191  0.00  0.00    +0.004 A 
ATOM     31  C   UNL     1     -13.794  -1.217  -4.091  0.00  0.00    +0.000 A 
ENDBRANCH  25  29
ENDBRANCH  24  25
ENDBRANCH  20  24
ENDBRANCH   1  21
BRANCH   2  32
ATOM     32  N   UNL     1      -4.548   0.221  -2.393  0.00  0.00    -0.356 N 
ATOM     33  H   UNL     1      -3.607   0.025  -2.519  0.00  0.00    +0.142 HD
ATOM     34  H   UNL     1      -5.124   0.350  -3.162  0.00  0.00    +0.142 HD
ENDBRANCH   2  32
TORSDOF 5
