REMARK  Name = ZINC04652916
REMARK  8 active torsions:
REMARK  status: ('A' for Active; 'I' for Inactive)
REMARK    1  A    between atoms: C_1  and  C_2
REMARK    2  A    between atoms: C_2  and  C_3
REMARK    3  A    between atoms: C_4  and  C_21
REMARK    4  A    between atoms: C_5  and  C_13
REMARK    5  A    between atoms: C_7  and  C_11
REMARK    6  A    between atoms: C_8  and  N_10
REMARK    7  A    between atoms: C_21  and  O_23
REMARK    8  A    between atoms: O_23  and  C_24
REMARK                            x       y       z     vdW  Elec       q    Type
REMARK                         _______ _______ _______ _____ _____    ______ ____
ROOT
ATOM      1  C   UNL     1      -2.095   6.074  -1.149  0.00  0.00    +0.118 C 
ATOM      2  C   UNL     1      -0.759   5.995  -1.165  0.00  0.00    +0.087 C 
ATOM      3  C   UNL     1       0.022   5.776   0.103  0.00  0.00    +0.107 C 
ATOM      4  C   UNL     1      -0.850   6.070   1.294  0.00  0.00    +0.098 C 
ATOM      5  C   UNL     1      -2.196   6.146   1.166  0.00  0.00    +0.198 C 
ATOM      6  O   UNL     1      -2.806   5.962  -0.017  0.00  0.00    -0.445 OA
ENDROOT
BRANCH   3   7
ATOM      7  C   UNL     1       0.486   4.343   0.164  0.00  0.00    +0.002 A 
ATOM      8  C   UNL     1       1.838   4.056   0.223  0.00  0.00    +0.046 A 
ATOM      9  C   UNL     1       2.263   2.740   0.278  0.00  0.00    +0.020 A 
ATOM     10  C   UNL     1       1.338   1.714   0.275  0.00  0.00    +0.003 A 
ATOM     11  C   UNL     1      -0.013   2.000   0.210  0.00  0.00    +0.020 A 
ATOM     12  C   UNL     1      -0.440   3.315   0.161  0.00  0.00    +0.046 A 
ATOM     13 CL   UNL     1      -2.136   3.675   0.087  0.00  0.00    -0.083 Cl
ATOM     14 CL   UNL     1       3.000   5.345   0.226  0.00  0.00    -0.083 Cl
ENDBRANCH   3   7
BRANCH   5  15
ATOM     15  N   UNL     1      -2.957   6.419   2.275  0.00  0.00    -0.328 N 
ATOM     16  H   UNL     1      -3.923   6.476   2.198  0.00  0.00    +0.145 HD
ATOM     17  H   UNL     1      -2.531   6.554   3.135  0.00  0.00    +0.145 HD
ENDBRANCH   5  15
BRANCH   1  19
ATOM     18  C   UNL     1      -2.822   7.788  -2.786  0.00  0.00    +0.012 C 
ATOM     19  C   UNL     1      -2.826   6.296  -2.448  0.00  0.00    +0.071 C 
ENDBRANCH   1  19
BRANCH   4  20
ATOM     20  C   UNL     1      -0.250   6.273   2.578  0.00  0.00    +0.101 C 
ATOM     21  N   UNL     1       0.227   6.434   3.597  0.00  0.00    -0.191 NA
ENDBRANCH   4  20
BRANCH   2  22
ATOM     22  C   UNL     1      -0.068   6.121  -2.395  0.00  0.00    +0.339 C 
ATOM     23  O   UNL     1      -0.674   6.427  -3.404  0.00  0.00    -0.245 OA
BRANCH  22  24
ATOM     24  O   UNL     1       1.262   5.902  -2.447  0.00  0.00    -0.465 OA
ATOM     25  C   UNL     1       1.894   6.046  -3.721  0.00  0.00    +0.280 C 
ENDBRANCH  22  24
ENDBRANCH   2  22
TORSDOF 6
