REMARK  Name = ZINC16183303
REMARK  8 active torsions:
REMARK  status: ('A' for Active; 'I' for Inactive)
REMARK    1  A    between atoms: C_1  and  C_2
REMARK    2  A    between atoms: C_5  and  C_8
REMARK    3  A    between atoms: C_8  and  C_10
REMARK    4  A    between atoms: C_12  and  C_24
REMARK    5  A    between atoms: C_18  and  C_19
REMARK    6  A    between atoms: C_18  and  O_23
REMARK    7  A    between atoms: C_28  and  O_30
REMARK    8  A    between atoms: O_30  and  C_31
REMARK                            x       y       z     vdW  Elec       q    Type
REMARK                         _______ _______ _______ _____ _____    ______ ____
ROOT
ATOM      1  C   UNL     1      -3.984   2.224  -0.031  0.00  0.00    +0.144 C 
ATOM      2  C   UNL     1      -5.059   1.223  -0.470  0.00  0.00    +0.120 C 
ATOM      3  N   UNL     1      -4.890  -0.023   0.280  0.00  0.00    -0.292 N 
ATOM      4  C   UNL     1      -4.366  -0.028   1.515  0.00  0.00    +0.302 C 
ATOM      5  O   UNL     1      -4.257  -1.089   2.098  0.00  0.00    -0.253 OA
ATOM      6  N   UNL     1      -3.958   1.091   2.132  0.00  0.00    -0.264 N 
ATOM      7  C   UNL     1      -4.074   2.401   1.488  0.00  0.00    +0.243 C 
ATOM      8  H   UNL     1      -5.162  -0.862  -0.124  0.00  0.00    +0.151 HD
ATOM      9  H   UNL     1      -3.578   1.031   3.022  0.00  0.00    +0.153 HD
ENDROOT
BRANCH   2  10
ATOM     10  C   UNL     1      -4.918   0.947  -1.945  0.00  0.00    -0.023 A 
ATOM     11  C   UNL     1      -4.043  -0.028  -2.385  0.00  0.00    +0.006 A 
ATOM     12  C   UNL     1      -3.912  -0.284  -3.737  0.00  0.00    +0.004 A 
ATOM     13  C   UNL     1      -4.657   0.435  -4.653  0.00  0.00    +0.046 A 
ATOM     14  C   UNL     1      -5.535   1.414  -4.214  0.00  0.00    +0.129 A 
ATOM     15  C   UNL     1      -5.668   1.665  -2.855  0.00  0.00    +0.051 A 
BRANCH  14  16
ATOM     16  O   UNL     1      -6.269   2.123  -5.112  0.00  0.00    -0.456 OA
BRANCH  16  17
ATOM     17  C   UNL     1      -6.059   1.888  -6.434  0.00  0.00    +0.128 A 
ATOM     18  C   UNL     1      -5.287   2.766  -7.181  0.00  0.00    +0.046 A 
ATOM     19  C   UNL     1      -5.070   2.522  -8.524  0.00  0.00    +0.004 A 
ATOM     20  C   UNL     1      -5.631   1.410  -9.125  0.00  0.00    +0.000 A 
ATOM     21  C   UNL     1      -6.405   0.537  -8.384  0.00  0.00    +0.004 A 
ATOM     22  C   UNL     1      -6.620   0.773  -7.040  0.00  0.00    +0.046 A 
ENDBRANCH  16  17
ENDBRANCH  14  16
ENDBRANCH   2  10
BRANCH   7  23
ATOM     23  C   UNL     1      -2.937   3.307   1.965  0.00  0.00    +0.436 C 
ATOM     24  F   UNL     1      -2.964   4.506   1.246  0.00  0.00    -0.166 F 
ATOM     25  F   UNL     1      -3.097   3.578   3.329  0.00  0.00    -0.166 F 
ATOM     26  F   UNL     1      -1.711   2.666   1.758  0.00  0.00    -0.166 F 
ENDBRANCH   7  23
BRANCH   1  27
ATOM     27  C   UNL     1      -2.621   1.697  -0.400  0.00  0.00    +0.173 C 
ATOM     28  O   UNL     1      -2.243   0.632   0.041  0.00  0.00    -0.292 OA
BRANCH  27  33
ATOM     29  C   UNL     1       0.781   4.728  -3.905  0.00  0.00    +0.044 C 
ATOM     30  C   UNL     1      -0.110   3.935  -2.984  0.00  0.00    -0.050 A 
ATOM     31  C   UNL     1       0.368   2.780  -2.390  0.00  0.00    +0.004 A 
ATOM     32  C   UNL     1      -0.441   2.049  -1.546  0.00  0.00    +0.011 A 
ATOM     33  C   UNL     1      -1.750   2.474  -1.295  0.00  0.00    +0.018 A 
ATOM     34  C   UNL     1      -2.224   3.645  -1.895  0.00  0.00    +0.011 A 
ATOM     35  C   UNL     1      -1.402   4.365  -2.737  0.00  0.00    +0.004 A 
ENDBRANCH  27  33
ENDBRANCH   1  27
BRANCH   7  36
ATOM     36  O   UNL     1      -5.331   2.990   1.827  0.00  0.00    -0.364 OA
ATOM     37  H   UNL     1      -5.456   3.131   2.776  0.00  0.00    +0.212 HD
ENDBRANCH   7  36
TORSDOF 7
