REMARK  Name = ZINC13562917
REMARK  6 active torsions:
REMARK  status: ('A' for Active; 'I' for Inactive)
REMARK    1  A    between atoms: C_1  and  C_2
REMARK    2  A    between atoms: C_2  and  C_16
REMARK    3  A    between atoms: N_3  and  N_4
REMARK    4  A    between atoms: C_5  and  C_7
REMARK    5  A    between atoms: N_17  and  N_18
REMARK    6  A    between atoms: C_19  and  C_21
REMARK                            x       y       z     vdW  Elec       q    Type
REMARK                         _______ _______ _______ _____ _____    ______ ____
ROOT
ATOM      1  C   UNL     1      -0.018   1.503   0.010  0.00  0.00    +0.069 C 
ATOM      2  C   UNL     1       0.002  -0.004   0.002  0.00  0.00    +0.076 C 
ATOM      3  N   UNL     1       0.022  -0.661   1.126  0.00  0.00    -0.183 NA
ENDROOT
BRANCH   3   4
ATOM      4  N   UNL     1       0.024   0.033   2.343  0.00  0.00    -0.200 N 
ATOM      5  C   UNL     1       0.044  -0.647   3.507  0.00  0.00    +0.299 C 
ATOM      6  O   UNL     1       0.060  -1.864   3.500  0.00  0.00    -0.265 OA
ATOM      7  H   UNL     1       0.011   1.003   2.349  0.00  0.00    +0.178 HD
BRANCH   5   8
ATOM      8  C   UNL     1       0.046   0.080   4.783  0.00  0.00    +0.192 A 
ATOM      9  C   UNL     1       0.071  -0.498   6.012  0.00  0.00    +0.063 A 
ATOM     10  C   UNL     1       0.064   0.602   6.976  0.00  0.00    +0.021 A 
ATOM     11  C   UNL     1       0.079   0.673   8.372  0.00  0.00    +0.011 A 
ATOM     12  C   UNL     1       0.064   1.893   8.987  0.00  0.00    +0.001 A 
ATOM     13  C   UNL     1       0.035   3.060   8.236  0.00  0.00    +0.004 A 
ATOM     14  C   UNL     1       0.019   3.011   6.859  0.00  0.00    +0.047 A 
ATOM     15  C   UNL     1       0.034   1.782   6.210  0.00  0.00    +0.136 A 
ATOM     16  O   UNL     1       0.030   1.423   4.911  0.00  0.00    -0.450 OA
ENDBRANCH   5   8
ENDBRANCH   3   4
BRANCH   2  17
ATOM     17  C   UNL     1      -0.000  -0.728  -1.268  0.00  0.00    +0.155 C 
ATOM     18  N   UNL     1       0.018  -2.030  -1.275  0.00  0.00    -0.186 NA
BRANCH  18  19
ATOM     19  N   UNL     1       0.015  -2.724  -2.492  0.00  0.00    -0.200 N 
ATOM     20  C   UNL     1       0.034  -4.072  -2.499  0.00  0.00    +0.299 C 
ATOM     21  O   UNL     1       0.052  -4.686  -1.449  0.00  0.00    -0.265 OA
ATOM     22  H   UNL     1       0.001  -2.235  -3.329  0.00  0.00    +0.178 HD
BRANCH  20  23
ATOM     23  C   UNL     1       0.032  -4.799  -3.775  0.00  0.00    +0.192 A 
ATOM     24  C   UNL     1       0.043  -6.152  -3.905  0.00  0.00    +0.063 A 
ATOM     25  C   UNL     1       0.036  -6.421  -5.342  0.00  0.00    +0.021 A 
ATOM     26  C   UNL     1       0.042  -7.586  -6.114  0.00  0.00    +0.011 A 
ATOM     27  C   UNL     1       0.032  -7.494  -7.477  0.00  0.00    +0.001 A 
ATOM     28  C   UNL     1       0.015  -6.253  -8.099  0.00  0.00    +0.004 A 
ATOM     29  C   UNL     1       0.009  -5.093  -7.355  0.00  0.00    +0.047 A 
ATOM     30  C   UNL     1       0.019  -5.160  -5.966  0.00  0.00    +0.136 A 
ATOM     31  O   UNL     1       0.012  -4.225  -4.997  0.00  0.00    -0.450 OA
ENDBRANCH  20  23
ENDBRANCH  18  19
ENDBRANCH   2  17
TORSDOF 5
