REMARK  Name = ZINC23969551
REMARK  7 active torsions:
REMARK  status: ('A' for Active; 'I' for Inactive)
REMARK    1  A    between atoms: C_1  and  C_2
REMARK    2  A    between atoms: C_2  and  C_4
REMARK    3  A    between atoms: C_2  and  O_16
REMARK    4  A    between atoms: O_16  and  C_17
REMARK    5  A    between atoms: C_17  and  C_19
REMARK    6  A    between atoms: C_21  and  C_30
REMARK    7  A    between atoms: N_22  and  C_24
REMARK                            x       y       z     vdW  Elec       q    Type
REMARK                         _______ _______ _______ _____ _____    ______ ____
ROOT
ATOM      1  C   UNL     1       2.095  -1.205  -0.890  0.00  0.00    +0.379 C 
ATOM      2  O   UNL     1       2.697  -0.804   0.086  0.00  0.00    -0.241 OA
ENDROOT
BRANCH   1   3
ATOM      3  C   UNL     1       2.800  -1.360  -2.179  0.00  0.00    +0.260 A 
ATOM      4  N   UNL     1       2.251  -1.787  -3.329  0.00  0.00    -0.201 NA
ATOM      5  C   UNL     1       3.203  -1.785  -4.241  0.00  0.00    +0.164 A 
ATOM      6  N   UNL     1       4.343  -1.352  -3.634  0.00  0.00    -0.212 N 
ATOM      7  N   UNL     1       4.071  -1.099  -2.400  0.00  0.00    -0.137 NA
BRANCH   6   8
ATOM      8  C   UNL     1       5.593  -1.201  -4.246  0.00  0.00    +0.068 A 
ATOM      9  C   UNL     1       5.689  -0.601  -5.495  0.00  0.00    +0.028 A 
ATOM     10  C   UNL     1       6.923  -0.454  -6.096  0.00  0.00    +0.002 A 
ATOM     11  C   UNL     1       8.064  -0.903  -5.456  0.00  0.00    +0.000 A 
ATOM     12  C   UNL     1       7.972  -1.502  -4.213  0.00  0.00    +0.002 A 
ATOM     13  C   UNL     1       6.741  -1.647  -3.603  0.00  0.00    +0.028 A 
ENDBRANCH   6   8
BRANCH   5  14
ATOM     14  C   UNL     1       3.061  -2.181  -5.660  0.00  0.00    +0.019 A 
ATOM     15  C   UNL     1       4.133  -2.764  -6.335  0.00  0.00    +0.011 A 
ATOM     16  C   UNL     1       3.994  -3.131  -7.658  0.00  0.00    +0.001 A 
ATOM     17  C   UNL     1       2.793  -2.923  -8.314  0.00  0.00    +0.000 A 
ATOM     18  C   UNL     1       1.726  -2.345  -7.650  0.00  0.00    +0.001 A 
ATOM     19  C   UNL     1       1.851  -1.979  -6.325  0.00  0.00    +0.011 A 
ENDBRANCH   5  14
ENDBRANCH   1   3
BRANCH   1  20
ATOM     20  O   UNL     1       0.786  -1.508  -0.797  0.00  0.00    -0.448 OA
BRANCH  20  22
ATOM     21  C   UNL     1      -0.391   0.086   0.587  0.00  0.00    +0.060 C 
ATOM     22  C   UNL     1       0.169  -1.334   0.480  0.00  0.00    +0.239 C 
BRANCH  22  23
ATOM     23  C   UNL     1      -0.952  -2.329   0.636  0.00  0.00    +0.151 A 
ATOM     24  N   UNL     1      -0.633  -3.625   0.886  0.00  0.00    -0.307 N 
ATOM     25  H   UNL     1       0.298  -3.885   0.959  0.00  0.00    +0.170 HD
ATOM     26  C   UNL     1      -1.604  -4.557   1.035  0.00  0.00    +0.259 A 
ATOM     27  O   UNL     1      -1.332  -5.722   1.260  0.00  0.00    -0.267 OA
ATOM     28  C   UNL     1      -2.998  -4.107   0.914  0.00  0.00    +0.065 A 
ATOM     29  C   UNL     1      -4.071  -4.987   1.049  0.00  0.00    +0.015 A 
ATOM     30  C   UNL     1      -5.358  -4.511   0.926  0.00  0.00    +0.001 A 
ATOM     31  C   UNL     1      -5.593  -3.167   0.669  0.00  0.00    +0.002 A 
ATOM     32  C   UNL     1      -4.547  -2.282   0.531  0.00  0.00    +0.028 A 
ATOM     33  C   UNL     1      -3.234  -2.740   0.652  0.00  0.00    +0.078 A 
ATOM     34  N   UNL     1      -2.174  -1.901   0.529  0.00  0.00    -0.230 NA
ENDBRANCH  22  23
ENDBRANCH  20  22
ENDBRANCH   1  20
TORSDOF 6
