REMARK  Name = ZINC40760628
REMARK  9 active torsions:
REMARK  status: ('A' for Active; 'I' for Inactive)
REMARK    1  A    between atoms: C_1  and  C_2
REMARK    2  A    between atoms: C_2  and  O_3
REMARK    3  A    between atoms: O_3  and  C_4
REMARK    4  A    between atoms: C_9  and  N_10
REMARK    5  A    between atoms: C_12  and  N_27
REMARK    6  A    between atoms: C_13  and  N_17
REMARK    7  A    between atoms: N_17  and  C_18
REMARK    8  A    between atoms: C_18  and  C_20
REMARK    9  A    between atoms: C_18  and  C_21
REMARK                            x       y       z     vdW  Elec       q    Type
REMARK                         _______ _______ _______ _____ _____    ______ ____
ROOT
ATOM      1  N   UNL     1       1.952  -1.468  -3.424  0.00  0.00    -0.295 N 
ATOM      2  C   UNL     1       2.680  -1.984  -4.490  0.00  0.00    +0.149 A 
ATOM      3  C   UNL     1       3.311  -1.131  -5.397  0.00  0.00    +0.105 A 
ATOM      4  C   UNL     1       4.029  -1.701  -6.449  0.00  0.00    +0.145 A 
ATOM      5  N   UNL     1       4.085  -3.027  -6.547  0.00  0.00    -0.219 NA
ATOM      6  C   UNL     1       3.474  -3.798  -5.670  0.00  0.00    +0.225 A 
ATOM      7  N   UNL     1       2.791  -3.300  -4.659  0.00  0.00    -0.219 NA
ATOM      8  H   UNL     1       1.958  -0.514  -3.249  0.00  0.00    +0.154 HD
ENDROOT
BRANCH   1  14
ATOM      9  C   UNL     1       0.933  -1.964  -1.286  0.00  0.00    +0.142 A 
ATOM     10  C   UNL     1       0.194  -2.814  -0.479  0.00  0.00    +0.047 A 
ATOM     11  C   UNL     1      -0.260  -4.021  -0.979  0.00  0.00    +0.004 A 
ATOM     12  C   UNL     1       0.021  -4.383  -2.283  0.00  0.00    +0.002 A 
ATOM     13  C   UNL     1       0.757  -3.541  -3.095  0.00  0.00    +0.027 A 
ATOM     14  C   UNL     1       1.211  -2.326  -2.602  0.00  0.00    +0.075 A 
BRANCH   9  15
ATOM     15  O   UNL     1       1.380  -0.777  -0.796  0.00  0.00    -0.490 OA
BRANCH  15  17
ATOM     16  C   UNL     1       1.641   0.892   0.932  0.00  0.00    +0.048 C 
ATOM     17  C   UNL     1       1.057  -0.473   0.563  0.00  0.00    +0.226 C 
ENDBRANCH  15  17
ENDBRANCH   9  15
ENDBRANCH   1  14
BRANCH   3  18
ATOM     18  N   UNL     1       3.226   0.264  -5.254  0.00  0.00    -0.353 N 
ATOM     19  H   UNL     1       2.723   0.646  -4.518  0.00  0.00    +0.143 HD
ATOM     20  H   UNL     1       3.670   0.845  -5.892  0.00  0.00    +0.143 HD
ENDBRANCH   3  18
BRANCH   4  21
ATOM     21  N   UNL     1       4.676  -0.897  -7.380  0.00  0.00    -0.321 N 
ATOM     22  H   UNL     1       4.631   0.069  -7.301  0.00  0.00    +0.148 HD
BRANCH  21  23
ATOM     23  C   UNL     1       5.427  -1.508  -8.480  0.00  0.00    +0.099 C 
ATOM     24  C   UNL     1       6.842  -1.845  -8.006  0.00  0.00    +0.033 C 
BRANCH  23  25
ATOM     25  C   UNL     1       5.500  -0.542  -9.635  0.00  0.00    -0.028 A 
ATOM     26  C   UNL     1       5.710   0.803  -9.398  0.00  0.00    +0.005 A 
ATOM     27  C   UNL     1       5.778   1.689 -10.458  0.00  0.00    +0.000 A 
ATOM     28  C   UNL     1       5.635   1.229 -11.753  0.00  0.00    +0.000 A 
ATOM     29  C   UNL     1       5.426  -0.117 -11.990  0.00  0.00    +0.000 A 
ATOM     30  C   UNL     1       5.363  -1.003 -10.931  0.00  0.00    +0.005 A 
ENDBRANCH  23  25
ENDBRANCH  21  23
ENDBRANCH   4  21
TORSDOF 7
