REMARK  Name = ZINC63728841
REMARK  5 active torsions:
REMARK  status: ('A' for Active; 'I' for Inactive)
REMARK    1  A    between atoms: C_1  and  C_2
REMARK    2  A    between atoms: C_4  and  C_7
REMARK    3  A    between atoms: C_9  and  C_13
REMARK    4  A    between atoms: N_15  and  C_16
REMARK    5  A    between atoms: N_15  and  C_17
REMARK                            x       y       z     vdW  Elec       q    Type
REMARK                         _______ _______ _______ _____ _____    ______ ____
ROOT
ATOM      1  C   UNL     1      -2.148  -3.116   1.024  0.00  0.00    +0.019 A 
ATOM      2  C   UNL     1      -3.443  -2.765   0.599  0.00  0.00    +0.042 A 
ATOM      3  C   UNL     1      -4.165  -3.922   0.502  0.00  0.00    +0.103 A 
ATOM      4  N   UNL     1      -3.342  -4.967   0.857  0.00  0.00    -0.356 N 
ATOM      5  H   UNL     1      -3.595  -5.903   0.878  0.00  0.00    +0.165 HD
ATOM      6  C   UNL     1      -2.118  -4.474   1.168  0.00  0.00    +0.093 A 
ENDROOT
BRANCH   1  10
ATOM      7  C   UNL     1      -0.174   1.455   1.366  0.00  0.00    +0.073 C 
ATOM      8  C   UNL     1      -0.175  -0.052   1.407  0.00  0.00    +0.076 A 
ATOM      9  N   UNL     1      -1.174  -0.868   1.193  0.00  0.00    -0.244 NA
ATOM     10  C   UNL     1      -1.019  -2.182   1.266  0.00  0.00    +0.080 A 
ATOM     11  C   UNL     1       0.234  -2.633   1.577  0.00  0.00    +0.075 A 
ATOM     12  S   UNL     1       1.112  -1.086   1.734  0.00  0.00    -0.080 S 
ENDBRANCH   1  10
BRANCH   3  13
ATOM     13  C   UNL     1      -5.569  -4.031   0.092  0.00  0.00    +0.263 C 
ATOM     14  O   UNL     1      -6.257  -3.031   0.005  0.00  0.00    -0.268 OA
ATOM     15  N   UNL     1      -6.097  -5.239  -0.189  0.00  0.00    -0.296 N 
ATOM     16  C   UNL     1      -5.274  -6.445  -0.065  0.00  0.00    +0.132 C 
BRANCH  15  17
ATOM     17  C   UNL     1      -7.493  -5.346  -0.619  0.00  0.00    +0.076 C 
ATOM     18  C   UNL     1      -8.094  -6.749  -0.727  0.00  0.00    +0.024 C 
ATOM     19  C   UNL     1      -7.764  -5.957  -1.995  0.00  0.00    +0.024 C 
ENDBRANCH  15  17
ENDBRANCH   3  13
TORSDOF 3
