REMARK  Name = ZINC27426569
REMARK  9 active torsions:
REMARK  status: ('A' for Active; 'I' for Inactive)
REMARK    1  A    between atoms: C_1  and  C_2
REMARK    2  A    between atoms: C_2  and  C_4
REMARK    3  A    between atoms: C_2  and  N_13
REMARK    4  A    between atoms: C_14  and  C_16
REMARK    5  A    between atoms: C_16  and  C_18
REMARK    6  A    between atoms: C_16  and  N_19
REMARK    7  A    between atoms: C_22  and  C_25
REMARK    8  A    between atoms: N_27  and  C_28
REMARK    9  A    between atoms: C_28  and  C_29
REMARK                            x       y       z     vdW  Elec       q    Type
REMARK                         _______ _______ _______ _____ _____    ______ ____
ROOT
ATOM      1  N   UNL     1      -2.313  -2.603   1.067  0.00  0.00    +0.387 N 
ATOM      2  C   UNL     1      -2.538  -1.951   2.364  0.00  0.00    -0.077 C 
ATOM      3  C   UNL     1      -3.948  -2.276   2.861  0.00  0.00    -0.006 C 
ATOM      4  C   UNL     1      -4.099  -3.793   2.999  0.00  0.00    +0.071 C 
ATOM      5  C   UNL     1      -3.812  -4.452   1.646  0.00  0.00    -0.006 C 
ATOM      6  C   UNL     1      -2.406  -4.064   1.184  0.00  0.00    -0.077 C 
ATOM      7  H   UNL     1      -3.107  -2.270   0.382  0.00  0.00    -0.081 HD
ENDROOT
BRANCH   4   8
ATOM      8  C   UNL     1      -5.505  -4.123   3.431  0.00  0.00    +0.216 C 
ATOM      9  O   UNL     1      -6.209  -4.816   2.727  0.00  0.00    -0.276 OA
ATOM     10  N   UNL     1      -5.979  -3.647   4.599  0.00  0.00    -0.311 N 
ATOM     11  H   UNL     1      -5.340  -3.019   5.237  0.00  0.00    +0.149 HD
BRANCH  10  12
ATOM     12  C   UNL     1      -7.346  -3.968   5.019  0.00  0.00    +0.139 C 
BRANCH  12  13
ATOM     13  C   UNL     1      -7.627  -3.319   6.351  0.00  0.00    -0.030 A 
ATOM     14  C   UNL     1      -7.359  -4.002   7.522  0.00  0.00    +0.005 A 
ATOM     15  C   UNL     1      -7.612  -3.406   8.743  0.00  0.00    +0.000 A 
ATOM     16  C   UNL     1      -8.143  -2.130   8.793  0.00  0.00    +0.000 A 
ATOM     17  C   UNL     1      -8.416  -1.449   7.621  0.00  0.00    +0.000 A 
ATOM     18  C   UNL     1      -8.157  -2.044   6.400  0.00  0.00    +0.005 A 
ENDBRANCH  12  13
ENDBRANCH  10  12
ENDBRANCH   4   8
BRANCH   1  19
ATOM     19  C   UNL     1      -1.021  -2.202   0.493  0.00  0.00    +0.016 C 
ATOM     20  C   UNL     1       0.108  -2.942   1.212  0.00  0.00    -0.004 C 
BRANCH  19  22
ATOM     21  N   UNL     1      -0.049  -2.016  -1.773  0.00  0.00    -0.307 N 
ATOM     22  C   UNL     1      -0.994  -2.547  -0.973  0.00  0.00    +0.200 C 
ATOM     23  O   UNL     1      -1.824  -3.302  -1.434  0.00  0.00    -0.278 OA
ATOM     24  H   UNL     1       0.704  -1.330  -1.355  0.00  0.00    +0.149 HD
BRANCH  21  26
ATOM     25  C   UNL     1       0.748  -3.657  -3.402  0.00  0.00    +0.036 C 
ATOM     26  C   UNL     1      -0.022  -2.351  -3.199  0.00  0.00    +0.136 C 
BRANCH  26  27
ATOM     27  C   UNL     1       0.657  -1.244  -3.963  0.00  0.00    +0.126 A 
ATOM     28  C   UNL     1       0.265  -0.785  -5.160  0.00  0.00    +0.055 A 
ATOM     29  C   UNL     1       1.206   0.283  -5.517  0.00  0.00    +0.020 A 
ATOM     30  C   UNL     1       1.341   1.139  -6.609  0.00  0.00    +0.011 A 
ATOM     31  C   UNL     1       2.363   2.047  -6.636  0.00  0.00    +0.001 A 
ATOM     32  C   UNL     1       3.265   2.122  -5.585  0.00  0.00    +0.004 A 
ATOM     33  C   UNL     1       3.147   1.284  -4.496  0.00  0.00    +0.047 A 
ATOM     34  C   UNL     1       2.116   0.354  -4.449  0.00  0.00    +0.135 A 
ATOM     35  O   UNL     1       1.747  -0.577  -3.546  0.00  0.00    -0.458 OA
ENDBRANCH  26  27
ENDBRANCH  21  26
ENDBRANCH  19  22
ENDBRANCH   1  19
TORSDOF 7
