REMARK  Name = ZINC29720052
REMARK  8 active torsions:
REMARK  status: ('A' for Active; 'I' for Inactive)
REMARK    1  A    between atoms: C_1  and  C_2
REMARK    2  A    between atoms: C_2  and  C_4
REMARK    3  A    between atoms: C_2  and  N_14
REMARK    4  A    between atoms: N_6  and  C_7
REMARK    5  A    between atoms: N_14  and  C_15
REMARK    6  A    between atoms: C_18  and  N_21
REMARK    7  A    between atoms: N_24  and  C_25
REMARK    8  A    between atoms: C_25  and  C_26
REMARK                            x       y       z     vdW  Elec       q    Type
REMARK                         _______ _______ _______ _____ _____    ______ ____
ROOT
ATOM      1  C   UNL     1      -1.499   1.701   1.888  0.00  0.00    +0.028 A 
ATOM      2  C   UNL     1      -1.917   0.553   1.227  0.00  0.00    +0.025 A 
ATOM      3  C   UNL     1      -2.929  -0.220   1.760  0.00  0.00    +0.025 A 
ATOM      4  C   UNL     1      -3.537   0.157   2.950  0.00  0.00    +0.035 A 
ATOM      5  C   UNL     1      -3.123   1.308   3.607  0.00  0.00    +0.025 A 
ATOM      6  C   UNL     1      -2.107   2.078   3.078  0.00  0.00    +0.025 A 
ENDROOT
BRANCH   4   7
ATOM      7  N   UNL     1      -4.569  -0.625   3.488  0.00  0.00    -0.269 N 
ATOM      8  C   UNL     1      -5.593  -0.036   4.136  0.00  0.00    +0.304 C 
ATOM      9  O   UNL     1      -5.581   1.165   4.328  0.00  0.00    -0.252 OA
ATOM     10  N   UNL     1      -6.631  -0.777   4.572  0.00  0.00    -0.292 N 
ATOM     11  H   UNL     1      -4.543  -1.719   3.381  0.00  0.00    +0.156 HD
ATOM     12  H   UNL     1      -6.642  -1.863   4.398  0.00  0.00    +0.151 HD
BRANCH  10  13
ATOM     13  C   UNL     1      -7.744  -0.136   5.276  0.00  0.00    +0.180 C 
BRANCH  13  14
ATOM     14  C   UNL     1      -8.766  -1.178   5.654  0.00  0.00    +0.122 A 
ATOM     15  C   UNL     1      -8.788  -1.879   6.801  0.00  0.00    +0.046 A 
ATOM     16  C   UNL     1      -9.910  -2.737   6.736  0.00  0.00    +0.041 A 
ATOM     17  C   UNL     1     -10.507  -2.509   5.552  0.00  0.00    +0.195 A 
ATOM     18  O   UNL     1      -9.813  -1.559   4.903  0.00  0.00    -0.466 OA
ENDBRANCH  13  14
ENDBRANCH  10  13
ENDBRANCH   4   7
BRANCH   1  19
ATOM     19  N   UNL     1      -0.469   2.481   1.351  0.00  0.00    -0.333 N 
ATOM     20  H   UNL     1      -0.141   3.393   1.872  0.00  0.00    +0.147 HD
BRANCH  19  22
ATOM     21  C   UNL     1      -0.644   2.613  -1.085  0.00  0.00    +0.038 C 
ATOM     22  C   UNL     1       0.173   2.084   0.095  0.00  0.00    +0.154 C 
BRANCH  22  23
ATOM     23  C   UNL     1       1.565   2.658   0.039  0.00  0.00    +0.237 C 
ATOM     24  O   UNL     1       1.981   3.332   0.958  0.00  0.00    -0.273 OA
ATOM     25  N   UNL     1       2.349   2.421  -1.032  0.00  0.00    -0.284 N 
ATOM     26  H   UNL     1       2.002   1.748  -1.829  0.00  0.00    +0.155 HD
BRANCH  25  27
ATOM     27  C   UNL     1       3.604   3.032  -1.128  0.00  0.00    +0.036 A 
ATOM     28  C   UNL     1       4.364   3.246   0.015  0.00  0.00    +0.023 A 
ATOM     29  C   UNL     1       5.602   3.849  -0.083  0.00  0.00    +0.005 A 
ATOM     30  C   UNL     1       6.088   4.241  -1.317  0.00  0.00    +0.038 A 
ATOM     31  C   UNL     1       5.334   4.029  -2.459  0.00  0.00    +0.125 A 
ATOM     32  C   UNL     1       4.095   3.420  -2.368  0.00  0.00    +0.061 A 
ATOM     33  F   UNL     1       5.811   4.412  -3.664  0.00  0.00    -0.205 F 
ENDBRANCH  25  27
ENDBRANCH  22  23
ENDBRANCH  19  22
ENDBRANCH   1  19
TORSDOF 7
