REMARK  Name = ZINC29566053
REMARK  8 active torsions:
REMARK  status: ('A' for Active; 'I' for Inactive)
REMARK    1  A    between atoms: C_1  and  C_2
REMARK    2  A    between atoms: N_6  and  C_7
REMARK    3  A    between atoms: C_7  and  C_16
REMARK    4  A    between atoms: C_8  and  C_9
REMARK    5  A    between atoms: N_18  and  C_19
REMARK    6  A    between atoms: C_19  and  C_20
REMARK    7  A    between atoms: C_20  and  C_21
REMARK    8  A    between atoms: C_20  and  C_22
REMARK                            x       y       z     vdW  Elec       q    Type
REMARK                         _______ _______ _______ _____ _____    ______ ____
ROOT
ATOM      1  C   UNL     1      -1.053   1.626  -0.241  0.00  0.00    +0.131 C 
ATOM      2  C   UNL     1       0.029   0.814  -0.205  0.00  0.00    +0.041 C 
ENDROOT
BRANCH   2   3
ATOM      3  C   UNL     1       1.381   1.392  -0.176  0.00  0.00    -0.023 A 
ATOM      4  C   UNL     1       2.473   0.649  -0.638  0.00  0.00    +0.011 A 
ATOM      5  C   UNL     1       3.736   1.198  -0.612  0.00  0.00    +0.039 A 
ATOM      6  C   UNL     1       3.929   2.480  -0.119  0.00  0.00    +0.123 A 
ATOM      7  C   UNL     1       2.851   3.220   0.345  0.00  0.00    +0.039 A 
ATOM      8  C   UNL     1       1.582   2.684   0.320  0.00  0.00    +0.011 A 
ATOM      9  F   UNL     1       5.171   3.010  -0.091  0.00  0.00    -0.205 F 
ENDBRANCH   2   3
BRANCH   1  15
ATOM     10  C   UNL     1      -2.027   3.795   1.743  0.00  0.00    +0.090 C 
ATOM     11  C   UNL     1      -1.296   3.985   0.440  0.00  0.00    +0.154 A 
ATOM     12  N   UNL     1      -0.938   5.126  -0.089  0.00  0.00    -0.113 NA
ATOM     13  N   UNL     1      -0.330   4.938  -1.205  0.00  0.00    -0.023 NA
ATOM     14  N   UNL     1      -0.254   3.677  -1.462  0.00  0.00    -0.039 NA
ATOM     15  N   UNL     1      -0.887   3.009  -0.399  0.00  0.00    -0.192 N 
ENDBRANCH   1  15
BRANCH   1  16
ATOM     16  C   UNL     1      -2.402   1.058  -0.115  0.00  0.00    +0.263 C 
ATOM     17  O   UNL     1      -2.543  -0.124   0.134  0.00  0.00    -0.269 OA
ATOM     18  N   UNL     1      -3.483   1.847  -0.276  0.00  0.00    -0.310 N 
ATOM     19  H   UNL     1      -3.357   2.897  -0.579  0.00  0.00    +0.149 HD
BRANCH  18  20
ATOM     20  C   UNL     1      -4.825   1.306  -0.047  0.00  0.00    +0.107 C 
BRANCH  20  21
ATOM     21  C   UNL     1      -5.870   2.361  -0.416  0.00  0.00    -0.000 C 
ATOM     22  C   UNL     1      -5.795   2.649  -1.917  0.00  0.00    +0.009 C 
ATOM     23  C   UNL     1      -7.265   1.841  -0.066  0.00  0.00    +0.009 C 
ENDBRANCH  20  21
ENDBRANCH  18  20
ENDBRANCH   1  16
TORSDOF 5
