REMARK  Name = ZINC22039088
REMARK  9 active torsions:
REMARK  status: ('A' for Active; 'I' for Inactive)
REMARK    1  A    between atoms: C_1  and  C_2
REMARK    2  A    between atoms: C_7  and  C_9
REMARK    3  A    between atoms: C_7  and  C_10
REMARK    4  A    between atoms: N_13  and  C_17
REMARK    5  A    between atoms: C_17  and  C_18
REMARK    6  A    between atoms: C_18  and  O_20
REMARK    7  A    between atoms: O_20  and  C_21
REMARK    8  A    between atoms: C_21  and  C_22
REMARK    9  A    between atoms: N_24  and  C_25
REMARK                            x       y       z     vdW  Elec       q    Type
REMARK                         _______ _______ _______ _____ _____    ______ ____
ROOT
ATOM      1  C   UNL     1      -0.051  -3.413  -4.625  0.00  0.00    +0.238 C 
ENDROOT
BRANCH   1  13
ATOM      2  C   UNL     1       0.802   1.572   0.342  0.00  0.00    +0.007 C 
ATOM      3  C   UNL     1       0.495   0.081   0.192  0.00  0.00    -0.011 C 
ATOM      4  C   UNL     1       0.973  -0.403  -1.180  0.00  0.00    +0.038 C 
ATOM      5  C   UNL     1       0.687  -1.894  -1.323  0.00  0.00    +0.113 C 
ATOM      6  C   UNL     1       1.387  -2.685  -0.223  0.00  0.00    +0.041 C 
ATOM      7  C   UNL     1       0.908  -2.193   1.145  0.00  0.00    -0.032 C 
ATOM      8  C   UNL     1       1.220  -0.702   1.288  0.00  0.00    +0.009 C 
ATOM      9  C   UNL     1       1.626  -2.973   2.248  0.00  0.00    +0.011 C 
ATOM     10  C   UNL     1      -0.602  -2.411   1.266  0.00  0.00    +0.011 C 
ATOM     11  C   UNL     1       1.120  -2.387  -2.684  0.00  0.00    +0.247 C 
ATOM     12  O   UNL     1       2.241  -2.377  -3.146  0.00  0.00    -0.273 OA
ATOM     13  N   UNL     1      -0.004  -2.839  -3.277  0.00  0.00    -0.213 N 
ATOM     14  C   UNL     1      -1.072  -2.700  -2.482  0.00  0.00    +0.310 C 
ATOM     15  O   UNL     1      -2.197  -3.036  -2.796  0.00  0.00    -0.252 OA
ATOM     16  N   UNL     1      -0.759  -2.145  -1.295  0.00  0.00    -0.285 N 
ATOM     17  H   UNL     1      -1.369  -1.950  -0.567  0.00  0.00    +0.151 HD
ENDBRANCH   1  13
BRANCH   1  18
ATOM     18  C   UNL     1       0.168  -4.901  -4.545  0.00  0.00    +0.326 C 
ATOM     19  O   UNL     1       0.345  -5.430  -3.473  0.00  0.00    -0.249 OA
BRANCH  18  20
ATOM     20  O   UNL     1       0.167  -5.641  -5.665  0.00  0.00    -0.454 OA
BRANCH  20  21
ATOM     21  C   UNL     1       0.381  -7.046  -5.516  0.00  0.00    +0.328 C 
BRANCH  21  22
ATOM     22  C   UNL     1       0.346  -7.706  -6.870  0.00  0.00    +0.255 C 
ATOM     23  O   UNL     1       0.157  -7.040  -7.865  0.00  0.00    -0.272 OA
ATOM     24  N   UNL     1       0.525  -9.038  -6.974  0.00  0.00    -0.281 N 
ATOM     25  H   UNL     1       0.601  -9.582  -6.175  0.00  0.00    +0.155 HD
BRANCH  24  26
ATOM     26  C   UNL     1       0.602  -9.637  -8.238  0.00  0.00    +0.053 A 
ATOM     27  C   UNL     1       1.164  -8.945  -9.302  0.00  0.00    +0.025 A 
ATOM     28  C   UNL     1       1.240  -9.537 -10.547  0.00  0.00    +0.003 A 
ATOM     29  C   UNL     1       0.755 -10.819 -10.736  0.00  0.00    +0.021 A 
ATOM     30  C   UNL     1       0.195 -11.512  -9.678  0.00  0.00    +0.061 A 
ATOM     31  C   UNL     1       0.121 -10.926  -8.427  0.00  0.00    +0.080 A 
ATOM     32 CL   UNL     1      -0.576 -11.798  -7.098  0.00  0.00    -0.080 Cl
ATOM     33 CL   UNL     1      -0.412 -13.121  -9.919  0.00  0.00    -0.082 Cl
ENDBRANCH  24  26
ENDBRANCH  21  22
ENDBRANCH  20  21
ENDBRANCH  18  20
ENDBRANCH   1  18
TORSDOF 6
