REMARK  Name = ZINC38621581
REMARK  11 active torsions:
REMARK  status: ('A' for Active; 'I' for Inactive)
REMARK    1  A    between atoms: C_1  and  C_2
REMARK    2  A    between atoms: C_3  and  C_30
REMARK    3  A    between atoms: N_6  and  C_23
REMARK    4  A    between atoms: C_8  and  C_9
REMARK    5  A    between atoms: C_9  and  C_11
REMARK    6  A    between atoms: C_23  and  C_24
REMARK    7  A    between atoms: C_24  and  C_25
REMARK    8  A    between atoms: C_25  and  O_26
REMARK    9  A    between atoms: O_26  and  C_27
REMARK   10  A    between atoms: C_27  and  C_28
REMARK   11  A    between atoms: C_27  and  C_29
REMARK                            x       y       z     vdW  Elec       q    Type
REMARK                         _______ _______ _______ _____ _____    ______ ____
ROOT
ATOM      1  C   UNL     1      -0.726   1.671   0.313  0.00  0.00    +0.046 C 
ATOM      2  C   UNL     1      -0.452   0.205   0.098  0.00  0.00    -0.012 A 
ATOM      3  C   UNL     1      -0.653  -0.377  -1.150  0.00  0.00    +0.120 A 
ATOM      4  C   UNL     1      -0.374  -1.804  -1.316  0.00  0.00    +0.272 A 
ATOM      5  O   UNL     1      -0.541  -2.337  -2.398  0.00  0.00    -0.266 OA
ATOM      6  N   UNL     1       0.068  -2.526  -0.269  0.00  0.00    -0.274 N 
ATOM      7  C   UNL     1       0.262  -1.955   0.944  0.00  0.00    +0.265 A 
ATOM      8  C   UNL     1       0.016  -0.596   1.153  0.00  0.00    +0.092 A 
ATOM      9  O   UNL     1       0.704  -2.711   1.967  0.00  0.00    -0.267 OA
ENDROOT
BRANCH   8  10
ATOM     10  C   UNL     1       0.243  -0.004   2.481  0.00  0.00    +0.207 C 
ATOM     11  O   UNL     1      -0.444  -0.348   3.426  0.00  0.00    -0.286 OA
BRANCH  10  12
ATOM     12  C   UNL     1       1.296   1.001   2.666  0.00  0.00    +0.079 A 
ATOM     13  C   UNL     1       1.621   1.692   3.795  0.00  0.00    +0.068 A 
ATOM     14  C   UNL     1       2.676   2.623   3.766  0.00  0.00    +0.027 A 
ATOM     15  C   UNL     1       3.329   2.762   2.519  0.00  0.00    +0.023 A 
ATOM     16  S   UNL     1       2.471   1.614   1.471  0.00  0.00    -0.083 S 
ATOM     17  C   UNL     1       4.380   3.634   2.333  0.00  0.00    +0.016 A 
ATOM     18  C   UNL     1       4.821   4.403   3.392  0.00  0.00    +0.003 A 
ATOM     19  C   UNL     1       4.199   4.288   4.628  0.00  0.00    +0.021 A 
ATOM     20  C   UNL     1       3.162   3.432   4.827  0.00  0.00    +0.051 A 
ATOM     21 CL   UNL     1       2.422   3.329   6.394  0.00  0.00    -0.083 Cl
ATOM     22 CL   UNL     1       0.736   1.425   5.264  0.00  0.00    -0.082 Cl
ENDBRANCH  10  12
ENDBRANCH   8  10
BRANCH   3  23
ATOM     23  C   UNL     1      -1.124   0.407  -2.252  0.00  0.00    +0.105 C 
ATOM     24  N   UNL     1      -1.498   1.029  -3.126  0.00  0.00    -0.191 NA
ENDBRANCH   3  23
BRANCH   6  25
ATOM     25  C   UNL     1       0.344  -3.954  -0.445  0.00  0.00    +0.131 C 
BRANCH  25  26
ATOM     26  C   UNL     1       1.802  -4.143  -0.869  0.00  0.00    +0.050 C 
BRANCH  26  27
ATOM     27  C   UNL     1       2.091  -5.634  -1.052  0.00  0.00    +0.162 C 
BRANCH  27  28
ATOM     28  O   UNL     1       3.452  -5.811  -1.448  0.00  0.00    -0.377 OA
BRANCH  28  29
ATOM     29  C   UNL     1       3.827  -7.175  -1.648  0.00  0.00    +0.112 C 
ATOM     30  C   UNL     1       3.571  -7.567  -3.104  0.00  0.00    +0.037 C 
ATOM     31  C   UNL     1       5.314  -7.347  -1.328  0.00  0.00    +0.037 C 
ENDBRANCH  28  29
ENDBRANCH  27  28
ENDBRANCH  26  27
ENDBRANCH  25  26
ENDBRANCH   6  25
TORSDOF 8
