REMARK  Name = ZINC37441866
REMARK  4 active torsions:
REMARK  status: ('A' for Active; 'I' for Inactive)
REMARK    1  A    between atoms: C_1  and  N_2
REMARK    2  A    between atoms: C_3  and  N_20
REMARK    3  A    between atoms: C_4  and  C_7
REMARK    4  A    between atoms: N_15  and  C_16
REMARK                            x       y       z     vdW  Elec       q    Type
REMARK                         _______ _______ _______ _____ _____    ______ ____
ROOT
ATOM      1  C   UNL     1      -0.088  -3.326  -1.503  0.00  0.00    +0.147 A 
ATOM      2  N   UNL     1      -0.139  -3.321  -2.815  0.00  0.00    -0.227 NA
ATOM      3  C   UNL     1       0.065  -4.578  -3.284  0.00  0.00    +0.091 A 
ATOM      4  C   UNL     1       0.112  -5.127  -4.569  0.00  0.00    +0.045 A 
ATOM      5  C   UNL     1       0.343  -6.475  -4.729  0.00  0.00    +0.020 A 
ATOM      6  C   UNL     1       0.529  -7.294  -3.624  0.00  0.00    +0.017 A 
ATOM      7  C   UNL     1       0.485  -6.768  -2.349  0.00  0.00    +0.029 A 
ATOM      8  C   UNL     1       0.254  -5.413  -2.169  0.00  0.00    +0.069 A 
ATOM      9  N   UNL     1       0.159  -4.596  -1.055  0.00  0.00    -0.320 N 
ATOM     10 BR   UNL     1       0.406  -7.216  -6.468  0.00  0.00    -0.050 Br
ENDROOT
BRANCH   1  14
ATOM     11  C   UNL     1      -0.706   1.392   0.058  0.00  0.00    +0.174 C 
ATOM     12  N   UNL     1      -0.536  -0.063   0.037  0.00  0.00    -0.253 N 
ATOM     13  C   UNL     1      -0.398  -0.826  -1.068  0.00  0.00    +0.125 A 
ATOM     14  C   UNL     1      -0.263  -2.142  -0.643  0.00  0.00    +0.076 A 
ATOM     15  C   UNL     1      -0.326  -2.131   0.767  0.00  0.00    +0.147 A 
ATOM     16  N   UNL     1      -0.482  -0.897   1.159  0.00  0.00    -0.178 NA
BRANCH  13  17
ATOM     17  N   UNL     1      -0.393  -0.381  -2.379  0.00  0.00    -0.343 N 
ATOM     18  H   UNL     1      -0.494   0.565  -2.570  0.00  0.00    +0.144 HD
ATOM     19  H   UNL     1      -0.287  -1.014  -3.106  0.00  0.00    +0.144 HD
ENDBRANCH  13  17
ENDBRANCH   1  14
BRANCH   9  20
ATOM     20  C   UNL     1       0.293  -5.014   0.343  0.00  0.00    +0.089 C 
ATOM     21  C   UNL     1       1.446  -5.958   0.691  0.00  0.00    +0.027 C 
ATOM     22  C   UNL     1       1.501  -4.491   1.124  0.00  0.00    +0.027 C 
ENDBRANCH   9  20
TORSDOF 3
