REMARK  Name = ZINC35465719
REMARK  9 active torsions:
REMARK  status: ('A' for Active; 'I' for Inactive)
REMARK    1  A    between atoms: C_1  and  C_2
REMARK    2  A    between atoms: C_6  and  C_37
REMARK    3  A    between atoms: C_12  and  C_36
REMARK    4  A    between atoms: C_13  and  O_32
REMARK    5  A    between atoms: C_18  and  C_31
REMARK    6  A    between atoms: C_28  and  C_29
REMARK    7  A    between atoms: C_28  and  C_30
REMARK    8  A    between atoms: O_32  and  C_33
REMARK    9  A    between atoms: C_33  and  C_35
REMARK                            x       y       z     vdW  Elec       q    Type
REMARK                         _______ _______ _______ _____ _____    ______ ____
ROOT
ATOM      1  C   UNL     1       0.912   2.641   0.837  0.00  0.00    +0.060 C 
ATOM      2  C   UNL     1       0.506   1.213   0.450  0.00  0.00    +0.240 C 
ATOM      3  C   UNL     1       1.093   0.886  -0.915  0.00  0.00    +0.184 C 
ATOM      4  O   UNL     1       1.522   1.743  -1.640  0.00  0.00    -0.293 OA
ATOM      5  C   UNL     1       1.111  -0.594  -1.274  0.00  0.00    +0.064 C 
ATOM      6  C   UNL     1       1.984  -1.199  -0.169  0.00  0.00    +0.125 C 
ATOM      7  C   UNL     1       1.201  -0.992   1.101  0.00  0.00    +0.313 C 
ATOM      8  O   UNL     1       0.767  -1.887   1.777  0.00  0.00    -0.250 OA
ATOM      9  O   UNL     1       0.985   0.304   1.441  0.00  0.00    -0.454 OA
ATOM     10  C   UNL     1       2.513  -2.566  -0.463  0.00  0.00    +0.023 C 
ATOM     11  C   UNL     1       3.444  -3.075   0.645  0.00  0.00    +0.184 C 
ATOM     12  C   UNL     1       4.572  -2.066   0.851  0.00  0.00    +0.050 C 
ATOM     13  C   UNL     1       5.459  -2.032  -0.400  0.00  0.00    +0.016 C 
ATOM     14  C   UNL     1       4.633  -1.709  -1.635  0.00  0.00    -0.006 C 
ATOM     15  C   UNL     1       3.347  -2.522  -1.749  0.00  0.00    +0.013 C 
ATOM     16  C   UNL     1       2.498  -2.079  -2.929  0.00  0.00    +0.036 C 
ATOM     17  C   UNL     1       1.625  -0.880  -2.641  0.00  0.00    -0.062 C 
ATOM     18  C   UNL     1       1.281  -0.100  -3.660  0.00  0.00    +0.008 C 
ATOM     19  C   UNL     1       4.359  -0.247  -1.788  0.00  0.00    -0.016 C 
ATOM     20  C   UNL     1       5.014   0.701  -1.133  0.00  0.00    +0.043 C 
ATOM     21  C   UNL     1       6.097   0.367  -0.211  0.00  0.00    +0.162 C 
ATOM     22  O   UNL     1       6.597   1.227   0.492  0.00  0.00    -0.292 OA
ATOM     23  C   UNL     1       6.609  -1.055  -0.154  0.00  0.00    +0.031 C 
ATOM     24  C   UNL     1       7.211  -1.281   1.250  0.00  0.00    +0.019 C 
ATOM     25  C   UNL     1       7.764  -1.230  -1.148  0.00  0.00    +0.019 C 
ATOM     26  C   UNL     1       5.455  -2.137  -2.875  0.00  0.00    +0.016 C 
ATOM     27  C   UNL     1       1.401  -3.612  -0.629  0.00  0.00    +0.016 C 
ATOM     28  C   UNL     1      -0.342  -1.086  -1.164  0.00  0.00    +0.025 C 
ENDROOT
BRANCH  11  29
ATOM     29  O   UNL     1       2.734  -3.282   1.860  0.00  0.00    -0.461 OA
BRANCH  29  30
ATOM     30  C   UNL     1       3.191  -4.244   2.676  0.00  0.00    +0.304 C 
ATOM     31  O   UNL     1       4.164  -4.889   2.365  0.00  0.00    -0.251 OA
ATOM     32  C   UNL     1       2.490  -4.521   3.981  0.00  0.00    +0.136 C 
ENDBRANCH  29  30
ENDBRANCH  11  29
TORSDOF 2
