REMARK  Name = ZINC05740232
REMARK  5 active torsions:
REMARK  status: ('A' for Active; 'I' for Inactive)
REMARK    1  A    between atoms: C_1  and  C_2
REMARK    2  A    between atoms: C_5  and  C_28
REMARK    3  A    between atoms: N_6  and  C_7
REMARK    4  A    between atoms: C_11  and  C_12
REMARK    5  A    between atoms: C_16  and  C_22
REMARK                            x       y       z     vdW  Elec       q    Type
REMARK                         _______ _______ _______ _____ _____    ______ ____
ROOT
ATOM      1  C   UNL     1       2.606  -0.275   2.608  0.00  0.00    +0.104 A 
ATOM      2  C   UNL     1       3.776  -0.018   3.348  0.00  0.00    +0.077 A 
ATOM      3  C   UNL     1       4.842  -0.264   2.540  0.00  0.00    +0.139 A 
ATOM      4  N   UNL     1       6.206  -0.175   2.753  0.00  0.00    -0.339 N 
ATOM      5  C   UNL     1       7.080  -0.489   1.743  0.00  0.00    +0.053 A 
ATOM      6  C   UNL     1       6.595  -0.888   0.529  0.00  0.00    +0.098 A 
ATOM      7  C   UNL     1       5.208  -0.973   0.326  0.00  0.00    +0.275 A 
ATOM      8  N   UNL     1       4.359  -0.663   1.325  0.00  0.00    -0.180 N 
ATOM      9  N   UNL     1       2.959  -0.666   1.398  0.00  0.00    -0.161 NA
ATOM     10  O   UNL     1       4.772  -1.328  -0.755  0.00  0.00    -0.266 OA
ATOM     11  H   UNL     1       6.544   0.109   3.617  0.00  0.00    +0.167 HD
ENDROOT
BRANCH   5  12
ATOM     12  C   UNL     1       8.537  -0.395   1.967  0.00  0.00    -0.001 A 
ATOM     13  C   UNL     1       9.032   0.007   3.209  0.00  0.00    +0.010 A 
ATOM     14  C   UNL     1      10.394   0.093   3.410  0.00  0.00    +0.001 A 
ATOM     15  C   UNL     1      11.269  -0.219   2.385  0.00  0.00    +0.000 A 
ATOM     16  C   UNL     1      10.786  -0.618   1.152  0.00  0.00    +0.001 A 
ATOM     17  C   UNL     1       9.426  -0.714   0.938  0.00  0.00    +0.010 A 
ENDBRANCH   5  12
BRANCH   1  22
ATOM     18  C   UNL     1       0.030  -0.373   2.438  0.00  0.00    +0.063 A 
ATOM     19  C   UNL     1      -1.153  -0.173   3.125  0.00  0.00    +0.034 A 
ATOM     20  C   UNL     1      -1.107   0.249   4.413  0.00  0.00    +0.048 A 
ATOM     21  S   UNL     1       0.647   0.385   4.710  0.00  0.00    -0.093 S 
ATOM     22  C   UNL     1       1.221  -0.136   3.102  0.00  0.00    +0.063 A 
BRANCH  18  28
ATOM     23  C   UNL     1      -0.018   1.503   0.010  0.00  0.00    +0.064 C 
ATOM     24  C   UNL     1       0.002  -0.004   0.002  0.00  0.00    +0.021 A 
ATOM     25  C   UNL     1       0.008  -0.789  -1.095  0.00  0.00    +0.023 A 
ATOM     26  C   UNL     1       0.028  -2.128  -0.657  0.00  0.00    +0.023 A 
ATOM     27  C   UNL     1       0.034  -2.112   0.692  0.00  0.00    +0.021 A 
ATOM     28  N   UNL     1       0.024  -0.810   1.103  0.00  0.00    -0.317 N 
ATOM     29  C   UNL     1       0.054  -3.321   1.591  0.00  0.00    +0.064 C 
ENDBRANCH  18  28
ENDBRANCH   1  22
TORSDOF 3
