REMARK  Name = ZINC27571992
REMARK  15 active torsions:
REMARK  status: ('A' for Active; 'I' for Inactive)
REMARK    1  A    between atoms: C_1  and  C_2
REMARK    2  A    between atoms: C_2  and  C_3
REMARK    3  A    between atoms: C_2  and  C_4
REMARK    4  A    between atoms: C_2  and  C_5
REMARK    5  A    between atoms: C_7  and  C_16
REMARK    6  A    between atoms: C_9  and  C_12
REMARK    7  A    between atoms: C_10  and  O_11
REMARK    8  A    between atoms: C_12  and  C_13
REMARK    9  A    between atoms: C_12  and  C_14
REMARK   10  A    between atoms: C_12  and  C_15
REMARK   11  A    between atoms: N_17  and  N_18
REMARK   12  A    between atoms: C_19  and  C_21
REMARK   13  A    between atoms: C_22  and  C_32
REMARK   14  A    between atoms: C_32  and  O_33
REMARK   15  A    between atoms: O_33  and  C_34
REMARK                            x       y       z     vdW  Elec       q    Type
REMARK                         _______ _______ _______ _____ _____    ______ ____
ROOT
ATOM      1  N   UNL     1       2.390   7.740   0.067  0.00  0.00    -0.202 N 
ATOM      2  C   UNL     1       1.100   7.350   0.067  0.00  0.00    +0.285 C 
ATOM      3  O   UNL     1       0.213   8.182   0.076  0.00  0.00    -0.267 OA
ATOM      4  H   UNL     1       3.192   6.988   0.058  0.00  0.00    +0.178 HD
ENDROOT
BRANCH   2   5
ATOM      5  C   UNL     1       0.764   5.914   0.053  0.00  0.00    +0.174 A 
ATOM      6  C   UNL     1      -0.497   5.389   0.046  0.00  0.00    +0.105 A 
ATOM      7  N   UNL     1      -0.360   4.045   0.038  0.00  0.00    -0.190 N 
ATOM      8  N   UNL     1       1.016   3.778   0.032  0.00  0.00    -0.058 NA
ATOM      9  N   UNL     1       1.647   4.901   0.041  0.00  0.00    -0.124 NA
ATOM     10  C   UNL     1      -1.393   3.100   0.031  0.00  0.00    +0.240 A 
ATOM     11  C   UNL     1      -1.224   1.645   0.017  0.00  0.00    +0.206 A 
ATOM     12  N   UNL     1      -2.408   1.094   0.020  0.00  0.00    -0.032 NA
ATOM     13  O   UNL     1      -3.369   2.134   0.031  0.00  0.00    -0.239 OA
ATOM     14  N   UNL     1      -2.669   3.366   0.034  0.00  0.00    -0.027 NA
ATOM     15  N   UNL     1      -0.011   0.966   0.007  0.00  0.00    -0.337 N 
ATOM     16  H   UNL     1       0.004  -0.134  -0.003  0.00  0.00    +0.144 HD
ATOM     17  H   UNL     1       0.934   1.529   0.011  0.00  0.00    +0.144 HD
BRANCH   6  18
ATOM     18  C   UNL     1      -1.792   6.161   0.050  0.00  0.00    +0.217 C 
BRANCH  18  19
ATOM     19  O   UNL     1      -2.202   6.396   1.398  0.00  0.00    -0.377 OA
ATOM     20  C   UNL     1      -3.426   7.125   1.515  0.00  0.00    +0.194 C 
ENDBRANCH  18  19
ENDBRANCH   6  18
ENDBRANCH   2   5
BRANCH   1  22
ATOM     21  C   UNL     1       3.951   9.480   0.081  0.00  0.00    +0.138 C 
ATOM     22  N   UNL     1       2.709   9.105   0.080  0.00  0.00    -0.187 NA
BRANCH  21  25
ATOM     23  C   UNL     1       5.933  12.666   0.107  0.00  0.00    +0.000 A 
ATOM     24  C   UNL     1       5.624  11.323   0.095  0.00  0.00    +0.017 A 
ATOM     25  C   UNL     1       4.287  10.916   0.094  0.00  0.00    -0.005 A 
ATOM     26  C   UNL     1       3.269  11.874   0.099  0.00  0.00    +0.017 A 
ATOM     27  C   UNL     1       3.588  13.214   0.117  0.00  0.00    +0.000 A 
ATOM     28  C   UNL     1       4.918  13.614   0.118  0.00  0.00    +0.124 A 
BRANCH  23  30
ATOM     29  C   UNL     1       8.284  11.876   0.094  0.00  0.00    +0.015 C 
ATOM     30  C   UNL     1       7.374  13.106   0.108  0.00  0.00    -0.009 C 
ATOM     31  C   UNL     1       7.649  13.957  -1.134  0.00  0.00    +0.015 C 
ATOM     32  C   UNL     1       7.654  13.933   1.365  0.00  0.00    +0.015 C 
ENDBRANCH  23  30
BRANCH  27  33
ATOM     33  C   UNL     1       2.492  14.248   0.128  0.00  0.00    -0.009 C 
ATOM     34  C   UNL     1       1.131  13.549   0.124  0.00  0.00    +0.015 C 
ATOM     35  C   UNL     1       2.618  15.111   1.385  0.00  0.00    +0.015 C 
ATOM     36  C   UNL     1       2.613  15.134  -1.113  0.00  0.00    +0.015 C 
ENDBRANCH  27  33
BRANCH  28  37
ATOM     37  O   UNL     1       5.228  14.937   0.129  0.00  0.00    -0.506 OA
ATOM     38  H   UNL     1       4.426  15.689   0.138  0.00  0.00    +0.292 HD
ENDBRANCH  28  37
ENDBRANCH  21  25
ENDBRANCH   1  22
TORSDOF 8
