REMARK  Name = ZINC65329904
REMARK  10 active torsions:
REMARK  status: ('A' for Active; 'I' for Inactive)
REMARK    1  A    between atoms: C_1  and  C_2
REMARK    2  A    between atoms: C_2  and  O_3
REMARK    3  A    between atoms: O_3  and  C_4
REMARK    4  A    between atoms: C_9  and  N_10
REMARK    5  A    between atoms: N_12  and  C_13
REMARK    6  A    between atoms: C_13  and  C_14
REMARK    7  A    between atoms: C_14  and  C_15
REMARK    8  A    between atoms: N_24  and  C_25
REMARK    9  A    between atoms: C_25  and  C_27
REMARK   10  A    between atoms: C_32  and  C_33
REMARK                            x       y       z     vdW  Elec       q    Type
REMARK                         _______ _______ _______ _____ _____    ______ ____
ROOT
ATOM      1  N   UNL     1       0.880  -1.310  -3.296  0.00  0.00    -0.325 N 
ATOM      2  C   UNL     1       1.164  -1.579  -4.603  0.00  0.00    +0.194 C 
ATOM      3  N   UNL     1       1.110  -0.582  -5.532  0.00  0.00    -0.357 N 
ATOM      4  N   UNL     1       1.493  -2.809  -4.970  0.00  0.00    -0.143 NA
ATOM      5  H   UNL     1       0.972   0.336  -5.251  0.00  0.00    +0.162 HD
ATOM      6  H   UNL     1       1.346  -1.786  -2.590  0.00  0.00    +0.169 HD
ENDROOT
BRANCH   1  12
ATOM      7  C   UNL     1      -0.174   0.142  -1.671  0.00  0.00    +0.144 A 
ATOM      8  C   UNL     1      -1.127   1.098  -1.359  0.00  0.00    +0.048 A 
ATOM      9  C   UNL     1      -1.989   1.561  -2.335  0.00  0.00    +0.004 A 
ATOM     10  C   UNL     1      -1.904   1.072  -3.626  0.00  0.00    +0.002 A 
ATOM     11  C   UNL     1      -0.957   0.118  -3.946  0.00  0.00    +0.029 A 
ATOM     12  C   UNL     1      -0.085  -0.347  -2.973  0.00  0.00    +0.084 A 
BRANCH   7  13
ATOM     13  O   UNL     1       0.674  -0.314  -0.712  0.00  0.00    -0.490 OA
BRANCH  13  15
ATOM     14  C   UNL     1       1.558  -0.396   1.536  0.00  0.00    +0.048 C 
ATOM     15  C   UNL     1       0.524   0.233   0.600  0.00  0.00    +0.226 C 
ENDBRANCH  13  15
ENDBRANCH   7  13
ENDBRANCH   1  12
BRANCH   4  16
ATOM     16  C   UNL     1       1.369  -3.822  -4.103  0.00  0.00    +0.270 C 
ATOM     17  O   UNL     1       0.797  -3.649  -3.041  0.00  0.00    -0.268 OA
BRANCH  16  18
ATOM     18  C   UNL     1       1.928  -5.153  -4.434  0.00  0.00    +0.042 A 
ATOM     19  C   UNL     1       2.570  -5.359  -5.656  0.00  0.00    +0.013 A 
ATOM     20  C   UNL     1       3.088  -6.601  -5.959  0.00  0.00    +0.001 A 
ATOM     21  C   UNL     1       2.973  -7.641  -5.054  0.00  0.00    +0.000 A 
ATOM     22  C   UNL     1       2.338  -7.444  -3.841  0.00  0.00    +0.004 A 
ATOM     23  C   UNL     1       1.820  -6.205  -3.524  0.00  0.00    -0.038 A 
ATOM     24  C   UNL     1       1.134  -5.989  -2.200  0.00  0.00    +0.044 C 
ENDBRANCH  16  18
ENDBRANCH   4  16
BRANCH   3  25
ATOM     25  C   UNL     1       1.260  -0.897  -6.955  0.00  0.00    +0.120 C 
BRANCH  25  26
ATOM     26  C   UNL     1       1.161   0.390  -7.776  0.00  0.00    +0.054 C 
BRANCH  26  27
ATOM     27  C   UNL     1       1.315   0.066  -9.239  0.00  0.00    -0.040 C 
ATOM     28  C   UNL     1       0.324  -0.147 -10.134  0.00  0.00    -0.001 A 
ATOM     29  C   UNL     1      -1.139  -0.143 -10.017  0.00  0.00    +0.010 A 
ATOM     30  C   UNL     1      -1.886  -0.399 -11.115  0.00  0.00    +0.001 A 
ATOM     31  C   UNL     1      -1.299  -0.668 -12.359  0.00  0.00    +0.002 A 
ATOM     32  C   UNL     1       0.038  -0.690 -12.545  0.00  0.00    +0.026 A 
ATOM     33  C   UNL     1       0.919  -0.434 -11.459  0.00  0.00    +0.043 A 
ATOM     34  N   UNL     1       2.228  -0.399 -11.386  0.00  0.00    -0.380 N 
ATOM     35  C   UNL     1       2.611  -0.080 -10.006  0.00  0.00    +0.144 C 
ATOM     36  H   UNL     1       2.840  -0.554 -12.122  0.00  0.00    +0.160 HD
ENDBRANCH  26  27
ENDBRANCH  25  26
ENDBRANCH   3  25
TORSDOF 8
