REMARK  Name = ZINC37281732
REMARK  5 active torsions:
REMARK  status: ('A' for Active; 'I' for Inactive)
REMARK    1  A    between atoms: C_1  and  O_2
REMARK    2  A    between atoms: O_2  and  C_3
REMARK    3  A    between atoms: C_9  and  N_11
REMARK    4  A    between atoms: N_11  and  C_12
REMARK    5  A    between atoms: C_15  and  N_19
REMARK                            x       y       z     vdW  Elec       q    Type
REMARK                         _______ _______ _______ _____ _____    ______ ____
ROOT
ATOM      1  N   UNL     1       0.235  -2.827   0.256  0.00  0.00    -0.337 N 
ATOM      2  H   UNL     1      -0.676  -2.707   0.568  0.00  0.00    +0.146 HD
ENDROOT
BRANCH   1   3
ATOM      3  C   UNL     1       0.538  -3.863  -0.631  0.00  0.00    +0.046 A 
ATOM      4  C   UNL     1       1.843  -4.039  -1.075  0.00  0.00    +0.026 A 
ATOM      5  C   UNL     1       2.139  -5.065  -1.951  0.00  0.00    +0.034 A 
ATOM      6  C   UNL     1       1.140  -5.916  -2.387  0.00  0.00    +0.128 A 
ATOM      7  C   UNL     1      -0.159  -5.745  -1.947  0.00  0.00    +0.054 A 
ATOM      8  C   UNL     1      -0.463  -4.724  -1.066  0.00  0.00    +0.064 A 
ATOM      9 CL   UNL     1      -2.093  -4.513  -0.508  0.00  0.00    -0.082 Cl
BRANCH   6  10
ATOM     10  N   UNL     1       1.463  -7.014  -3.326  0.00  0.00    +0.056 N 
ATOM     11  O   UNL     1       2.599  -7.165  -3.712  0.00  0.00    -0.126 OA
ATOM     12  O   UNL     1       0.590  -7.759  -3.708  0.00  0.00    -0.126 OA
ENDBRANCH   6  10
ENDBRANCH   1   3
BRANCH   1  18
ATOM     13  C   UNL     1       0.673  -0.582   1.123  0.00  0.00    +0.138 C 
ATOM     14  C   UNL     1      -0.329  -0.810   2.256  0.00  0.00    +0.033 C 
ATOM     15  C   UNL     1       0.390  -1.429   3.457  0.00  0.00    +0.003 C 
ATOM     16  C   UNL     1       1.008  -2.767   3.046  0.00  0.00    +0.002 C 
ATOM     17  C   UNL     1       2.010  -2.540   1.913  0.00  0.00    +0.025 C 
ATOM     18  C   UNL     1       1.291  -1.921   0.713  0.00  0.00    +0.099 C 
BRANCH  13  20
ATOM     19  C   UNL     1      -0.017   1.425   0.010  0.00  0.00    +0.194 C 
ATOM     20  O   UNL     1       0.002  -0.004   0.002  0.00  0.00    -0.378 OA
ENDBRANCH  13  20
ENDBRANCH   1  18
TORSDOF 4
