REMARK  Name = ZINC63893111
REMARK  11 active torsions:
REMARK  status: ('A' for Active; 'I' for Inactive)
REMARK    1  A    between atoms: C_1  and  N_2
REMARK    2  A    between atoms: N_2  and  C_3
REMARK    3  A    between atoms: C_7  and  S_9
REMARK    4  A    between atoms: S_9  and  C_10
REMARK    5  A    between atoms: C_10  and  C_11
REMARK    6  A    between atoms: N_13  and  C_14
REMARK    7  A    between atoms: C_14  and  C_15
REMARK    8  A    between atoms: C_15  and  C_17
REMARK    9  A    between atoms: C_15  and  C_25
REMARK   10  A    between atoms: C_20  and  O_23
REMARK   11  A    between atoms: O_23  and  C_24
REMARK                            x       y       z     vdW  Elec       q    Type
REMARK                         _______ _______ _______ _____ _____    ______ ____
ROOT
ATOM      1  C   UNL     1       5.935  -9.309   1.216  0.00  0.00    +0.064 C 
ENDROOT
BRANCH   1   2
ATOM      2  C   UNL     1       5.075  -9.741   0.056  0.00  0.00    -0.033 C 
ATOM      3  C   UNL     1       3.812 -10.222   0.115  0.00  0.00    -0.000 A 
ATOM      4  C   UNL     1       2.896 -10.476   1.233  0.00  0.00    +0.010 A 
ATOM      5  C   UNL     1       1.665 -10.973   0.973  0.00  0.00    +0.001 A 
ATOM      6  C   UNL     1       1.244 -11.250  -0.335  0.00  0.00    +0.002 A 
ATOM      7  C   UNL     1       2.029 -11.043  -1.413  0.00  0.00    +0.026 A 
ATOM      8  C   UNL     1       3.343 -10.522  -1.257  0.00  0.00    +0.043 A 
ATOM      9  N   UNL     1       4.279 -10.239  -2.129  0.00  0.00    -0.380 N 
ATOM     10  C   UNL     1       5.448  -9.720  -1.409  0.00  0.00    +0.145 C 
ATOM     11  H   UNL     1       4.210 -10.350  -3.090  0.00  0.00    +0.160 HD
ENDBRANCH   1   2
BRANCH   1  12
ATOM     12  C   UNL     1       7.190 -10.142   1.249  0.00  0.00    -0.038 A 
ATOM     13  C   UNL     1       8.057 -10.127   0.172  0.00  0.00    +0.008 A 
ATOM     14  C   UNL     1       9.208 -10.891   0.200  0.00  0.00    +0.046 A 
ATOM     15  C   UNL     1       9.494 -11.672   1.310  0.00  0.00    +0.120 A 
ATOM     16  C   UNL     1       8.623 -11.685   2.390  0.00  0.00    +0.046 A 
ATOM     17  C   UNL     1       7.476 -10.916   2.359  0.00  0.00    +0.008 A 
BRANCH  15  18
ATOM     18  O   UNL     1      10.625 -12.424   1.340  0.00  0.00    -0.495 OA
ATOM     19  C   UNL     1      10.855 -13.204   2.515  0.00  0.00    +0.277 C 
ENDBRANCH  15  18
ENDBRANCH   1  12
BRANCH   1  20
ATOM     20  C   UNL     1       6.306  -7.833   1.053  0.00  0.00    +0.116 C 
BRANCH  20  23
ATOM     21  C   UNL     1       5.181  -5.673   1.024  0.00  0.00    +0.223 C 
ATOM     22  O   UNL     1       6.259  -5.146   0.847  0.00  0.00    -0.275 OA
ATOM     23  N   UNL     1       5.096  -7.013   1.140  0.00  0.00    -0.314 N 
ATOM     24  H   UNL     1       4.234  -7.434   1.282  0.00  0.00    +0.149 HD
BRANCH  21  25
ATOM     25  C   UNL     1       3.936  -4.828   1.114  0.00  0.00    +0.172 C 
BRANCH  25  26
ATOM     26  S   UNL     1       4.376  -3.079   0.920  0.00  0.00    -0.088 S 
BRANCH  26  30
ATOM     27  C   UNL     1       0.706  -0.527   1.180  0.00  0.00    +0.222 C 
ATOM     28  N   UNL     1       0.510  -1.988   1.320  0.00  0.00    -0.241 N 
ATOM     29  N   UNL     1       1.657  -2.745   1.236  0.00  0.00    -0.171 NA
ATOM     30  C   UNL     1       2.835  -2.235   1.047  0.00  0.00    +0.151 C 
ATOM     31  S   UNL     1       2.531  -0.476   0.947  0.00  0.00    -0.058 S 
ATOM     32  H   UNL     1      -0.364  -2.384   1.462  0.00  0.00    +0.171 HD
BRANCH  27  34
ATOM     33  C   UNL     1      -0.018   1.465   0.010  0.00  0.00    +0.103 C 
ATOM     34  N   UNL     1       0.002  -0.004   0.002  0.00  0.00    -0.292 NA
ATOM     35  H   UNL     1      -0.933  -0.378  -0.056  0.00  0.00    +0.124 HD
ENDBRANCH  27  34
ENDBRANCH  26  30
ENDBRANCH  25  26
ENDBRANCH  21  25
ENDBRANCH  20  23
ENDBRANCH   1  20
TORSDOF 9
