REMARK  Name = ZINC31643613
REMARK  8 active torsions:
REMARK  status: ('A' for Active; 'I' for Inactive)
REMARK    1  A    between atoms: C_1  and  C_2
REMARK    2  A    between atoms: C_2  and  C_3
REMARK    3  A    between atoms: C_2  and  N_4
REMARK    4  A    between atoms: N_7  and  C_8
REMARK    5  A    between atoms: C_11  and  C_14
REMARK    6  A    between atoms: C_14  and  N_15
REMARK    7  A    between atoms: C_16  and  C_17
REMARK    8  A    between atoms: C_19  and  N_24
REMARK                            x       y       z     vdW  Elec       q    Type
REMARK                         _______ _______ _______ _____ _____    ______ ____
ROOT
ATOM      1  C   UNL     1      -0.012  -1.307   4.620  0.00  0.00    +0.035 A 
ATOM      2  C   UNL     1      -1.381  -1.078   4.606  0.00  0.00    +0.023 A 
ATOM      3  C   UNL     1      -2.127  -1.290   5.749  0.00  0.00    +0.007 A 
ATOM      4  C   UNL     1      -1.512  -1.731   6.906  0.00  0.00    -0.028 A 
ATOM      5  C   UNL     1      -0.148  -1.960   6.923  0.00  0.00    +0.007 A 
ATOM      6  C   UNL     1       0.602  -1.755   5.782  0.00  0.00    +0.023 A 
ENDROOT
BRANCH   1  10
ATOM      7  N   UNL     1       2.465  -1.751   2.027  0.00  0.00    -0.297 N 
ATOM      8  C   UNL     1       1.792  -1.897   3.185  0.00  0.00    +0.304 C 
ATOM      9  O   UNL     1       2.128  -2.754   3.979  0.00  0.00    -0.253 OA
ATOM     10  N   UNL     1       0.746  -1.094   3.464  0.00  0.00    -0.269 N 
ATOM     11  H   UNL     1       2.196  -1.067   1.393  0.00  0.00    +0.151 HD
ATOM     12  H   UNL     1       0.519  -0.367   2.862  0.00  0.00    +0.156 HD
BRANCH   7  14
ATOM     13  C   UNL     1       3.093  -3.923   1.095  0.00  0.00    +0.027 C 
ATOM     14  C   UNL     1       3.601  -2.624   1.724  0.00  0.00    +0.068 C 
ATOM     15  C   UNL     1       4.542  -1.917   0.746  0.00  0.00    +0.027 C 
ENDBRANCH   7  14
ENDBRANCH   1  10
BRANCH   4  16
ATOM     16  C   UNL     1      -2.328  -1.962   8.152  0.00  0.00    +0.147 C 
BRANCH  16  17
ATOM     17  N   UNL     1      -2.809  -3.345   8.171  0.00  0.00    -0.386 N 
ATOM     18  C   UNL     1      -2.385  -4.189   9.123  0.00  0.00    +0.090 C 
ATOM     19  H   UNL     1      -3.434  -3.651   7.495  0.00  0.00    +0.159 HD
BRANCH  18  20
ATOM     20  C   UNL     1      -2.760  -5.535   9.082  0.00  0.00    +0.039 A 
ATOM     21  C   UNL     1      -2.232  -6.460  10.009  0.00  0.00    +0.045 A 
ATOM     22  C   UNL     1      -2.609  -7.765   9.953  0.00  0.00    +0.127 A 
ATOM     23  C   UNL     1      -3.511  -8.220   8.996  0.00  0.00    +0.036 A 
ATOM     24  C   UNL     1      -4.056  -7.381   8.073  0.00  0.00    +0.054 A 
ATOM     25  C   UNL     1      -3.716  -6.017   8.078  0.00  0.00    +0.188 A 
ATOM     26  O   UNL     1      -4.202  -5.249   7.259  0.00  0.00    -0.287 OA
BRANCH  22  27
ATOM     27  N   UNL     1      -2.047  -8.723  10.931  0.00  0.00    +0.056 N 
ATOM     28  O   UNL     1      -1.262  -8.341  11.768  0.00  0.00    -0.126 OA
ATOM     29  O   UNL     1      -2.372  -9.886  10.893  0.00  0.00    -0.126 OA
ENDBRANCH  22  27
ENDBRANCH  18  20
ENDBRANCH  16  17
ENDBRANCH   4  16
TORSDOF 6
