REMARK  Name = ZINC37265030
REMARK  8 active torsions:
REMARK  status: ('A' for Active; 'I' for Inactive)
REMARK    1  A    between atoms: C_1  and  C_2
REMARK    2  A    between atoms: C_2  and  C_4
REMARK    3  A    between atoms: C_2  and  N_8
REMARK    4  A    between atoms: C_4  and  C_5
REMARK    5  A    between atoms: C_5  and  C_6
REMARK    6  A    between atoms: C_5  and  C_7
REMARK    7  A    between atoms: C_9  and  C_11
REMARK    8  A    between atoms: C_13  and  N_18
REMARK                            x       y       z     vdW  Elec       q    Type
REMARK                         _______ _______ _______ _____ _____    ______ ____
ROOT
ATOM      1  N   UNL     1       0.561  -0.455   1.218  0.00  0.00    -0.309 N 
ATOM      2  C   UNL     1       1.897  -0.571   1.352  0.00  0.00    +0.246 C 
ATOM      3  O   UNL     1       2.627  -0.289   0.422  0.00  0.00    -0.270 OA
ATOM      4  H   UNL     1      -0.022  -0.679   1.960  0.00  0.00    +0.149 HD
ENDROOT
BRANCH   2   5
ATOM      5  C   UNL     1       2.474  -1.040   2.629  0.00  0.00    +0.057 A 
ATOM      6  C   UNL     1       1.637  -1.369   3.697  0.00  0.00    +0.047 A 
ATOM      7  C   UNL     1       2.182  -1.806   4.886  0.00  0.00    +0.127 A 
ATOM      8  C   UNL     1       3.555  -1.919   5.023  0.00  0.00    +0.034 A 
ATOM      9  C   UNL     1       4.390  -1.595   3.970  0.00  0.00    +0.023 A 
ATOM     10  C   UNL     1       3.858  -1.161   2.771  0.00  0.00    +0.053 A 
ATOM     11 CL   UNL     1       4.907  -0.761   1.447  0.00  0.00    -0.083 Cl
BRANCH   7  12
ATOM     12  N   UNL     1       1.296  -2.156   6.020  0.00  0.00    +0.056 N 
ATOM     13  O   UNL     1       0.097  -2.058   5.902  0.00  0.00    -0.126 OA
ATOM     14  O   UNL     1       1.772  -2.540   7.063  0.00  0.00    -0.126 OA
ENDBRANCH   7  12
ENDBRANCH   2   5
BRANCH   1  16
ATOM     15  C   UNL     1      -0.024   1.540  -0.070  0.00  0.00    +0.028 C 
ATOM     16  C   UNL     1      -0.011   0.011  -0.048  0.00  0.00    +0.070 C 
BRANCH  16  17
ATOM     17  C   UNL     1      -1.442  -0.513  -0.184  0.00  0.00    +0.025 C 
BRANCH  17  18
ATOM     18  C   UNL     1      -1.423  -2.042  -0.246  0.00  0.00    -0.015 C 
ATOM     19  C   UNL     1      -2.858  -2.571  -0.235  0.00  0.00    +0.007 C 
ATOM     20  C   UNL     1      -0.723  -2.491  -1.530  0.00  0.00    +0.007 C 
ENDBRANCH  17  18
ENDBRANCH  16  17
ENDBRANCH   1  16
TORSDOF 5
