REMARK  Name = ZINC14083577
REMARK  8 active torsions:
REMARK  status: ('A' for Active; 'I' for Inactive)
REMARK    1  A    between atoms: C_1  and  C_2
REMARK    2  A    between atoms: C_2  and  C_3
REMARK    3  A    between atoms: C_3  and  C_5
REMARK    4  A    between atoms: C_3  and  N_43
REMARK    5  A    between atoms: C_6  and  C_7
REMARK    6  A    between atoms: C_6  and  N_43
REMARK    7  A    between atoms: N_9  and  C_10
REMARK    8  A    between atoms: C_11  and  C_19
REMARK                            x       y       z     vdW  Elec       q    Type
REMARK                         _______ _______ _______ _____ _____    ______ ____
ROOT
ATOM      1  C   UNL     1      -0.959   1.732  -3.566  0.00  0.00    +0.084 A 
ATOM      2  C   UNL     1      -0.647   1.523  -4.902  0.00  0.00    +0.068 A 
ATOM      3  C   UNL     1      -1.523   2.118  -5.897  0.00  0.00    -0.023 A 
ATOM      4  C   UNL     1      -2.558   2.829  -5.401  0.00  0.00    -0.004 A 
ATOM      5  S   UNL     1      -2.386   2.712  -3.643  0.00  0.00    -0.077 S 
ATOM      6  C   UNL     1      -3.612   3.554  -6.180  0.00  0.00    +0.043 C 
ATOM      7  C   UNL     1      -3.135   3.685  -7.634  0.00  0.00    +0.005 C 
ATOM      8  C   UNL     1      -2.628   2.321  -8.111  0.00  0.00    +0.005 C 
ATOM      9  C   UNL     1      -1.318   1.975  -7.401  0.00  0.00    +0.037 C 
ENDROOT
BRANCH   2  10
ATOM     10  C   UNL     1       0.521   0.728  -5.295  0.00  0.00    +0.244 C 
ATOM     11  O   UNL     1       0.412  -0.473  -5.461  0.00  0.00    -0.270 OA
ATOM     12  N   UNL     1       1.715   1.327  -5.473  0.00  0.00    -0.325 N 
ATOM     13  H   UNL     1       1.802   2.284  -5.340  0.00  0.00    +0.145 HD
ATOM     14  H   UNL     1       2.487   0.801  -5.732  0.00  0.00    +0.145 HD
ENDBRANCH   2  10
BRANCH   1  17
ATOM     15  C   UNL     1      -0.742   1.585  -1.213  0.00  0.00    +0.201 C 
ATOM     16  O   UNL     1      -1.736   2.268  -1.088  0.00  0.00    -0.278 OA
ATOM     17  N   UNL     1      -0.288   1.272  -2.443  0.00  0.00    -0.281 N 
ATOM     18  H   UNL     1       0.507   0.726  -2.543  0.00  0.00    +0.155 HD
BRANCH  15  19
ATOM     19  C   UNL     1      -0.013   1.086   0.008  0.00  0.00    +0.015 C 
BRANCH  19  20
ATOM     20  N   UNL     1      -0.709   1.566   1.217  0.00  0.00    +0.386 N 
ATOM     21  H   UNL     1      -0.723   2.592   1.214  0.00  0.00    -0.085 HD
ATOM     22  H   UNL     1      -1.672   1.210   1.216  0.00  0.00    -0.085 HD
BRANCH  20  23
ATOM     23  C   UNL     1      -0.016   1.091   2.429  0.00  0.00    -0.075 C 
ATOM     24  C   UNL     1      -0.507  -0.315   2.781  0.00  0.00    -0.014 C 
BRANCH  23  26
ATOM     25  C   UNL     1       0.278   3.418   3.290  0.00  0.00    +0.002 C 
ATOM     26  C   UNL     1      -0.323   2.043   3.588  0.00  0.00    -0.019 C 
ENDBRANCH  23  26
ENDBRANCH  20  23
ENDBRANCH  19  20
ENDBRANCH  15  19
ENDBRANCH   1  17
TORSDOF 6
