REMARK  Name = ZINC00343713
REMARK  7 active torsions:
REMARK  status: ('A' for Active; 'I' for Inactive)
REMARK    1  A    between atoms: C_1  and  C_2
REMARK    2  A    between atoms: C_5  and  C_8
REMARK    3  A    between atoms: C_9  and  C_25
REMARK    4  A    between atoms: C_10  and  N_24
REMARK    5  A    between atoms: N_11  and  C_17
REMARK    6  A    between atoms: C_14  and  C_15
REMARK    7  A    between atoms: C_20  and  C_23
REMARK                            x       y       z     vdW  Elec       q    Type
REMARK                         _______ _______ _______ _____ _____    ______ ____
ROOT
ATOM      1  C   UNL     1       0.022  -4.253   0.013  0.00  0.00    +0.025 A 
ATOM      2  C   UNL     1      -0.735  -5.032   0.920  0.00  0.00    +0.099 A 
ATOM      3  C   UNL     1      -0.660  -6.426   0.854  0.00  0.00    +0.122 A 
ATOM      4  N   UNL     1       0.132  -7.037  -0.070  0.00  0.00    -0.263 N 
ATOM      5  C   UNL     1       0.864  -6.325  -0.945  0.00  0.00    +0.275 A 
ATOM      6  O   UNL     1       1.562  -6.904  -1.759  0.00  0.00    -0.266 OA
ATOM      7  C   UNL     1       0.826  -4.911  -0.934  0.00  0.00    +0.125 A 
ENDROOT
BRANCH   1  12
ATOM      8  C   UNL     1      -0.207   1.495   0.183  0.00  0.00    +0.044 C 
ATOM      9  C   UNL     1      -0.146  -0.011   0.139  0.00  0.00    -0.050 A 
ATOM     10  C   UNL     1      -0.627  -0.686  -0.969  0.00  0.00    +0.004 A 
ATOM     11  C   UNL     1      -0.575  -2.064  -1.017  0.00  0.00    +0.009 A 
ATOM     12  C   UNL     1      -0.036  -2.776   0.057  0.00  0.00    -0.015 A 
ATOM     13  C   UNL     1       0.447  -2.088   1.171  0.00  0.00    +0.009 A 
ATOM     14  C   UNL     1       0.394  -0.710   1.203  0.00  0.00    +0.004 A 
ENDBRANCH   1  12
BRANCH   4  15
ATOM     15  C   UNL     1       0.185  -8.436  -0.109  0.00  0.00    +0.051 A 
ATOM     16  C   UNL     1      -0.697  -9.143  -0.914  0.00  0.00    +0.026 A 
ATOM     17  C   UNL     1      -0.642 -10.523  -0.951  0.00  0.00    +0.005 A 
ATOM     18  C   UNL     1       0.291 -11.200  -0.186  0.00  0.00    -0.050 A 
ATOM     19  C   UNL     1       1.170 -10.498   0.617  0.00  0.00    +0.005 A 
ATOM     20  C   UNL     1       1.125  -9.118   0.653  0.00  0.00    +0.026 A 
ATOM     21  C   UNL     1       0.348 -12.705  -0.228  0.00  0.00    +0.044 C 
ENDBRANCH   4  15
BRANCH   3  22
ATOM     22  N   UNL     1      -1.388  -7.184   1.727  0.00  0.00    -0.343 N 
ATOM     23  H   UNL     1      -1.885  -6.758   2.442  0.00  0.00    +0.144 HD
ATOM     24  H   UNL     1      -1.408  -8.149   1.631  0.00  0.00    +0.144 HD
ENDBRANCH   3  22
BRANCH   7  25
ATOM     25  C   UNL     1       1.603  -4.158  -1.872  0.00  0.00    +0.105 C 
ATOM     26  N   UNL     1       2.219  -3.561  -2.617  0.00  0.00    -0.191 NA
ENDBRANCH   7  25
BRANCH   2  27
ATOM     27  C   UNL     1      -1.570  -4.398   1.896  0.00  0.00    +0.103 C 
ATOM     28  N   UNL     1      -2.232  -3.895   2.670  0.00  0.00    -0.191 NA
ENDBRANCH   2  27
TORSDOF 5
