REMARK  Name = ZINC06720279
REMARK  7 active torsions:
REMARK  status: ('A' for Active; 'I' for Inactive)
REMARK    1  A    between atoms: C_1  and  C_2
REMARK    2  A    between atoms: C_9  and  C_11
REMARK    3  A    between atoms: C_12  and  C_32
REMARK    4  A    between atoms: C_16  and  C_18
REMARK    5  A    between atoms: C_23  and  C_24
REMARK    6  A    between atoms: C_28  and  C_30
REMARK    7  A    between atoms: C_28  and  C_31
REMARK                            x       y       z     vdW  Elec       q    Type
REMARK                         _______ _______ _______ _____ _____    ______ ____
ROOT
ATOM      1  C   UNL     1      -3.631   2.457  -0.694  0.00  0.00    +0.043 C 
ATOM      2  C   UNL     1      -3.173   3.715  -0.807  0.00  0.00    +0.014 C 
ATOM      3  N   UNL     1      -1.868   4.007  -0.507  0.00  0.00    -0.321 N 
ATOM      4  C   UNL     1      -0.921   3.018  -0.494  0.00  0.00    +0.016 C 
ATOM      5  C   UNL     1      -1.284   1.724  -0.373  0.00  0.00    +0.024 C 
ATOM      6  C   UNL     1      -2.736   1.340  -0.242  0.00  0.00    +0.091 C 
ATOM      7  C   UNL     1      -0.321   0.699  -0.355  0.00  0.00    +0.162 C 
ATOM      8  O   UNL     1      -0.682  -0.457  -0.260  0.00  0.00    -0.292 OA
ATOM      9  C   UNL     1       1.147   1.008  -0.459  0.00  0.00    +0.086 C 
ATOM     10  C   UNL     1       1.405   2.403   0.122  0.00  0.00    -0.023 C 
ATOM     11  C   UNL     1       0.530   3.410  -0.628  0.00  0.00    +0.058 C 
ATOM     12  C   UNL     1       1.044   2.415   1.609  0.00  0.00    +0.011 C 
ATOM     13  C   UNL     1       2.880   2.770  -0.057  0.00  0.00    +0.011 C 
ATOM     14  C   UNL     1      -4.104   4.812  -1.254  0.00  0.00    +0.061 C 
ATOM     15  H   UNL     1      -1.575   5.041  -0.275  0.00  0.00    +0.152 HD
ENDROOT
BRANCH   1  24
ATOM     16  C   UNL     1     -11.323   1.704  -1.607  0.00  0.00    +0.045 C 
ATOM     17  C   UNL     1      -9.896   1.937  -1.180  0.00  0.00    -0.032 A 
ATOM     18  C   UNL     1      -9.619   2.571   0.023  0.00  0.00    +0.008 A 
ATOM     19  C   UNL     1      -8.296   2.764   0.378  0.00  0.00    +0.044 A 
ATOM     20  C   UNL     1      -7.294   2.319  -0.478  0.00  0.00    +0.125 A 
ATOM     21  N   UNL     1      -7.599   1.723  -1.620  0.00  0.00    -0.240 NA
ATOM     22  C   UNL     1      -8.852   1.520  -1.982  0.00  0.00    +0.116 A 
ATOM     23  N   UNL     1      -5.958   2.507  -0.133  0.00  0.00    -0.267 N 
ATOM     24  C   UNL     1      -4.984   2.180  -1.006  0.00  0.00    +0.248 C 
ATOM     25  O   UNL     1      -5.268   1.646  -2.062  0.00  0.00    -0.270 OA
ATOM     26  H   UNL     1      -5.697   2.922   0.852  0.00  0.00    +0.157 HD
ENDBRANCH   1  24
BRANCH   6  27
ATOM     27  C   UNL     1      -3.035   1.018   1.199  0.00  0.00    -0.032 A 
ATOM     28  C   UNL     1      -2.721   1.930   2.190  0.00  0.00    +0.005 A 
ATOM     29  C   UNL     1      -2.995   1.635   3.512  0.00  0.00    +0.000 A 
ATOM     30  C   UNL     1      -3.584   0.429   3.844  0.00  0.00    +0.000 A 
ATOM     31  C   UNL     1      -3.897  -0.483   2.853  0.00  0.00    +0.003 A 
ATOM     32  C   UNL     1      -3.628  -0.185   1.530  0.00  0.00    -0.046 A 
ATOM     33  C   UNL     1      -3.976  -1.176   0.449  0.00  0.00    +0.044 C 
ENDBRANCH   6  27
TORSDOF 2
