REMARK  Name = ZINC65420127
REMARK  4 active torsions:
REMARK  status: ('A' for Active; 'I' for Inactive)
REMARK    1  A    between atoms: C_4  and  C_7
REMARK    2  A    between atoms: N_15  and  C_17
REMARK    3  A    between atoms: C_17  and  C_18
REMARK    4  A    between atoms: C_21  and  C_23
REMARK                            x       y       z     vdW  Elec       q    Type
REMARK                         _______ _______ _______ _____ _____    ______ ____
ROOT
ATOM      1  C   UNL     1       3.698  -0.688  -0.037  0.00  0.00    +0.081 A 
ATOM      2  C   UNL     1       3.878  -1.844   0.721  0.00  0.00    +0.015 A 
ATOM      3  C   UNL     1       5.103  -2.486   0.677  0.00  0.00    +0.065 A 
ATOM      4  N   UNL     1       6.066  -1.988  -0.080  0.00  0.00    -0.218 NA
ATOM      5  C   UNL     1       5.869  -0.887  -0.792  0.00  0.00    +0.213 A 
ATOM      6  N   UNL     1       4.711  -0.247  -0.782  0.00  0.00    -0.214 NA
ATOM      7  N   UNL     1       6.902  -0.398  -1.573  0.00  0.00    -0.327 N 
ATOM      8  C   UNL     1       5.034  -3.696   1.578  0.00  0.00    +0.141 C 
ATOM      9  N   UNL     1       3.592  -3.948   1.802  0.00  0.00    -0.285 NA
ATOM     10  C   UNL     1       2.970  -2.612   1.650  0.00  0.00    +0.124 C 
ATOM     11  H   UNL     1       7.755  -0.859  -1.594  0.00  0.00    +0.145 HD
ATOM     12  H   UNL     1       6.773   0.407  -2.099  0.00  0.00    +0.145 HD
ENDROOT
BRANCH   1  16
ATOM     13  C   UNL     1      -0.016   1.380   0.011  0.00  0.00    +0.000 A 
ATOM     14  C   UNL     1       0.511   0.883   1.189  0.00  0.00    +0.001 A 
ATOM     15  C   UNL     1       1.716   0.210   1.179  0.00  0.00    +0.010 A 
ATOM     16  C   UNL     1       2.402   0.033  -0.021  0.00  0.00    +0.001 A 
ATOM     17  C   UNL     1       1.867   0.536  -1.205  0.00  0.00    +0.010 A 
ATOM     18  C   UNL     1       0.660   1.207  -1.183  0.00  0.00    +0.001 A 
ENDBRANCH   1  16
BRANCH   9  19
ATOM     19  C   UNL     1       3.354  -4.489   3.147  0.00  0.00    +0.159 C 
BRANCH  19  20
ATOM     20  C   UNL     1       3.895  -5.893   3.226  0.00  0.00    +0.119 A 
ATOM     21  C   UNL     1       5.141  -6.236   3.600  0.00  0.00    +0.046 A 
ATOM     22  C   UNL     1       5.216  -7.646   3.530  0.00  0.00    +0.047 A 
ATOM     23  C   UNL     1       4.011  -8.081   3.118  0.00  0.00    +0.135 A 
ATOM     24  O   UNL     1       3.214  -7.014   2.941  0.00  0.00    -0.461 OA
BRANCH  23  25
ATOM     25  C   UNL     1       3.621  -9.519   2.898  0.00  0.00    +0.218 C 
ATOM     26  C   UNL     1       3.621  -9.855   1.417  0.00  0.00    +0.030 C 
ATOM     27  C   UNL     1       2.355 -10.195   1.165  0.00  0.00    +0.133 C 
ATOM     28  N   UNL     1       1.603 -10.110   2.284  0.00  0.00    -0.162 NA
ATOM     29  N   UNL     1       2.220  -9.745   3.292  0.00  0.00    -0.172 NA
ENDBRANCH  23  25
ENDBRANCH  19  20
ENDBRANCH   9  19
TORSDOF 4
