REMARK  Name = ZINC28048731
REMARK  5 active torsions:
REMARK  status: ('A' for Active; 'I' for Inactive)
REMARK    1  A    between atoms: C_1  and  C_2
REMARK    2  A    between atoms: C_2  and  N_3
REMARK    3  A    between atoms: C_12  and  O_13
REMARK    4  A    between atoms: C_14  and  N_15
REMARK    5  A    between atoms: N_18  and  C_19
REMARK                            x       y       z     vdW  Elec       q    Type
REMARK                         _______ _______ _______ _____ _____    ______ ____
ROOT
ATOM      1  N   UNL     1       3.551   3.572  -1.215  0.00  0.00    -0.383 N 
ATOM      2  C   UNL     1       2.369   4.054  -0.683  0.00  0.00    +0.075 A 
ATOM      3  C   UNL     1       1.137   3.251  -0.718  0.00  0.00    +0.042 A 
ATOM      4  C   UNL     1       1.125   1.977  -1.290  0.00  0.00    +0.013 A 
ATOM      5  C   UNL     1      -0.044   1.249  -1.307  0.00  0.00    +0.001 A 
ATOM      6  C   UNL     1      -1.205   1.778  -0.764  0.00  0.00    +0.004 A 
ATOM      7  C   UNL     1      -1.206   3.033  -0.193  0.00  0.00    +0.047 A 
ATOM      8  C   UNL     1      -0.038   3.784  -0.165  0.00  0.00    +0.141 A 
ATOM      9  O   UNL     1      -0.025   5.016   0.388  0.00  0.00    -0.424 OA
ATOM     10  C   UNL     1       1.088   5.765   0.430  0.00  0.00    +0.309 A 
ATOM     11  C   UNL     1       2.308   5.308  -0.101  0.00  0.00    +0.140 A 
ATOM     12  H   UNL     1       3.994   2.647  -0.819  0.00  0.00    +0.160 HD
ENDROOT
BRANCH  11  13
ATOM     13  N   UNL     1       3.456   6.119  -0.041  0.00  0.00    -0.262 N 
ATOM     14  C   UNL     1       3.393   7.406  -0.437  0.00  0.00    +0.308 C 
ATOM     15  O   UNL     1       2.323   7.896  -0.743  0.00  0.00    -0.252 OA
ATOM     16  N   UNL     1       4.516   8.149  -0.493  0.00  0.00    -0.268 N 
ATOM     17  H   UNL     1       4.404   5.703   0.330  0.00  0.00    +0.157 HD
ATOM     18  H   UNL     1       5.494   7.684  -0.299  0.00  0.00    +0.156 HD
BRANCH  16  19
ATOM     19  C   UNL     1       4.438   9.513  -0.798  0.00  0.00    +0.053 A 
ATOM     20  C   UNL     1       3.452   9.979  -1.658  0.00  0.00    +0.025 A 
ATOM     21  C   UNL     1       3.375  11.326  -1.953  0.00  0.00    +0.002 A 
ATOM     22  C   UNL     1       4.283  12.210  -1.400  0.00  0.00    +0.002 A 
ATOM     23  C   UNL     1       5.270  11.750  -0.548  0.00  0.00    +0.022 A 
ATOM     24  C   UNL     1       5.350  10.404  -0.244  0.00  0.00    +0.062 A 
ATOM     25 CL   UNL     1       6.589   9.826   0.826  0.00  0.00    -0.082 Cl
ENDBRANCH  16  19
ENDBRANCH  11  13
BRANCH   1  27
ATOM     26  C   UNL     1       5.344   3.879  -2.854  0.00  0.00    +0.026 C 
ATOM     27  C   UNL     1       4.038   4.444  -2.292  0.00  0.00    +0.109 C 
ENDBRANCH   1  27
BRANCH  10  28
ATOM     28  O   UNL     1       1.041   6.870   0.942  0.00  0.00    -0.479 OA
ATOM     29  H   UNL     1       1.944   7.496   0.984  0.00  0.00    +0.295 HD
ENDBRANCH  10  28
TORSDOF 4
