REMARK  Name = ZINC15810168
REMARK  11 active torsions:
REMARK  status: ('A' for Active; 'I' for Inactive)
REMARK    1  A    between atoms: C_1  and  C_2
REMARK    2  A    between atoms: C_5  and  N_9
REMARK    3  A    between atoms: C_7  and  C_8
REMARK    4  A    between atoms: C_13  and  S_15
REMARK    5  A    between atoms: S_15  and  C_16
REMARK    6  A    between atoms: C_16  and  C_18
REMARK    7  A    between atoms: C_16  and  C_19
REMARK    8  A    between atoms: N_24  and  C_25
REMARK    9  A    between atoms: C_25  and  C_26
REMARK   10  A    between atoms: C_25  and  C_27
REMARK   11  A    between atoms: C_25  and  C_28
REMARK                            x       y       z     vdW  Elec       q    Type
REMARK                         _______ _______ _______ _____ _____    ______ ____
ROOT
ATOM      1  N   UNL     1      -8.863  -0.887   1.180  0.00  0.00    -0.292 N 
ATOM      2  C   UNL     1      -7.532  -0.485   1.146  0.00  0.00    +0.187 A 
ATOM      3  N   UNL     1      -6.472  -1.142   0.716  0.00  0.00    -0.125 NA
ATOM      4  N   UNL     1      -5.231  -0.549   0.768  0.00  0.00    -0.133 NA
ATOM      5  C   UNL     1      -5.107   0.670   1.257  0.00  0.00    +0.161 A 
ATOM      6  S   UNL     1      -6.801   1.058   1.671  0.00  0.00    -0.024 S 
ATOM      7  H   UNL     1      -9.552  -0.259   1.446  0.00  0.00    +0.154 HD
ENDROOT
BRANCH   1  12
ATOM      8  C   UNL     1     -10.260  -6.198  -0.235  0.00  0.00    +0.044 C 
ATOM      9  C   UNL     1      -9.889  -4.787   0.141  0.00  0.00    -0.047 A 
ATOM     10  C   UNL     1      -8.624  -4.513   0.629  0.00  0.00    +0.005 A 
ATOM     11  C   UNL     1      -8.280  -3.221   0.974  0.00  0.00    +0.023 A 
ATOM     12  C   UNL     1      -9.207  -2.195   0.831  0.00  0.00    +0.033 A 
ATOM     13  C   UNL     1     -10.478  -2.475   0.346  0.00  0.00    +0.027 A 
ATOM     14  C   UNL     1     -10.813  -3.768  -0.003  0.00  0.00    -0.046 A 
ATOM     15  C   UNL     1     -12.190  -4.072  -0.536  0.00  0.00    +0.044 C 
ENDBRANCH   1  12
BRANCH   5  16
ATOM     16  S   UNL     1      -3.659   1.656   1.444  0.00  0.00    -0.084 S 
BRANCH  16  17
ATOM     17  C   UNL     1      -2.325   0.602   0.810  0.00  0.00    +0.136 C 
ATOM     18  C   UNL     1      -2.536   0.357  -0.686  0.00  0.00    +0.029 C 
BRANCH  17  19
ATOM     19  C   UNL     1      -0.999   1.284   1.026  0.00  0.00    +0.233 C 
ATOM     20  O   UNL     1      -0.957   2.482   1.207  0.00  0.00    -0.274 OA
ATOM     21  N   UNL     1       0.139   0.562   1.018  0.00  0.00    -0.239 N 
ATOM     22  C   UNL     1       1.325   1.174   1.206  0.00  0.00    +0.306 C 
ATOM     23  O   UNL     1       1.369   2.375   1.387  0.00  0.00    -0.252 OA
ATOM     24  N   UNL     1       2.464   0.453   1.192  0.00  0.00    -0.294 N 
ATOM     25  H   UNL     1       0.105  -0.396   0.873  0.00  0.00    +0.159 HD
ATOM     26  H   UNL     1       2.430  -0.505   1.048  0.00  0.00    +0.151 HD
BRANCH  24  27
ATOM     27  C   UNL     1       3.754   1.117   1.396  0.00  0.00    +0.028 C 
ATOM     28  C   UNL     1       3.765   1.800   2.765  0.00  0.00    +0.031 C 
ATOM     29  C   UNL     1       4.877   0.080   1.335  0.00  0.00    +0.031 C 
ATOM     30  C   UNL     1       3.967   2.165   0.302  0.00  0.00    +0.031 C 
ENDBRANCH  24  27
ENDBRANCH  17  19
ENDBRANCH  16  17
ENDBRANCH   5  16
TORSDOF 5
