REMARK  Name = ZINC18805463
REMARK  8 active torsions:
REMARK  status: ('A' for Active; 'I' for Inactive)
REMARK    1  A    between atoms: C_1  and  C_2
REMARK    2  A    between atoms: C_2  and  C_3
REMARK    3  A    between atoms: C_7  and  C_14
REMARK    4  A    between atoms: C_14  and  S_15
REMARK    5  A    between atoms: S_15  and  C_16
REMARK    6  A    between atoms: N_20  and  N_21
REMARK    7  A    between atoms: C_23  and  C_28
REMARK    8  A    between atoms: C_25  and  C_27
REMARK                            x       y       z     vdW  Elec       q    Type
REMARK                         _______ _______ _______ _____ _____    ______ ____
ROOT
ATOM      1  S   UNL     1       4.634  -3.663   3.716  0.00  0.00    -0.080 S 
ENDROOT
BRANCH   1   2
ATOM      2  C   UNL     1       6.389  -3.797   3.787  0.00  0.00    +0.210 A 
ATOM      3  N   UNL     1       7.211  -2.966   4.383  0.00  0.00    -0.119 NA
ATOM      4  N   UNL     1       8.423  -3.368   4.239  0.00  0.00    -0.106 NA
ATOM      5  C   UNL     1       8.449  -4.476   3.545  0.00  0.00    +0.270 A 
ATOM      6  N   UNL     1       7.151  -4.792   3.237  0.00  0.00    -0.208 N 
ATOM      7  N   UNL     1       9.585  -5.204   3.189  0.00  0.00    -0.201 N 
ATOM      8  C   UNL     1      10.868  -4.892   3.507  0.00  0.00    +0.045 A 
ATOM      9  C   UNL     1      11.666  -5.847   2.976  0.00  0.00    +0.048 A 
ATOM     10  C   UNL     1      10.851  -6.771   2.314  0.00  0.00    +0.061 A 
ATOM     11  N   UNL     1       9.605  -6.391   2.446  0.00  0.00    -0.169 NA
ATOM     12  C   UNL     1      11.325  -7.998   1.579  0.00  0.00    +0.067 C 
ATOM     13  C   UNL     1      11.321  -3.697   4.306  0.00  0.00    +0.066 C 
BRANCH   6  14
ATOM     14  N   UNL     1       6.710  -5.872   2.527  0.00  0.00    -0.293 N 
ATOM     15  H   UNL     1       6.664  -5.663   1.541  0.00  0.00    +0.163 HD
ATOM     16  H   UNL     1       7.291  -6.679   2.699  0.00  0.00    +0.163 HD
ENDBRANCH   6  14
ENDBRANCH   1   2
BRANCH   1  17
ATOM     17  C   UNL     1       4.273  -2.139   4.631  0.00  0.00    +0.113 C 
BRANCH  17  22
ATOM     18  C   UNL     1       0.731  -0.503   1.223  0.00  0.00    -0.044 A 
ATOM     19  C   UNL     1       2.102  -0.708   1.168  0.00  0.00    +0.004 A 
ATOM     20  C   UNL     1       2.780  -1.160   2.265  0.00  0.00    +0.012 A 
ATOM     21  C   UNL     1       2.086  -1.418   3.452  0.00  0.00    +0.022 A 
ATOM     22  C   UNL     1       2.785  -1.903   4.646  0.00  0.00    -0.020 A 
ATOM     23  C   UNL     1       2.054  -2.133   5.766  0.00  0.00    +0.097 A 
ATOM     24  C   UNL     1       0.661  -1.905   5.754  0.00  0.00    +0.338 A 
ATOM     25  O   UNL     1       0.016  -2.115   6.766  0.00  0.00    -0.245 OA
ATOM     26  O   UNL     1       0.029  -1.460   4.657  0.00  0.00    -0.422 OA
ATOM     27  C   UNL     1       0.697  -1.212   3.511  0.00  0.00    +0.140 A 
ATOM     28  C   UNL     1       0.029  -0.747   2.385  0.00  0.00    +0.050 A 
BRANCH  18  30
ATOM     29  C   UNL     1      -0.019   1.526   0.010  0.00  0.00    +0.009 C 
ATOM     30  C   UNL     1       0.002  -0.004   0.002  0.00  0.00    +0.032 C 
ENDBRANCH  18  30
ENDBRANCH  17  22
ENDBRANCH   1  17
TORSDOF 5
