REMARK  Name = ZINC20899134
REMARK  6 active torsions:
REMARK  status: ('A' for Active; 'I' for Inactive)
REMARK    1  A    between atoms: C_1  and  C_2
REMARK    2  A    between atoms: C_2  and  C_3
REMARK    3  A    between atoms: C_3  and  C_4
REMARK    4  A    between atoms: C_4  and  N_5
REMARK    5  A    between atoms: C_24  and  C_27
REMARK    6  A    between atoms: C_30  and  O_33
REMARK                            x       y       z     vdW  Elec       q    Type
REMARK                         _______ _______ _______ _____ _____    ______ ____
ROOT
ATOM      1  N   UNL     1       1.438  -2.980  -2.379  0.00  0.00    -0.222 N 
ATOM      2  C   UNL     1       0.723  -3.229  -3.495  0.00  0.00    +0.261 C 
ATOM      3  O   UNL     1      -0.466  -3.476  -3.433  0.00  0.00    -0.269 OA
ATOM      4  C   UNL     1       1.422  -3.193  -4.792  0.00  0.00    +0.116 C 
ATOM      5  C   UNL     1       2.863  -2.884  -4.770  0.00  0.00    +0.258 C 
ATOM      6  N   UNL     1       3.447  -2.656  -3.576  0.00  0.00    -0.235 N 
ATOM      7  H   UNL     1       4.395  -2.451  -3.544  0.00  0.00    +0.159 HD
ATOM      8  C   UNL     1       2.748  -2.700  -2.433  0.00  0.00    +0.315 C 
ATOM      9  O   UNL     1       3.333  -2.480  -1.391  0.00  0.00    -0.252 OA
ATOM     10  O   UNL     1       3.507  -2.837  -5.801  0.00  0.00    -0.270 OA
ATOM     11  C   UNL     1       0.754  -3.438  -5.979  0.00  0.00    +0.027 C 
ATOM     12  N   UNL     1      -0.525  -3.314  -5.924  0.00  0.00    -0.316 N 
ATOM     13  C   UNL     1      -1.659  -3.608  -6.630  0.00  0.00    +0.045 A 
ATOM     14  C   UNL     1      -2.855  -3.450  -5.907  0.00  0.00    +0.024 A 
ATOM     15  C   UNL     1      -4.081  -3.702  -6.471  0.00  0.00    +0.002 A 
ATOM     16  C   UNL     1      -4.155  -4.124  -7.787  0.00  0.00    +0.001 A 
ATOM     17  C   UNL     1      -2.997  -4.283  -8.509  0.00  0.00    +0.016 A 
ATOM     18  C   UNL     1      -1.737  -4.029  -7.949  0.00  0.00    +0.030 A 
ATOM     19  S   UNL     1      -0.358  -4.274  -8.993  0.00  0.00    -0.115 S 
ATOM     20  C   UNL     1       1.004  -4.863  -7.998  0.00  0.00    +0.087 C 
ATOM     21  C   UNL     1       1.623  -3.801  -7.131  0.00  0.00    +0.071 C 
ATOM     22  H   UNL     1      -0.768  -2.859  -5.103  0.00  0.00    +0.152 HD
ENDROOT
BRANCH  20  23
ATOM     23  C   UNL     1       2.067  -5.412  -8.915  0.00  0.00    -0.034 A 
ATOM     24  C   UNL     1       2.660  -4.589  -9.854  0.00  0.00    +0.008 A 
ATOM     25  C   UNL     1       3.634  -5.090 -10.696  0.00  0.00    +0.046 A 
ATOM     26  C   UNL     1       4.018  -6.419 -10.597  0.00  0.00    +0.117 A 
ATOM     27  C   UNL     1       3.422  -7.243  -9.653  0.00  0.00    +0.046 A 
ATOM     28  C   UNL     1       2.451  -6.736  -8.811  0.00  0.00    +0.008 A 
BRANCH  26  29
ATOM     29  O   UNL     1       4.976  -6.914 -11.424  0.00  0.00    -0.507 OA
ATOM     30  H   UNL     1       5.875  -6.835 -11.077  0.00  0.00    +0.292 HD
ENDBRANCH  26  29
ENDBRANCH  20  23
BRANCH   1  31
ATOM     31  C   UNL     1       0.766  -3.010  -1.077  0.00  0.00    +0.118 C 
BRANCH  31  32
ATOM     32  C   UNL     1       0.227  -1.616  -0.749  0.00  0.00    +0.019 C 
BRANCH  32  34
ATOM     33  C   UNL     1      -1.014  -0.254   0.938  0.00  0.00    +0.004 C 
ATOM     34  C   UNL     1      -0.474  -1.647   0.610  0.00  0.00    -0.002 C 
ENDBRANCH  32  34
ENDBRANCH  31  32
ENDBRANCH   1  31
TORSDOF 5
