REMARK  Name = ZINC65238220
REMARK  3 active torsions:
REMARK  status: ('A' for Active; 'I' for Inactive)
REMARK    1  A    between atoms: C_1  and  C_2
REMARK    2  A    between atoms: C_16  and  C_17
REMARK    3  A    between atoms: N_19  and  C_20
REMARK                            x       y       z     vdW  Elec       q    Type
REMARK                         _______ _______ _______ _____ _____    ______ ____
ROOT
ATOM      1  C   UNL     1      -0.018   1.503   0.010  0.00  0.00    +0.044 C 
ATOM      2  C   UNL     1       0.002  -0.004   0.002  0.00  0.00    -0.049 A 
ATOM      3  C   UNL     1       0.006  -0.683  -1.202  0.00  0.00    +0.005 A 
ATOM      4  C   UNL     1       0.015  -2.068  -1.219  0.00  0.00    +0.027 A 
ATOM      5  C   UNL     1       0.026  -2.764  -0.030  0.00  0.00    +0.071 A 
ATOM      6  C   UNL     1       0.038  -2.080   1.196  0.00  0.00    +0.057 A 
ATOM      7  C   UNL     1       0.023  -0.697   1.199  0.00  0.00    +0.028 A 
ATOM      8  N   UNL     1       0.097  -2.812   2.387  0.00  0.00    -0.282 N 
ATOM      9  C   UNL     1      -0.197  -4.128   2.440  0.00  0.00    +0.246 C 
ATOM     10  O   UNL     1      -0.128  -4.720   3.496  0.00  0.00    -0.273 OA
ATOM     11  C   UNL     1      -0.610  -4.865   1.192  0.00  0.00    +0.236 C 
ATOM     12  N   UNL     1       0.011  -4.153   0.048  0.00  0.00    -0.218 N 
ATOM     13  N   UNL     1       0.562  -5.144  -0.752  0.00  0.00    -0.184 N 
ATOM     14  N   UNL     1       0.653  -6.327  -0.007  0.00  0.00    -0.166 NA
ATOM     15  C   UNL     1      -0.001  -6.245   1.137  0.00  0.00    +0.153 C 
ATOM     16  H   UNL     1       0.358  -2.358   3.203  0.00  0.00    +0.155 HD
ATOM     17  H   UNL     1       0.838  -5.036  -1.676  0.00  0.00    +0.193 HD
ENDROOT
BRANCH  15  18
ATOM     18  C   UNL     1      -0.113  -7.279   2.166  0.00  0.00    +0.263 C 
ATOM     19  O   UNL     1      -0.745  -7.059   3.183  0.00  0.00    -0.269 OA
ATOM     20  N   UNL     1       0.483  -8.474   1.988  0.00  0.00    -0.303 N 
ATOM     21  H   UNL     1       0.987  -8.649   1.177  0.00  0.00    +0.150 HD
BRANCH  20  22
ATOM     22  C   UNL     1       0.371  -9.509   3.018  0.00  0.00    +0.104 C 
ATOM     23  C   UNL     1       1.547 -10.503   2.909  0.00  0.00    +0.032 C 
ATOM     24  C   UNL     1       0.967 -11.603   1.995  0.00  0.00    +0.037 C 
ATOM     25  C   UNL     1      -0.531 -11.545   2.206  0.00  0.00    -0.042 A 
ATOM     26  C   UNL     1      -0.875 -10.340   2.795  0.00  0.00    -0.024 A 
ATOM     27  C   UNL     1      -2.200 -10.064   3.084  0.00  0.00    +0.006 A 
ATOM     28  C   UNL     1      -3.183 -10.988   2.787  0.00  0.00    +0.000 A 
ATOM     29  C   UNL     1      -2.843 -12.192   2.198  0.00  0.00    +0.000 A 
ATOM     30  C   UNL     1      -1.516 -12.471   1.907  0.00  0.00    +0.004 A 
ENDBRANCH  20  22
ENDBRANCH  15  18
TORSDOF 2
