REMARK  Name = ZINC67019386
REMARK  8 active torsions:
REMARK  status: ('A' for Active; 'I' for Inactive)
REMARK    1  A    between atoms: C_1  and  C_2
REMARK    2  A    between atoms: C_3  and  C_14
REMARK    3  A    between atoms: C_4  and  C_13
REMARK    4  A    between atoms: C_14  and  C_15
REMARK    5  A    between atoms: N_17  and  C_18
REMARK    6  A    between atoms: C_23  and  N_24
REMARK    7  A    between atoms: N_24  and  C_25
REMARK    8  A    between atoms: N_24  and  C_26
REMARK                            x       y       z     vdW  Elec       q    Type
REMARK                         _______ _______ _______ _____ _____    ______ ____
ROOT
ATOM      1  C   UNL     1      -2.527  -0.001   0.016  0.00  0.00    +0.134 C 
ENDROOT
BRANCH   1   4
ATOM      2  C   UNL     1      -0.024   1.485  -0.009  0.00  0.00    +0.066 C 
ATOM      3  C   UNL     1      -0.006  -0.022  -0.007  0.00  0.00    +0.046 A 
ATOM      4  C   UNL     1      -1.211  -0.734   0.005  0.00  0.00    +0.003 A 
ATOM      5  C   UNL     1      -1.182  -2.093   0.006  0.00  0.00    +0.045 A 
ATOM      6  N   UNL     1       0.018  -2.731  -0.004  0.00  0.00    -0.238 N 
ATOM      7  C   UNL     1       1.180  -2.001  -0.015  0.00  0.00    +0.158 A 
ATOM      8  N   UNL     1       1.142  -0.663  -0.022  0.00  0.00    -0.233 NA
ATOM      9  C   UNL     1       2.241  -2.905  -0.024  0.00  0.00    +0.119 A 
ATOM     10  C   UNL     1       1.703  -4.191  -0.018  0.00  0.00    +0.267 A 
ATOM     11  O   UNL     1       2.340  -5.231  -0.022  0.00  0.00    -0.266 OA
ATOM     12  N   UNL     1       0.360  -4.089  -0.006  0.00  0.00    -0.258 N 
ATOM     13  H   UNL     1      -0.265  -4.831   0.001  0.00  0.00    +0.191 HD
ATOM     14  C   UNL     1      -2.466  -2.882   0.019  0.00  0.00    +0.066 C 
ENDBRANCH   1   4
BRANCH   1  15
ATOM     15  C   UNL     1      -2.893   0.353   1.435  0.00  0.00    +0.222 C 
ATOM     16  O   UNL     1      -2.157   0.041   2.346  0.00  0.00    -0.275 OA
ATOM     17  N   UNL     1      -4.038   1.016   1.690  0.00  0.00    -0.284 N 
ATOM     18  H   UNL     1      -4.587   1.337   0.957  0.00  0.00    +0.155 HD
BRANCH  17  19
ATOM     19  C   UNL     1      -4.436   1.244   3.014  0.00  0.00    +0.056 A 
ATOM     20  C   UNL     1      -3.996   0.404   4.026  0.00  0.00    +0.045 A 
ATOM     21  C   UNL     1      -4.390   0.630   5.333  0.00  0.00    +0.043 A 
ATOM     22  C   UNL     1      -5.223   1.693   5.634  0.00  0.00    +0.022 A 
ATOM     23  C   UNL     1      -5.666   2.534   4.631  0.00  0.00    +0.026 A 
ATOM     24  C   UNL     1      -5.271   2.318   3.319  0.00  0.00    +0.051 A 
ATOM     25 CL   UNL     1      -3.839  -0.423   6.598  0.00  0.00    -0.083 Cl
BRANCH  24  26
ATOM     26  N   UNL     1      -5.713   3.173   2.303  0.00  0.00    -0.335 N 
ATOM     27  C   UNL     1      -4.929   4.359   1.950  0.00  0.00    +0.129 C 
ATOM     28  C   UNL     1      -6.961   2.882   1.592  0.00  0.00    +0.129 C 
ENDBRANCH  24  26
ENDBRANCH  17  19
ENDBRANCH   1  15
TORSDOF 4
