REMARK  Name = ZINC20738133
REMARK  5 active torsions:
REMARK  status: ('A' for Active; 'I' for Inactive)
REMARK    1  A    between atoms: C_1  and  C_2
REMARK    2  A    between atoms: C_2  and  C_3
REMARK    3  A    between atoms: C_2  and  C_4
REMARK    4  A    between atoms: C_16  and  C_19
REMARK    5  A    between atoms: C_19  and  N_21
REMARK                            x       y       z     vdW  Elec       q    Type
REMARK                         _______ _______ _______ _____ _____    ______ ____
ROOT
ATOM      1  C   UNL     1      -5.214  -2.322  -0.660  0.00  0.00    +0.158 A 
ATOM      2  N   UNL     1      -5.111  -1.608   0.434  0.00  0.00    -0.132 NA
ATOM      3  N   UNL     1      -3.933  -1.097   0.521  0.00  0.00    -0.128 NA
ATOM      4  C   UNL     1      -3.219  -1.466  -0.531  0.00  0.00    +0.178 A 
ATOM      5  N   UNL     1      -4.029  -2.262  -1.302  0.00  0.00    -0.195 N 
ATOM      6  N   UNL     1      -3.543  -2.813  -2.490  0.00  0.00    -0.148 NA
ATOM      7  C   UNL     1      -2.311  -2.578  -2.878  0.00  0.00    +0.142 A 
ATOM      8  C   UNL     1      -1.454  -1.768  -2.108  0.00  0.00    +0.049 A 
ATOM      9  C   UNL     1      -1.899  -1.211  -0.951  0.00  0.00    +0.053 A 
ATOM     10  N   UNL     1      -1.847  -3.136  -4.064  0.00  0.00    -0.314 N 
ATOM     11  C   UNL     1      -2.684  -4.069  -4.830  0.00  0.00    +0.107 C 
ATOM     12  C   UNL     1      -1.889  -5.355  -5.078  0.00  0.00    +0.032 C 
ATOM     13  C   UNL     1      -0.559  -5.006  -5.750  0.00  0.00    +0.080 C 
ATOM     14  C   UNL     1       0.260  -4.102  -4.826  0.00  0.00    +0.032 C 
ATOM     15  C   UNL     1      -0.513  -2.798  -4.579  0.00  0.00    +0.107 C 
ENDROOT
BRANCH   1  17
ATOM     16  C   UNL     1      -6.817  -4.116  -0.059  0.00  0.00    +0.015 C 
ATOM     17  C   UNL     1      -6.436  -3.078  -1.116  0.00  0.00    +0.053 C 
ATOM     18  C   UNL     1      -7.596  -2.101  -1.313  0.00  0.00    +0.015 C 
ENDBRANCH   1  17
BRANCH  13  19
ATOM     19  C   UNL     1       0.212  -6.272  -6.026  0.00  0.00    +0.242 C 
ATOM     20  O   UNL     1      -0.258  -7.349  -5.715  0.00  0.00    -0.273 OA
BRANCH  19  21
ATOM     21  N   UNL     1       1.404  -6.210  -6.610  0.00  0.00    -0.147 NA
ATOM     22  C   UNL     1       2.035  -7.330  -6.953  0.00  0.00    +0.198 A 
ATOM     23  N   UNL     1       1.518  -8.583  -6.867  0.00  0.00    -0.326 N 
ATOM     24  H   UNL     1       0.632  -8.811  -6.545  0.00  0.00    +0.169 HD
ATOM     25  C   UNL     1       2.478  -9.483  -7.318  0.00  0.00    +0.065 A 
ATOM     26  C   UNL     1       2.493 -10.865  -7.449  0.00  0.00    +0.028 A 
ATOM     27  C   UNL     1       3.619 -11.496  -7.941  0.00  0.00    +0.002 A 
ATOM     28  C   UNL     1       4.732 -10.757  -8.304  0.00  0.00    +0.002 A 
ATOM     29  C   UNL     1       4.726  -9.382  -8.177  0.00  0.00    +0.028 A 
ATOM     30  C   UNL     1       3.601  -8.738  -7.684  0.00  0.00    +0.065 A 
ATOM     31  N   UNL     1       3.298  -7.400  -7.452  0.00  0.00    -0.326 N 
ATOM     32  H   UNL     1       3.887  -6.647  -7.617  0.00  0.00    +0.169 HD
ENDBRANCH  19  21
ENDBRANCH  13  19
TORSDOF 3
