REMARK  Name = ZINC20152444
REMARK  10 active torsions:
REMARK  status: ('A' for Active; 'I' for Inactive)
REMARK    1  A    between atoms: C_1  and  O_2
REMARK    2  A    between atoms: O_2  and  C_3
REMARK    3  A    between atoms: C_6  and  C_27
REMARK    4  A    between atoms: C_8  and  N_9
REMARK    5  A    between atoms: N_9  and  C_10
REMARK    6  A    between atoms: C_10  and  N_12
REMARK    7  A    between atoms: C_13  and  C_15
REMARK    8  A    between atoms: C_18  and  C_20
REMARK    9  A    between atoms: C_30  and  C_32
REMARK   10  A    between atoms: C_32  and  O_33
REMARK                            x       y       z     vdW  Elec       q    Type
REMARK                         _______ _______ _______ _____ _____    ______ ____
ROOT
ATOM      1  N   UNL     1       0.093  -2.774  -0.106  0.00  0.00    -0.294 N 
ATOM      2  H   UNL     1      -0.282  -2.345   0.678  0.00  0.00    +0.154 HD
ENDROOT
BRANCH   1   8
ATOM      3  C   UNL     1       0.004  -0.880  -1.612  0.00  0.00    +0.141 A 
ATOM      4  C   UNL     1       0.579  -0.109  -2.610  0.00  0.00    +0.048 A 
ATOM      5  C   UNL     1       1.813  -0.448  -3.125  0.00  0.00    +0.015 A 
ATOM      6  C   UNL     1       2.487  -1.571  -2.641  0.00  0.00    +0.019 A 
ATOM      7  C   UNL     1       1.909  -2.349  -1.636  0.00  0.00    +0.038 A 
ATOM      8  C   UNL     1       0.673  -2.000  -1.119  0.00  0.00    +0.076 A 
BRANCH   6   9
ATOM      9  C   UNL     1       3.808  -1.936  -3.192  0.00  0.00    +0.135 A 
ATOM     10  C   UNL     1       4.480  -1.264  -4.165  0.00  0.00    +0.050 A 
ATOM     11  C   UNL     1       5.689  -1.958  -4.377  0.00  0.00    +0.047 A 
ATOM     12  C   UNL     1       5.694  -3.008  -3.533  0.00  0.00    +0.131 A 
ATOM     13  O   UNL     1       4.559  -2.988  -2.814  0.00  0.00    -0.457 OA
BRANCH  12  14
ATOM     14  C   UNL     1       6.794  -4.031  -3.410  0.00  0.00    +0.230 C 
BRANCH  14  15
ATOM     15  O   UNL     1       7.742  -3.597  -2.433  0.00  0.00    -0.387 OA
ATOM     16  H   UNL     1       8.479  -4.208  -2.302  0.00  0.00    +0.210 HD
ENDBRANCH  14  15
ENDBRANCH  12  14
ENDBRANCH   6   9
BRANCH   3  18
ATOM     17  C   UNL     1      -1.843   0.617  -1.658  0.00  0.00    +0.277 C 
ATOM     18  O   UNL     1      -1.213  -0.541  -1.108  0.00  0.00    -0.493 OA
ENDBRANCH   3  18
ENDBRANCH   1   8
BRANCH   1  19
ATOM     19  C   UNL     1       0.055  -4.117  -0.222  0.00  0.00    +0.141 C 
ATOM     20  S   UNL     1       0.814  -4.883  -1.552  0.00  0.00    -0.018 S 
BRANCH  19  21
ATOM     21  N   UNL     1      -0.579  -4.856   0.709  0.00  0.00    -0.261 N 
ATOM     22  C   UNL     1      -0.617  -6.198   0.594  0.00  0.00    +0.285 C 
ATOM     23  O   UNL     1      -0.077  -6.743  -0.352  0.00  0.00    -0.266 OA
ATOM     24  H   UNL     1      -1.009  -4.422   1.463  0.00  0.00    +0.157 HD
BRANCH  22  25
ATOM     25  C   UNL     1      -1.306  -7.001   1.605  0.00  0.00    +0.190 A 
ATOM     26  C   UNL     1      -1.415  -8.375   1.612  0.00  0.00    +0.055 A 
ATOM     27  C   UNL     1      -2.148  -8.716   2.752  0.00  0.00    +0.050 A 
ATOM     28  C   UNL     1      -2.458  -7.551   3.394  0.00  0.00    +0.136 A 
ATOM     29  O   UNL     1      -1.940  -6.525   2.697  0.00  0.00    -0.450 OA
BRANCH  28  30
ATOM     30  C   UNL     1      -3.228  -7.438   4.648  0.00  0.00    +0.017 A 
ATOM     31  C   UNL     1      -3.705  -8.586   5.284  0.00  0.00    +0.013 A 
ATOM     32  C   UNL     1      -4.424  -8.474   6.456  0.00  0.00    +0.021 A 
ATOM     33  C   UNL     1      -4.675  -7.226   7.001  0.00  0.00    +0.041 A 
ATOM     34  C   UNL     1      -4.205  -6.083   6.375  0.00  0.00    +0.021 A 
ATOM     35  C   UNL     1      -3.479  -6.183   5.207  0.00  0.00    +0.013 A 
ATOM     36 CL   UNL     1      -5.582  -7.093   8.475  0.00  0.00    -0.084 Cl
ENDBRANCH  28  30
ENDBRANCH  22  25
ENDBRANCH  19  21
ENDBRANCH   1  19
TORSDOF 9
