REMARK  Name = ZINC23076888
REMARK  8 active torsions:
REMARK  status: ('A' for Active; 'I' for Inactive)
REMARK    1  A    between atoms: C_1  and  C_2
REMARK    2  A    between atoms: C_4  and  N_31
REMARK    3  A    between atoms: C_5  and  C_12
REMARK    4  A    between atoms: C_9  and  C_11
REMARK    5  A    between atoms: C_12  and  O_14
REMARK    6  A    between atoms: O_14  and  C_15
REMARK    7  A    between atoms: C_15  and  C_17
REMARK    8  A    between atoms: C_15  and  C_18
REMARK                            x       y       z     vdW  Elec       q    Type
REMARK                         _______ _______ _______ _____ _____    ______ ____
ROOT
ATOM      1  O   UNL     1       3.833   5.692  -0.483  0.00  0.00    -0.448 OA
ENDROOT
BRANCH   1   2
ATOM      2  C   UNL     1       4.211   4.396  -0.512  0.00  0.00    +0.348 C 
ATOM      3  O   UNL     1       5.392   4.108  -0.568  0.00  0.00    -0.244 OA
BRANCH   2   8
ATOM      4  C   UNL     1       3.431  -1.096  -0.530  0.00  0.00    +0.066 C 
ATOM      5  C   UNL     1       2.176  -0.264  -0.465  0.00  0.00    +0.052 A 
ATOM      6  C   UNL     1       2.255   1.147  -0.456  0.00  0.00    +0.050 A 
ATOM      7  C   UNL     1       3.425   2.008  -0.501  0.00  0.00    +0.057 A 
ATOM      8  C   UNL     1       3.234   3.373  -0.479  0.00  0.00    +0.119 A 
ATOM      9  S   UNL     1       1.461   3.542  -0.396  0.00  0.00    -0.060 S 
ATOM     10  C   UNL     1       1.013   1.826  -0.393  0.00  0.00    +0.114 A 
ATOM     11  N   UNL     1      -0.126   1.165  -0.347  0.00  0.00    -0.225 NA
ATOM     12  C   UNL     1      -0.129  -0.153  -0.359  0.00  0.00    +0.128 A 
ATOM     13  N   UNL     1       0.996  -0.845  -0.417  0.00  0.00    -0.237 NA
ATOM     14  C   UNL     1      -1.444  -0.887  -0.306  0.00  0.00    +0.088 C 
BRANCH   7  15
ATOM     15  N   UNL     1       4.701   1.470  -0.563  0.00  0.00    -0.356 N 
ATOM     16  H   UNL     1       5.577   2.134  -0.597  0.00  0.00    +0.142 HD
ATOM     17  H   UNL     1       4.838   0.378  -0.580  0.00  0.00    +0.142 HD
ENDBRANCH   7  15
ENDBRANCH   2   8
ENDBRANCH   1   2
BRANCH   1  18
ATOM     18  C   UNL     1       4.873   6.672  -0.520  0.00  0.00    +0.259 C 
ATOM     19  C   UNL     1       5.179   7.036  -1.974  0.00  0.00    +0.062 C 
BRANCH  18  20
ATOM     20  C   UNL     1       4.427   7.905   0.223  0.00  0.00    +0.259 C 
ATOM     21  O   UNL     1       3.328   7.941   0.734  0.00  0.00    -0.271 OA
ATOM     22  N   UNL     1       5.250   8.967   0.320  0.00  0.00    -0.266 N 
ATOM     23  C   UNL     1       4.840  10.104   1.005  0.00  0.00    +0.154 A 
ATOM     24  C   UNL     1       5.685  11.220   1.116  0.00  0.00    +0.126 A 
ATOM     25  C   UNL     1       5.210  12.345   1.812  0.00  0.00    +0.183 A 
ATOM     26  N   UNL     1       6.218  13.275   1.761  0.00  0.00    -0.216 NA
ATOM     27  H   UNL     1       7.508  10.774   0.111  0.00  0.00    +0.167 HD
ATOM     28  C   UNL     1       7.256  12.714   1.079  0.00  0.00    +0.199 A 
ATOM     29  N   UNL     1       6.937  11.514   0.691  0.00  0.00    -0.340 N 
ATOM     30  N   UNL     1       3.992  12.310   2.341  0.00  0.00    -0.214 NA
ATOM     31  C   UNL     1       3.238  11.238   2.218  0.00  0.00    +0.225 A 
ATOM     32  N   UNL     1       3.637  10.163   1.564  0.00  0.00    -0.218 NA
ATOM     33  H   UNL     1       6.248   8.935  -0.143  0.00  0.00    +0.156 HD
ENDBRANCH  18  20
ENDBRANCH   1  18
TORSDOF 5
