REMARK  Name = ZINC08838319
REMARK  6 active torsions:
REMARK  status: ('A' for Active; 'I' for Inactive)
REMARK    1  A    between atoms: C_1  and  C_2
REMARK    2  A    between atoms: C_4  and  N_24
REMARK    3  A    between atoms: C_7  and  N_8
REMARK    4  A    between atoms: C_9  and  C_11
REMARK    5  A    between atoms: C_11  and  C_12
REMARK    6  A    between atoms: C_14  and  O_23
REMARK                            x       y       z     vdW  Elec       q    Type
REMARK                         _______ _______ _______ _____ _____    ______ ____
ROOT
ATOM      1  N   UNL     1       0.025  -0.015   2.417  0.00  0.00    -0.285 N 
ATOM      2  C   UNL     1      -0.057  -0.694   3.578  0.00  0.00    +0.219 C 
ATOM      3  O   UNL     1      -0.040  -1.907   3.573  0.00  0.00    -0.275 OA
ATOM      4  H   UNL     1       0.077   0.954   2.425  0.00  0.00    +0.155 HD
ENDROOT
BRANCH   1  11
ATOM      5  C   UNL     1      -1.265   1.183   0.181  0.00  0.00    +0.046 C 
ATOM      6  C   UNL     1      -0.584  -0.158   0.084  0.00  0.00    -0.027 A 
ATOM      7  C   UNL     1      -0.569  -0.841  -1.117  0.00  0.00    +0.038 A 
ATOM      8  C   UNL     1       0.056  -2.071  -1.206  0.00  0.00    +0.127 A 
ATOM      9  C   UNL     1       0.667  -2.622  -0.095  0.00  0.00    +0.034 A 
ATOM     10  C   UNL     1       0.656  -1.944   1.109  0.00  0.00    +0.026 A 
ATOM     11  C   UNL     1       0.034  -0.706   1.201  0.00  0.00    +0.036 A 
BRANCH   8  12
ATOM     12  N   UNL     1       0.070  -2.800  -2.494  0.00  0.00    +0.056 N 
ATOM     13  O   UNL     1      -0.465  -2.320  -3.466  0.00  0.00    -0.126 OA
ATOM     14  O   UNL     1       0.615  -3.876  -2.574  0.00  0.00    -0.126 OA
ENDBRANCH   8  12
ENDBRANCH   1  11
BRANCH   2  15
ATOM     15  C   UNL     1      -0.169   0.052   4.882  0.00  0.00    +0.120 C 
BRANCH  15  16
ATOM     16  C   UNL     1      -0.245  -0.948   6.037  0.00  0.00    +0.145 C 
ATOM     17  C   UNL     1      -0.243  -0.208   7.348  0.00  0.00    +0.202 C 
ATOM     18  N   UNL     1      -1.290   0.266   7.909  0.00  0.00    -0.215 NA
ATOM     19  C   UNL     1      -2.575   0.206   7.463  0.00  0.00    +0.081 A 
ATOM     20  C   UNL     1      -3.517   1.122   7.940  0.00  0.00    +0.029 A 
ATOM     21  C   UNL     1      -4.822   1.066   7.497  0.00  0.00    +0.002 A 
ATOM     22  C   UNL     1      -5.215   0.107   6.579  0.00  0.00    +0.001 A 
ATOM     23  C   UNL     1      -4.295  -0.806   6.095  0.00  0.00    +0.017 A 
ATOM     24  C   UNL     1      -2.984  -0.758   6.530  0.00  0.00    +0.034 A 
ATOM     25  S   UNL     1      -1.786  -1.909   5.913  0.00  0.00    -0.110 S 
BRANCH  17  26
ATOM     26  O   UNL     1       0.941  -0.033   7.971  0.00  0.00    -0.495 OA
ATOM     27  H   UNL     1       0.877   0.449   8.807  0.00  0.00    +0.293 HD
ENDBRANCH  17  26
ENDBRANCH  15  16
ENDBRANCH   2  15
TORSDOF 5
