REMARK  Name = ZINC43456044
REMARK  5 active torsions:
REMARK  status: ('A' for Active; 'I' for Inactive)
REMARK    1  A    between atoms: C_1  and  C_2
REMARK    2  A    between atoms: C_2  and  C_3
REMARK    3  A    between atoms: C_2  and  C_4
REMARK    4  A    between atoms: C_4  and  N_5
REMARK    5  A    between atoms: N_8  and  C_9
REMARK                            x       y       z     vdW  Elec       q    Type
REMARK                         _______ _______ _______ _____ _____    ______ ____
ROOT
ATOM      1  C   UNL     1      -3.755  -4.750  -0.157  0.00  0.00    +0.052 A 
ATOM      2  C   UNL     1      -4.933  -4.212  -0.657  0.00  0.00    +0.073 A 
ATOM      3  C   UNL     1      -6.116  -4.929  -0.568  0.00  0.00    +0.164 A 
ATOM      4  C   UNL     1      -6.120  -6.189   0.021  0.00  0.00    +0.163 A 
ATOM      5  C   UNL     1      -4.942  -6.723   0.521  0.00  0.00    +0.066 A 
ATOM      6  C   UNL     1      -3.761  -6.009   0.428  0.00  0.00    +0.043 A 
ATOM      7 BR   UNL     1      -2.156  -6.745   1.104  0.00  0.00    -0.048 Br
ATOM      8  O   UNL     1      -7.271  -6.912   0.110  0.00  0.00    -0.485 OA
ATOM      9  C   UNL     1      -8.497  -6.194  -0.063  0.00  0.00    +0.270 C 
ATOM     10  C   UNL     1      -8.353  -5.286  -1.292  0.00  0.00    +0.270 C 
ATOM     11  O   UNL     1      -7.263  -4.386  -1.060  0.00  0.00    -0.485 OA
ENDROOT
BRANCH   1  15
ATOM     12  N   UNL     1      -1.418  -1.991  -0.131  0.00  0.00    -0.299 N 
ATOM     13  C   UNL     1      -2.575  -2.681  -0.135  0.00  0.00    +0.304 C 
ATOM     14  O   UNL     1      -3.635  -2.092  -0.037  0.00  0.00    -0.253 OA
ATOM     15  N   UNL     1      -2.559  -4.024  -0.248  0.00  0.00    -0.268 N 
ATOM     16  H   UNL     1      -0.573  -2.461  -0.209  0.00  0.00    +0.150 HD
ATOM     17  H   UNL     1      -1.720  -4.489  -0.391  0.00  0.00    +0.156 HD
BRANCH  12  18
ATOM     18  C   UNL     1      -1.435  -0.531  -0.009  0.00  0.00    +0.108 C 
BRANCH  18  20
ATOM     19  C   UNL     1      -0.023   1.530  -0.029  0.00  0.00    +0.009 C 
ATOM     20  C   UNL     1      -0.001  -0.000  -0.031  0.00  0.00    -0.000 C 
ATOM     21  C   UNL     1       0.747  -0.501   1.206  0.00  0.00    +0.009 C 
ENDBRANCH  18  20
ENDBRANCH  12  18
ENDBRANCH   1  15
TORSDOF 3
