REMARK  Name = ZINC31972168
REMARK  7 active torsions:
REMARK  status: ('A' for Active; 'I' for Inactive)
REMARK    1  A    between atoms: C_3  and  N_15
REMARK    2  A    between atoms: C_4  and  N_8
REMARK    3  A    between atoms: C_9  and  C_11
REMARK    4  A    between atoms: C_11  and  C_12
REMARK    5  A    between atoms: C_12  and  C_13
REMARK    6  A    between atoms: C_13  and  N_14
REMARK    7  A    between atoms: C_16  and  C_18
REMARK                            x       y       z     vdW  Elec       q    Type
REMARK                         _______ _______ _______ _____ _____    ______ ____
ROOT
ATOM      1  C   UNL     1      -4.865  -0.113  -0.267  0.00  0.00    +0.022 A 
ATOM      2  C   UNL     1      -4.827   1.269  -0.257  0.00  0.00    +0.026 A 
ATOM      3  C   UNL     1      -3.611   1.929  -0.166  0.00  0.00    +0.055 A 
ATOM      4  C   UNL     1      -2.428   1.195  -0.086  0.00  0.00    +0.056 A 
ATOM      5  C   UNL     1      -2.474  -0.191  -0.103  0.00  0.00    +0.045 A 
ATOM      6  C   UNL     1      -3.692  -0.842  -0.188  0.00  0.00    +0.043 A 
ATOM      7 CL   UNL     1      -3.747  -2.577  -0.202  0.00  0.00    -0.083 Cl
ENDROOT
BRANCH   4   8
ATOM      8  N   UNL     1      -1.196   1.856   0.005  0.00  0.00    -0.284 N 
ATOM      9  C   UNL     1      -0.106   1.334  -0.591  0.00  0.00    +0.217 C 
ATOM     10  O   UNL     1      -0.172   0.253  -1.136  0.00  0.00    -0.275 OA
ATOM     11  H   UNL     1      -1.119   2.801   0.562  0.00  0.00    +0.155 HD
BRANCH   9  12
ATOM     12  C   UNL     1       1.194   2.097  -0.584  0.00  0.00    +0.094 C 
BRANCH  12  13
ATOM     13  C   UNL     1       2.261   1.291  -1.328  0.00  0.00    -0.010 C 
BRANCH  13  14
ATOM     14  C   UNL     1       3.581   2.066  -1.321  0.00  0.00    -0.086 C 
BRANCH  14  15
ATOM     15  N   UNL     1       4.606   1.292  -2.035  0.00  0.00    +0.378 N 
ATOM     16  H   UNL     1       5.555   1.849  -2.030  0.00  0.00    -0.090 HD
ATOM     17  H   UNL     1       4.284   1.127  -3.073  0.00  0.00    -0.090 HD
ATOM     18  H   UNL     1       4.748   0.323  -1.536  0.00  0.00    -0.090 HD
ENDBRANCH  14  15
ENDBRANCH  13  14
ENDBRANCH  12  13
ENDBRANCH   9  12
ENDBRANCH   4   8
BRANCH   3  19
ATOM     19  N   UNL     1      -3.571   3.329  -0.155  0.00  0.00    -0.282 N 
ATOM     20  C   UNL     1      -4.556   4.027   0.444  0.00  0.00    +0.246 C 
ATOM     21  O   UNL     1      -5.518   3.447   0.902  0.00  0.00    -0.273 OA
ATOM     22  H   UNL     1      -2.736   3.859  -0.636  0.00  0.00    +0.155 HD
BRANCH  20  23
ATOM     23  C   UNL     1      -4.464   5.528   0.543  0.00  0.00    +0.204 C 
ATOM     24  C   UNL     1      -3.297   5.934   1.471  0.00  0.00    +0.043 C 
ATOM     25  C   UNL     1      -3.831   7.172   2.226  0.00  0.00    +0.031 C 
ATOM     26  C   UNL     1      -5.257   7.367   1.665  0.00  0.00    +0.161 C 
ATOM     27  O   UNL     1      -5.646   6.064   1.177  0.00  0.00    -0.367 OA
ENDBRANCH  20  23
ENDBRANCH   3  19
TORSDOF 7
