REMARK  Name = ZINC63295188
REMARK  6 active torsions:
REMARK  status: ('A' for Active; 'I' for Inactive)
REMARK    1  A    between atoms: C_1  and  O_2
REMARK    2  A    between atoms: O_2  and  C_3
REMARK    3  A    between atoms: C_6  and  O_31
REMARK    4  A    between atoms: C_9  and  C_13
REMARK    5  A    between atoms: C_18  and  C_21
REMARK    6  A    between atoms: O_31  and  C_32
REMARK                            x       y       z     vdW  Elec       q    Type
REMARK                         _______ _______ _______ _____ _____    ______ ____
ROOT
ATOM      1  C   UNL     1      -0.756  -5.263  -1.396  0.00  0.00    +0.242 C 
ATOM      2  O   UNL     1      -1.580  -5.613  -2.214  0.00  0.00    -0.273 OA
ATOM      3  N   UNL     1       0.532  -5.635  -1.534  0.00  0.00    -0.300 N 
ATOM      4  C   UNL     1       1.540  -5.224  -0.548  0.00  0.00    +0.108 C 
ATOM      5  C   UNL     1       2.698  -4.540  -1.282  0.00  0.00    +0.026 C 
ATOM      6  C   UNL     1       3.229  -5.474  -2.372  0.00  0.00    +0.036 C 
ATOM      7  C   UNL     1       2.118  -5.764  -3.384  0.00  0.00    +0.026 C 
ATOM      8  C   UNL     1       0.953  -6.466  -2.670  0.00  0.00    +0.108 C 
ENDROOT
BRANCH   1  15
ATOM      9  C   UNL     1      -1.466  -0.676  -0.470  0.00  0.00    +0.129 A 
ATOM     10  C   UNL     1      -2.643  -0.006  -0.548  0.00  0.00    +0.050 A 
ATOM     11  C   UNL     1      -3.878  -0.661  -0.545  0.00  0.00    +0.051 A 
ATOM     12  C   UNL     1      -3.991  -2.010  -0.463  0.00  0.00    +0.144 A 
ATOM     13  C   UNL     1      -2.783  -2.837  -0.374  0.00  0.00    +0.089 A 
ATOM     14  N   UNL     1      -2.612  -4.134  -0.286  0.00  0.00    -0.367 N 
ATOM     15  C   UNL     1      -1.172  -4.410  -0.225  0.00  0.00    +0.190 C 
ATOM     16  C   UNL     1      -0.488  -3.063  -0.289  0.00  0.00    +0.020 C 
ATOM     17  C   UNL     1      -1.474  -2.146  -0.383  0.00  0.00    +0.042 A 
ATOM     18  H   UNL     1      -3.318  -4.799  -0.266  0.00  0.00    +0.161 HD
BRANCH   9  20
ATOM     19  C   UNL     1      -0.365   1.427  -0.563  0.00  0.00    +0.277 C 
ATOM     20  O   UNL     1      -0.291   0.002  -0.477  0.00  0.00    -0.494 OA
ENDBRANCH   9  20
BRANCH  12  21
ATOM     21  O   UNL     1      -5.220  -2.594  -0.463  0.00  0.00    -0.493 OA
ATOM     22  C   UNL     1      -6.351  -1.725  -0.552  0.00  0.00    +0.277 C 
ENDBRANCH  12  21
ENDBRANCH   1  15
BRANCH   6  23
ATOM     23  C   UNL     1       4.407  -4.809  -3.084  0.00  0.00    +0.217 C 
ATOM     24  N   UNL     1       4.023  -3.482  -3.593  0.00  0.00    -0.188 NA
ATOM     25  N   UNL     1       4.725  -2.626  -3.052  0.00  0.00    -0.267 N 
ATOM     26  C   UNL     1       5.626  -3.126  -2.170  0.00  0.00    +0.117 C 
ATOM     27  C   UNL     1       6.558  -2.520  -1.391  0.00  0.00    +0.043 C 
ATOM     28  C   UNL     1       7.435  -3.268  -0.502  0.00  0.00    +0.001 C 
ATOM     29  C   UNL     1       7.361  -4.599  -0.413  0.00  0.00    -0.008 C 
ATOM     30  C   UNL     1       6.335  -5.320  -1.264  0.00  0.00    +0.136 C 
ATOM     31  N   UNL     1       5.487  -4.518  -2.135  0.00  0.00    -0.288 N 
ATOM     32  H   UNL     1       4.641  -1.678  -3.242  0.00  0.00    +0.190 HD
ENDBRANCH   6  23
TORSDOF 4
