REMARK  Name = ZINC61639686
REMARK  6 active torsions:
REMARK  status: ('A' for Active; 'I' for Inactive)
REMARK    1  A    between atoms: C_3  and  O_11
REMARK    2  A    between atoms: C_4  and  N_8
REMARK    3  A    between atoms: O_11  and  C_12
REMARK    4  A    between atoms: C_12  and  C_13
REMARK    5  A    between atoms: C_17  and  N_19
REMARK    6  A    between atoms: N_19  and  N_20
REMARK                            x       y       z     vdW  Elec       q    Type
REMARK                         _______ _______ _______ _____ _____    ______ ____
ROOT
ATOM      1  C   UNL     1       3.455   3.531  -0.013  0.00  0.00    +0.286 C 
ENDROOT
BRANCH   1   2
ATOM      2  C   UNL     1       4.840   4.125  -0.023  0.00  0.00    +0.099 A 
ATOM      3  C   UNL     1       5.481   4.382   1.173  0.00  0.00    +0.066 A 
ATOM      4  C   UNL     1       6.758   4.930   1.157  0.00  0.00    +0.025 A 
ATOM      5  C   UNL     1       7.345   5.199  -0.067  0.00  0.00    +0.046 A 
ATOM      6  C   UNL     1       6.641   4.914  -1.232  0.00  0.00    +0.133 A 
ATOM      7  N   UNL     1       5.428   4.387  -1.175  0.00  0.00    -0.231 NA
ATOM      8 CL   UNL     1       4.699   4.026   2.682  0.00  0.00    -0.082 Cl
BRANCH   6   9
ATOM      9  N   UNL     1       7.220   5.180  -2.468  0.00  0.00    -0.268 N 
ATOM     10  H   UNL     1       8.110   5.563  -2.515  0.00  0.00    +0.167 HD
BRANCH   9  11
ATOM     11  N   UNL     1       6.534   4.903  -3.617  0.00  0.00    -0.255 NA
ATOM     12  H   UNL     1       5.640   5.369  -3.626  0.00  0.00    +0.140 HD
ATOM     13  H   UNL     1       7.078   5.148  -4.431  0.00  0.00    +0.140 HD
ENDBRANCH   9  11
ENDBRANCH   6   9
ENDBRANCH   1   2
BRANCH   1  14
ATOM     14  O   UNL     1       3.549   2.105  -0.021  0.00  0.00    -0.484 OA
BRANCH  14  17
ATOM     15  C   UNL     1      -0.017   1.379   0.010  0.00  0.00    +0.024 A 
ATOM     16  C   UNL     1       1.170   2.087   0.002  0.00  0.00    +0.049 A 
ATOM     17  C   UNL     1       2.380   1.410  -0.013  0.00  0.00    +0.151 A 
ATOM     18  C   UNL     1       2.397   0.023  -0.021  0.00  0.00    +0.169 A 
ATOM     19  C   UNL     1       1.209  -0.681  -0.013  0.00  0.00    +0.056 A 
ATOM     20  C   UNL     1       0.002  -0.004   0.002  0.00  0.00    +0.043 A 
ATOM     21 CL   UNL     1      -1.490  -0.891   0.011  0.00  0.00    -0.083 Cl
BRANCH  18  22
ATOM     22  N   UNL     1       3.687  -0.702  -0.037  0.00  0.00    +0.060 N 
ATOM     23  O   UNL     1       3.701  -1.911  -0.044  0.00  0.00    -0.126 OA
ATOM     24  O   UNL     1       4.727  -0.085  -0.044  0.00  0.00    -0.126 OA
ENDBRANCH  18  22
ENDBRANCH  14  17
ENDBRANCH   1  14
TORSDOF 6
