REMARK  Name = ZINC15822177
REMARK  9 active torsions:
REMARK  status: ('A' for Active; 'I' for Inactive)
REMARK    1  A    between atoms: C_1  and  C_2
REMARK    2  A    between atoms: C_2  and  C_4
REMARK    3  A    between atoms: C_2  and  O_11
REMARK    4  A    between atoms: N_6  and  C_7
REMARK    5  A    between atoms: C_7  and  C_8
REMARK    6  A    between atoms: C_7  and  C_9
REMARK    7  A    between atoms: C_7  and  C_10
REMARK    8  A    between atoms: O_11  and  C_12
REMARK    9  A    between atoms: C_12  and  C_14
REMARK                            x       y       z     vdW  Elec       q    Type
REMARK                         _______ _______ _______ _____ _____    ______ ____
ROOT
ATOM      1  O   UNL     1       1.327  -2.663   2.172  0.00  0.00    -0.449 OA
ENDROOT
BRANCH   1   3
ATOM      2  C   UNL     1      -0.811  -2.712   1.006  0.00  0.00    +0.062 C 
ATOM      3  C   UNL     1       0.625  -2.182   0.995  0.00  0.00    +0.259 C 
BRANCH   3   4
ATOM      4  C   UNL     1       0.604  -0.675   1.004  0.00  0.00    +0.254 C 
ATOM      5  O   UNL     1       1.130  -0.067   1.911  0.00  0.00    -0.272 OA
ATOM      6  N   UNL     1       0.002  -0.004   0.002  0.00  0.00    -0.308 N 
ATOM      7  H   UNL     1      -0.418  -0.491  -0.724  0.00  0.00    +0.149 HD
BRANCH   6   8
ATOM      8  C   UNL     1      -0.018   1.461   0.010  0.00  0.00    +0.026 C 
ATOM      9  C   UNL     1       1.418   1.990  -0.001  0.00  0.00    +0.031 C 
ATOM     10  C   UNL     1      -0.758   1.968  -1.230  0.00  0.00    +0.031 C 
ATOM     11  C   UNL     1      -0.734   1.954   1.269  0.00  0.00    +0.031 C 
ENDBRANCH   6   8
ENDBRANCH   3   4
ENDBRANCH   1   3
BRANCH   1  12
ATOM     12  C   UNL     1       1.977  -3.838   2.058  0.00  0.00    +0.340 C 
ATOM     13  O   UNL     1       1.958  -4.444   1.005  0.00  0.00    -0.245 OA
BRANCH  12  14
ATOM     14  C   UNL     1       2.712  -4.388   3.212  0.00  0.00    +0.060 A 
ATOM     15  C   UNL     1       2.746  -3.694   4.430  0.00  0.00    +0.017 A 
ATOM     16  C   UNL     1       3.410  -4.184   5.506  0.00  0.00    +0.029 A 
ATOM     17  C   UNL     1       4.107  -5.414   5.432  0.00  0.00    +0.078 A 
ATOM     18  C   UNL     1       4.064  -6.095   4.192  0.00  0.00    +0.040 A 
ATOM     19  C   UNL     1       3.390  -5.606   3.105  0.00  0.00    +0.032 A 
ATOM     20  S   UNL     1       5.035  -7.543   4.529  0.00  0.00    -0.075 S 
ATOM     21  C   UNL     1       5.414  -7.184   6.185  0.00  0.00    +0.157 A 
ATOM     22  N   UNL     1       4.816  -6.042   6.389  0.00  0.00    -0.247 NA
ENDBRANCH  12  14
ENDBRANCH   1  12
TORSDOF 5
