REMARK  Name = ZINC28573169
REMARK  8 active torsions:
REMARK  status: ('A' for Active; 'I' for Inactive)
REMARK    1  A    between atoms: C_1  and  C_2
REMARK    2  A    between atoms: C_10  and  C_24
REMARK    3  A    between atoms: C_11  and  C_12
REMARK    4  A    between atoms: C_12  and  C_13
REMARK    5  A    between atoms: C_13  and  N_14
REMARK    6  A    between atoms: C_15  and  C_17
REMARK    7  A    between atoms: C_19  and  C_23
REMARK    8  A    between atoms: N_21  and  C_22
REMARK                            x       y       z     vdW  Elec       q    Type
REMARK                         _______ _______ _______ _____ _____    ______ ____
ROOT
ATOM      1  C   UNL     1      -7.851   8.455   1.623  0.00  0.00    +0.046 C 
ATOM      2  C   UNL     1      -6.596   7.740   2.055  0.00  0.00    -0.025 A 
ATOM      3  C   UNL     1      -6.346   7.536   3.394  0.00  0.00    +0.025 A 
ATOM      4  C   UNL     1      -5.193   6.880   3.807  0.00  0.00    +0.042 A 
ATOM      5  C   UNL     1      -4.282   6.424   2.881  0.00  0.00    +0.030 A 
ATOM      6  C   UNL     1      -4.522   6.623   1.520  0.00  0.00    +0.005 A 
ATOM      7  C   UNL     1      -5.690   7.287   1.103  0.00  0.00    +0.050 A 
ATOM      8  N   UNL     1      -5.658   7.338  -0.274  0.00  0.00    -0.358 N 
ATOM      9  H   UNL     1      -6.482   7.814  -0.826  0.00  0.00    +0.166 HD
ATOM     10  C   UNL     1      -4.518   6.739  -0.735  0.00  0.00    +0.017 A 
ATOM     11  C   UNL     1      -3.792   6.281   0.297  0.00  0.00    -0.018 A 
ATOM     12  C   UNL     1      -4.135   6.610  -2.187  0.00  0.00    +0.063 C 
ATOM     13 CL   UNL     1      -4.899   6.636   5.501  0.00  0.00    -0.084 Cl
ENDROOT
BRANCH  11  14
ATOM     14  C   UNL     1      -2.472   5.558   0.214  0.00  0.00    +0.056 C 
BRANCH  14  15
ATOM     15  C   UNL     1      -2.721   4.051   0.123  0.00  0.00    +0.109 C 
BRANCH  15  16
ATOM     16  N   UNL     1      -1.438   3.349   0.042  0.00  0.00    -0.310 N 
ATOM     17  C   UNL     1      -1.411   2.004  -0.046  0.00  0.00    +0.262 C 
ATOM     18  O   UNL     1      -2.450   1.380  -0.153  0.00  0.00    -0.269 OA
ATOM     19  H   UNL     1      -0.497   3.918   0.053  0.00  0.00    +0.149 HD
BRANCH  17  20
ATOM     20  C   UNL     1      -0.124   1.291  -0.014  0.00  0.00    +0.123 A 
ATOM     21  C   UNL     1       1.139   1.856  -0.009  0.00  0.00    +0.057 A 
ATOM     22  C   UNL     1       2.026   0.778   0.032  0.00  0.00    +0.061 A 
ATOM     23  N   UNL     1       1.320  -0.323   0.048  0.00  0.00    -0.176 NA
ATOM     24  N   UNL     1       0.062  -0.062   0.022  0.00  0.00    -0.262 N 
ATOM     25  C   UNL     1      -1.008  -1.062   0.031  0.00  0.00    +0.173 C 
ATOM     26  C   UNL     1       3.531   0.867   0.052  0.00  0.00    +0.067 C 
ENDBRANCH  17  20
ENDBRANCH  15  16
ENDBRANCH  14  15
ENDBRANCH  11  14
TORSDOF 4
