REMARK  Name = ZINC04539075
REMARK  3 active torsions:
REMARK  status: ('A' for Active; 'I' for Inactive)
REMARK    1  A    between atoms: C_6  and  N_7
REMARK    2  A    between atoms: C_8  and  C_10
REMARK    3  A    between atoms: C_10  and  C_11
REMARK                            x       y       z     vdW  Elec       q    Type
REMARK                         _______ _______ _______ _____ _____    ______ ____
ROOT
ATOM      1  N   UNL     1      -0.011   0.966   0.007  0.00  0.00    -0.286 N 
ATOM      2  C   UNL     1      -1.248   1.475  -0.160  0.00  0.00    +0.216 C 
ATOM      3  O   UNL     1      -1.391   2.658  -0.386  0.00  0.00    -0.276 OA
ATOM      4  H   UNL     1       0.109   0.009   0.111  0.00  0.00    +0.155 HD
ENDROOT
BRANCH   1  10
ATOM      5  C   UNL     1       2.318   1.382  -0.478  0.00  0.00    +0.024 A 
ATOM      6  C   UNL     1       3.411   2.226  -0.463  0.00  0.00    +0.016 A 
ATOM      7  C   UNL     1       3.296   3.500   0.065  0.00  0.00    +0.013 A 
ATOM      8  C   UNL     1       2.085   3.934   0.573  0.00  0.00    +0.016 A 
ATOM      9  C   UNL     1       0.987   3.096   0.555  0.00  0.00    +0.024 A 
ATOM     10  C   UNL     1       1.100   1.817   0.026  0.00  0.00    +0.033 A 
ATOM     11  I   UNL     1       4.959   4.774   0.094  0.00  0.00    -0.044 I 
ENDBRANCH   1  10
BRANCH   2  12
ATOM     12  C   UNL     1      -2.453   0.575  -0.066  0.00  0.00    +0.089 C 
BRANCH  12  13
ATOM     13  C   UNL     1      -3.723   1.397  -0.293  0.00  0.00    +0.025 C 
ATOM     14  C   UNL     1      -4.927   0.526  -0.073  0.00  0.00    +0.199 C 
ATOM     15  O   UNL     1      -4.930  -0.233   0.873  0.00  0.00    -0.278 OA
ATOM     16  N   UNL     1      -5.995   0.552  -0.876  0.00  0.00    -0.318 N 
ATOM     17  C   UNL     1      -6.077   1.403  -2.061  0.00  0.00    +0.085 C 
ATOM     18  C   UNL     1      -5.034   2.519  -1.977  0.00  0.00    -0.063 C 
ATOM     19  H   UNL     1      -6.750  -0.018  -0.663  0.00  0.00    +0.149 HD
ATOM     20  N   UNL     1      -3.723   1.919  -1.669  0.00  0.00    +0.388 N 
ATOM     21  H   UNL     1      -3.538   1.150  -2.325  0.00  0.00    -0.085 HD
ATOM     22  H   UNL     1      -2.991   2.632  -1.763  0.00  0.00    -0.085 HD
ENDBRANCH  12  13
ENDBRANCH   2  12
TORSDOF 3
