REMARK  Name = ZINC12973613
REMARK  7 active torsions:
REMARK  status: ('A' for Active; 'I' for Inactive)
REMARK    1  A    between atoms: C_1  and  C_2
REMARK    2  A    between atoms: C_4  and  C_27
REMARK    3  A    between atoms: N_5  and  C_7
REMARK    4  A    between atoms: C_7  and  C_8
REMARK    5  A    between atoms: N_10  and  N_11
REMARK    6  A    between atoms: C_12  and  C_14
REMARK    7  A    between atoms: C_17  and  C_19
REMARK                            x       y       z     vdW  Elec       q    Type
REMARK                         _______ _______ _______ _____ _____    ______ ____
ROOT
ATOM      1  N   UNL     1      -0.966   1.736  -3.578  0.00  0.00    -0.228 N 
ATOM      2  C   UNL     1      -0.513   1.424  -4.808  0.00  0.00    +0.295 C 
ATOM      3  O   UNL     1       0.485   0.738  -4.933  0.00  0.00    -0.265 OA
ATOM      4  H   UNL     1      -1.761   2.283  -3.479  0.00  0.00    +0.173 HD
ENDROOT
BRANCH   2   5
ATOM      5  C   UNL     1      -1.222   1.909  -5.995  0.00  0.00    +0.191 A 
ATOM      6  C   UNL     1      -0.865   1.669  -7.304  0.00  0.00    +0.055 A 
ATOM      7  C   UNL     1      -1.813   2.314  -8.105  0.00  0.00    +0.051 A 
ATOM      8  C   UNL     1      -2.700   2.925  -7.265  0.00  0.00    +0.137 A 
ATOM      9  O   UNL     1      -2.334   2.674  -5.997  0.00  0.00    -0.450 OA
BRANCH   8  10
ATOM     10  C   UNL     1      -3.868   3.727  -7.681  0.00  0.00    +0.037 A 
ATOM     11  C   UNL     1      -5.127   3.470  -7.133  0.00  0.00    +0.033 A 
ATOM     12  C   UNL     1      -6.214   4.223  -7.526  0.00  0.00    +0.042 A 
ATOM     13  C   UNL     1      -6.059   5.233  -8.462  0.00  0.00    +0.021 A 
ATOM     14  C   UNL     1      -4.816   5.493  -9.008  0.00  0.00    +0.022 A 
ATOM     15  C   UNL     1      -3.718   4.750  -8.620  0.00  0.00    +0.052 A 
ATOM     16 CL   UNL     1      -2.157   5.082  -9.303  0.00  0.00    -0.083 Cl
ATOM     17 CL   UNL     1      -7.779   3.905  -6.847  0.00  0.00    -0.084 Cl
ENDBRANCH   8  10
ENDBRANCH   2   5
BRANCH   1  20
ATOM     18  C   UNL     1      -0.742   1.585  -1.213  0.00  0.00    +0.251 C 
ATOM     19  O   UNL     1      -1.736   2.268  -1.088  0.00  0.00    -0.272 OA
ATOM     20  N   UNL     1      -0.288   1.272  -2.443  0.00  0.00    -0.233 N 
ATOM     21  H   UNL     1       0.507   0.726  -2.543  0.00  0.00    +0.173 HD
BRANCH  18  22
ATOM     22  C   UNL     1      -0.013   1.086   0.008  0.00  0.00    +0.240 C 
BRANCH  22  27
ATOM     23  C   UNL     1      -3.154   1.279   3.918  0.00  0.00    +0.067 C 
ATOM     24  C   UNL     1      -2.082   1.622   2.917  0.00  0.00    +0.060 A 
ATOM     25  C   UNL     1      -1.294   2.778   2.923  0.00  0.00    +0.047 A 
ATOM     26  C   UNL     1      -0.449   2.711   1.869  0.00  0.00    +0.037 A 
ATOM     27  N   UNL     1      -0.698   1.558   1.213  0.00  0.00    -0.259 N 
ATOM     28  N   UNL     1      -1.725   0.890   1.893  0.00  0.00    -0.176 NA
ATOM     29  C   UNL     1       0.585   3.741   1.491  0.00  0.00    +0.065 C 
ENDBRANCH  22  27
ENDBRANCH  18  22
ENDBRANCH   1  20
TORSDOF 5
