REMARK  Name = ZINC36389938
REMARK  5 active torsions:
REMARK  status: ('A' for Active; 'I' for Inactive)
REMARK    1  A    between atoms: C_1  and  C_2
REMARK    2  A    between atoms: N_16  and  C_17
REMARK    3  A    between atoms: C_17  and  C_18
REMARK    4  A    between atoms: N_20  and  C_21
REMARK    5  A    between atoms: C_21  and  C_28
REMARK                            x       y       z     vdW  Elec       q    Type
REMARK                         _______ _______ _______ _____ _____    ______ ____
ROOT
ATOM      1  C   UNL     1      -0.199   1.371   0.248  0.00  0.00    -0.008 C 
ATOM      2  C   UNL     1       0.024  -0.112  -0.052  0.00  0.00    -0.040 C 
ATOM      3  C   UNL     1      -1.307  -0.816  -0.088  0.00  0.00    -0.054 A 
ATOM      4  C   UNL     1      -2.380  -0.177  -0.691  0.00  0.00    +0.051 A 
ATOM      5  C   UNL     1      -3.620  -0.790  -0.748  0.00  0.00    +0.162 A 
ATOM      6  C   UNL     1      -3.789  -2.056  -0.199  0.00  0.00    +0.162 A 
ATOM      7  C   UNL     1      -2.715  -2.690   0.404  0.00  0.00    +0.053 A 
ATOM      8  C   UNL     1      -1.477  -2.070   0.461  0.00  0.00    -0.038 A 
ATOM      9  C   UNL     1      -0.338  -2.788   1.134  0.00  0.00    -0.019 C 
ATOM     10  C   UNL     1      -0.530  -2.749   2.661  0.00  0.00    +0.010 C 
ATOM     11  C   UNL     1      -1.221  -4.097   2.989  0.00  0.00    +0.001 C 
ATOM     12  C   UNL     1      -0.526  -5.084   2.018  0.00  0.00    +0.001 C 
ATOM     13  C   UNL     1      -0.336  -4.268   0.722  0.00  0.00    +0.010 C 
ATOM     14  C   UNL     1       0.994  -2.141   0.764  0.00  0.00    -0.066 C 
ATOM     15  N   UNL     1       0.887  -0.690   0.982  0.00  0.00    +0.390 N 
ATOM     16  O   UNL     1      -4.995  -2.683  -0.251  0.00  0.00    -0.485 OA
ATOM     17  C   UNL     1      -6.135  -1.863  -0.530  0.00  0.00    +0.270 C 
ATOM     18  C   UNL     1      -5.790  -0.945  -1.710  0.00  0.00    +0.270 C 
ATOM     19  O   UNL     1      -4.662  -0.144  -1.340  0.00  0.00    -0.485 OA
ATOM     20  H   UNL     1       0.488  -0.513   1.892  0.00  0.00    -0.080 HD
ENDROOT
BRANCH  15  21
ATOM     21  C   UNL     1       2.222  -0.082   0.903  0.00  0.00    +0.019 C 
BRANCH  21  22
ATOM     22  C   UNL     1       3.067  -0.574   2.050  0.00  0.00    +0.197 C 
ATOM     23  O   UNL     1       2.574  -1.272   2.910  0.00  0.00    -0.278 OA
ATOM     24  N   UNL     1       4.370  -0.236   2.120  0.00  0.00    -0.310 N 
ATOM     25  H   UNL     1       4.764   0.323   1.433  0.00  0.00    +0.149 HD
BRANCH  24  26
ATOM     26  C   UNL     1       5.191  -0.715   3.235  0.00  0.00    +0.052 C 
ATOM     27  C   UNL     1       4.537  -0.281   4.546  0.00  0.00    +0.049 C 
ATOM     28  C   UNL     1       5.613  -0.108   5.654  0.00  0.00    +0.168 C 
ATOM     29  S   UNL     1       6.959   0.668   4.657  0.00  0.00    -0.029 S 
ATOM     30  O   UNL     1       6.694   2.057   4.515  0.00  0.00    -0.174 OA
ATOM     31  O   UNL     1       8.218   0.242   5.160  0.00  0.00    -0.174 OA
ATOM     32  C   UNL     1       6.625  -0.179   3.058  0.00  0.00    +0.191 C 
ATOM     33  C   UNL     1       5.229  -2.244   3.193  0.00  0.00    +0.033 C 
ENDBRANCH  24  26
ENDBRANCH  21  22
ENDBRANCH  15  21
TORSDOF 3
