REMARK  Name = ZINC67561571
REMARK  7 active torsions:
REMARK  status: ('A' for Active; 'I' for Inactive)
REMARK    1  A    between atoms: C_1  and  C_2
REMARK    2  A    between atoms: C_2  and  C_3
REMARK    3  A    between atoms: C_3  and  C_4
REMARK    4  A    between atoms: C_12  and  C_14
REMARK    5  A    between atoms: N_16  and  C_17
REMARK    6  A    between atoms: C_20  and  C_26
REMARK    7  A    between atoms: C_21  and  C_23
REMARK                            x       y       z     vdW  Elec       q    Type
REMARK                         _______ _______ _______ _____ _____    ______ ____
ROOT
ATOM      1  C   UNL     1      -1.256  -4.496   3.748  0.00  0.00    +0.303 C 
ATOM      2  O   UNL     1      -0.092  -4.166   3.639  0.00  0.00    -0.265 OA
ATOM      3  N   UNL     1      -1.765  -4.778   4.964  0.00  0.00    -0.278 N 
ATOM      4  H   UNL     1      -2.671  -5.114   5.044  0.00  0.00    +0.155 HD
ENDROOT
BRANCH   1  12
ATOM      5  C   UNL     1      -0.439  -1.990  -0.014  0.00  0.00    -0.009 C 
ATOM      6  C   UNL     1      -1.934  -2.161  -0.269  0.00  0.00    +0.005 C 
ATOM      7  C   UNL     1      -2.178  -3.494  -0.933  0.00  0.00    +0.019 C 
ATOM      8  C   UNL     1      -2.461  -4.571   0.130  0.00  0.00    +0.108 C 
ATOM      9  N   UNL     1      -1.585  -4.431   1.310  0.00  0.00    -0.294 N 
ATOM     10  C   UNL     1      -0.174  -4.132   1.204  0.00  0.00    +0.108 C 
ATOM     11  C   UNL     1       0.032  -2.598   1.240  0.00  0.00    +0.022 C 
ATOM     12  C   UNL     1      -2.122  -4.589   2.535  0.00  0.00    +0.302 C 
ATOM     13  O   UNL     1      -3.310  -4.807   2.654  0.00  0.00    -0.265 OA
BRANCH   5  14
ATOM     14  C   UNL     1      -0.121  -0.494   0.021  0.00  0.00    +0.003 C 
BRANCH  14  16
ATOM     15  C   UNL     1       1.713   1.200   0.129  0.00  0.00    +0.004 C 
ATOM     16  C   UNL     1       1.395  -0.296   0.093  0.00  0.00    -0.003 C 
ENDBRANCH  14  16
ENDBRANCH   5  14
ENDBRANCH   1  12
BRANCH   3  17
ATOM     17  C   UNL     1      -0.987  -4.586   6.109  0.00  0.00    +0.035 A 
ATOM     18  C   UNL     1      -0.006  -3.601   6.126  0.00  0.00    +0.023 A 
ATOM     19  C   UNL     1       0.765  -3.407   7.256  0.00  0.00    +0.006 A 
ATOM     20  C   UNL     1       0.568  -4.191   8.375  0.00  0.00    -0.038 A 
ATOM     21  C   UNL     1      -0.414  -5.183   8.368  0.00  0.00    +0.041 A 
ATOM     22  C   UNL     1      -1.198  -5.374   7.230  0.00  0.00    +0.036 A 
ATOM     23  C   UNL     1       1.413  -3.976   9.604  0.00  0.00    +0.044 C 
BRANCH  21  24
ATOM     24  C   UNL     1      -0.628  -6.024   9.565  0.00  0.00    +0.242 C 
ATOM     25  O   UNL     1      -0.030  -5.779  10.595  0.00  0.00    -0.270 OA
ATOM     26  N   UNL     1      -1.485  -7.063   9.515  0.00  0.00    -0.325 N 
ATOM     27  H   UNL     1      -1.962  -7.258   8.694  0.00  0.00    +0.145 HD
ATOM     28  H   UNL     1      -1.625  -7.614  10.301  0.00  0.00    +0.145 HD
ENDBRANCH  21  24
ENDBRANCH   3  17
TORSDOF 5
