REMARK  Name = ZINC67415567
REMARK  5 active torsions:
REMARK  status: ('A' for Active; 'I' for Inactive)
REMARK    1  A    between atoms: C_1  and  C_2
REMARK    2  A    between atoms: N_4  and  C_5
REMARK    3  A    between atoms: C_5  and  C_6
REMARK    4  A    between atoms: N_11  and  C_13
REMARK    5  A    between atoms: C_13  and  C_14
REMARK                            x       y       z     vdW  Elec       q    Type
REMARK                         _______ _______ _______ _____ _____    ______ ____
ROOT
ATOM      1  C   UNL     1      -5.278  -6.848  -0.455  0.00  0.00    +0.116 A 
ATOM      2  N   UNL     1      -5.926  -7.215   0.636  0.00  0.00    -0.219 NA
ATOM      3  C   UNL     1      -7.215  -7.513   0.623  0.00  0.00    +0.128 A 
ATOM      4  C   UNL     1      -7.931  -7.436  -0.604  0.00  0.00    +0.051 A 
ATOM      5  C   UNL     1      -9.350  -7.716  -0.854  0.00  0.00    -0.025 A 
ATOM      6  C   UNL     1      -9.781  -7.569  -2.122  0.00  0.00    -0.004 A 
ATOM      7  S   UNL     1      -8.356  -7.049  -3.043  0.00  0.00    -0.073 S 
ATOM      8  C   UNL     1      -7.174  -7.037  -1.722  0.00  0.00    +0.114 A 
ATOM      9  N   UNL     1      -5.889  -6.754  -1.620  0.00  0.00    -0.227 NA
ATOM     10  C   UNL     1     -11.161  -7.804  -2.655  0.00  0.00    +0.043 C 
ATOM     11  C   UNL     1     -12.179  -7.087  -1.760  0.00  0.00    +0.005 C 
ATOM     12  C   UNL     1     -12.606  -8.046  -0.653  0.00  0.00    +0.001 C 
ATOM     13  C   UNL     1     -11.440  -8.957  -0.274  0.00  0.00    +0.005 C 
ATOM     14  C   UNL     1     -10.280  -8.139   0.280  0.00  0.00    +0.037 C 
ATOM     15  N   UNL     1      -7.859  -7.894   1.787  0.00  0.00    -0.343 N 
ATOM     16  H   UNL     1      -8.811  -7.741   1.887  0.00  0.00    +0.144 HD
ATOM     17  H   UNL     1      -7.357  -8.314   2.503  0.00  0.00    +0.144 HD
ENDROOT
BRANCH   1  18
ATOM     18  C   UNL     1      -3.809  -6.524  -0.366  0.00  0.00    -0.001 C 
BRANCH  18  23
ATOM     19  C   UNL     1      -2.037  -3.252   0.123  0.00  0.00    -0.011 C 
ATOM     20  C   UNL     1      -2.615  -2.880   1.491  0.00  0.00    +0.001 C 
ATOM     21  C   UNL     1      -4.084  -3.308   1.548  0.00  0.00    -0.018 C 
ATOM     22  C   UNL     1      -4.184  -4.808   1.265  0.00  0.00    -0.078 C 
ATOM     23  N   UNL     1      -3.640  -5.096  -0.067  0.00  0.00    +0.385 N 
ATOM     24  C   UNL     1      -2.213  -4.754  -0.108  0.00  0.00    -0.073 C 
ATOM     25  H   UNL     1      -4.135  -4.550  -0.756  0.00  0.00    -0.081 HD
BRANCH  19  26
ATOM     26  C   UNL     1      -0.549  -2.900   0.083  0.00  0.00    +0.105 C 
BRANCH  26  30
ATOM     27  C   UNL     1       1.011   0.591   0.280  0.00  0.00    +0.109 C 
ATOM     28  C   UNL     1       0.845  -0.903   0.173  0.00  0.00    +0.210 C 
ATOM     29  O   UNL     1       1.821  -1.616   0.075  0.00  0.00    -0.276 OA
ATOM     30  N   UNL     1      -0.388  -1.447   0.187  0.00  0.00    -0.315 N 
ATOM     31  H   UNL     1      -1.169  -0.877   0.266  0.00  0.00    +0.149 HD
ENDBRANCH  26  30
ENDBRANCH  19  26
ENDBRANCH  18  23
ENDBRANCH   1  18
TORSDOF 4
