REMARK  Name = ZINC62387538
REMARK  7 active torsions:
REMARK  status: ('A' for Active; 'I' for Inactive)
REMARK    1  A    between atoms: C_1  and  C_2
REMARK    2  A    between atoms: C_6  and  O_23
REMARK    3  A    between atoms: C_7  and  C_19
REMARK    4  A    between atoms: N_8  and  C_9
REMARK    5  A    between atoms: C_19  and  N_20
REMARK    6  A    between atoms: N_20  and  C_21
REMARK    7  A    between atoms: N_20  and  C_22
REMARK                            x       y       z     vdW  Elec       q    Type
REMARK                         _______ _______ _______ _____ _____    ______ ____
ROOT
ATOM      1  C   UNL     1      -0.066   0.599  -0.356  0.00  0.00    +0.063 C 
ATOM      2  C   UNL     1      -0.742   1.357  -1.469  0.00  0.00    +0.020 A 
ATOM      3  C   UNL     1       0.001   2.107  -2.314  0.00  0.00    +0.075 A 
ATOM      4  C   UNL     1      -0.638   2.815  -3.356  0.00  0.00    +0.223 A 
ATOM      5  O   UNL     1       0.010   3.500  -4.134  0.00  0.00    -0.284 OA
ATOM      6  C   UNL     1      -2.047   2.715  -3.481  0.00  0.00    +0.182 A 
ATOM      7  C   UNL     1      -2.735   1.947  -2.602  0.00  0.00    +0.048 A 
ATOM      8  N   UNL     1      -2.086   1.275  -1.615  0.00  0.00    -0.340 N 
ENDROOT
BRANCH   8   9
ATOM      9  C   UNL     1      -2.858   0.448  -0.684  0.00  0.00    +0.046 C 
ATOM     10  C   UNL     1      -2.599  -1.030  -0.980  0.00  0.00    +0.032 C 
ATOM     11  C   UNL     1      -3.406  -1.894  -0.008  0.00  0.00    -0.008 C 
ATOM     12  C   UNL     1      -2.981  -1.579   1.427  0.00  0.00    +0.007 C 
ATOM     13  C   UNL     1      -3.240  -0.100   1.723  0.00  0.00    -0.008 C 
ATOM     14  C   UNL     1      -2.433   0.763   0.751  0.00  0.00    +0.032 C 
ATOM     15  C   UNL     1      -4.731   0.200   1.555  0.00  0.00    +0.007 C 
ATOM     16  C   UNL     1      -5.156  -0.115   0.120  0.00  0.00    -0.008 C 
ATOM     17  C   UNL     1      -4.897  -1.594  -0.176  0.00  0.00    +0.007 C 
ATOM     18  C   UNL     1      -4.349   0.748  -0.852  0.00  0.00    +0.032 C 
ENDBRANCH   8   9
BRANCH   6  19
ATOM     19  O   UNL     1      -2.700   3.382  -4.471  0.00  0.00    -0.502 OA
ATOM     20  H   UNL     1      -2.120   3.901  -5.044  0.00  0.00    +0.292 HD
ENDBRANCH   6  19
BRANCH   7  21
ATOM     21  C   UNL     1      -4.232   1.833  -2.724  0.00  0.00    -0.021 C 
BRANCH  21  22
ATOM     22  N   UNL     1      -4.569   0.676  -3.564  0.00  0.00    +0.380 N 
ATOM     23  C   UNL     1      -4.068  -0.552  -2.931  0.00  0.00    -0.096 C 
ATOM     24  C   UNL     1      -6.027   0.588  -3.716  0.00  0.00    -0.096 C 
ATOM     25  H   UNL     1      -4.142   0.784  -4.472  0.00  0.00    -0.082 HD
ENDBRANCH  21  22
ENDBRANCH   7  21
TORSDOF 4
