REMARK  Name = ZINC06448184
REMARK  6 active torsions:
REMARK  status: ('A' for Active; 'I' for Inactive)
REMARK    1  A    between atoms: C_6  and  C_7
REMARK    2  A    between atoms: C_7  and  N_8
REMARK    3  A    between atoms: C_11  and  C_12
REMARK    4  A    between atoms: N_13  and  C_14
REMARK    5  A    between atoms: C_20  and  N_47
REMARK    6  A    between atoms: C_25  and  O_26
REMARK                            x       y       z     vdW  Elec       q    Type
REMARK                         _______ _______ _______ _____ _____    ______ ____
ROOT
ATOM      1  N   UNL     1       1.316   2.971  -7.137  0.00  0.00    -0.223 N 
ATOM      2  C   UNL     1       2.061   2.617  -6.068  0.00  0.00    +0.241 C 
ATOM      3  O   UNL     1       3.244   2.358  -6.186  0.00  0.00    -0.274 OA
ATOM      4  C   UNL     1       1.395   2.550  -4.757  0.00  0.00    +0.204 C 
ATOM      5  C   UNL     1      -0.043   2.889  -4.719  0.00  0.00    +0.257 C 
ATOM      6  O   UNL     1      -0.663   2.861  -3.670  0.00  0.00    -0.272 OA
ATOM      7  N   UNL     1      -0.648   3.229  -5.869  0.00  0.00    -0.130 NA
ATOM      8  C   UNL     1      -0.004   3.266  -7.008  0.00  0.00    +0.281 C 
ENDROOT
BRANCH   4   9
ATOM      9  C   UNL     1       2.084   2.191  -3.613  0.00  0.00    +0.100 C 
ATOM     10  N   UNL     1       1.416   1.988  -2.460  0.00  0.00    -0.293 NA
BRANCH  10  11
ATOM     11  C   UNL     1       2.155   1.727  -1.222  0.00  0.00    +0.090 C 
ATOM     12  C   UNL     1       2.480   0.235  -1.126  0.00  0.00    +0.025 C 
ATOM     13  C   UNL     1       1.180  -0.571  -1.124  0.00  0.00    +0.002 C 
ATOM     14  C   UNL     1       0.326  -0.158   0.076  0.00  0.00    -0.001 C 
ATOM     15  C   UNL     1       0.000   1.334  -0.019  0.00  0.00    -0.014 C 
ATOM     16  C   UNL     1       1.300   2.141  -0.022  0.00  0.00    -0.050 C 
BRANCH  16  19
ATOM     17  H   UNL     1       0.424   3.871   0.668  0.00  0.00    -0.090 HD
ATOM     18  H   UNL     1       1.831   4.123  -0.182  0.00  0.00    -0.090 HD
ATOM     19  N   UNL     1       0.975   3.573  -0.135  0.00  0.00    +0.381 N 
ATOM     20  H   UNL     1       0.429   3.729  -0.991  0.00  0.00    -0.090 HD
ENDBRANCH  16  19
ENDBRANCH  10  11
ENDBRANCH   4   9
BRANCH   8  21
ATOM     21  O   UNL     1      -0.688   3.618  -8.114  0.00  0.00    -0.483 OA
ATOM     22  H   UNL     1      -1.625   3.825  -8.003  0.00  0.00    +0.295 HD
ENDBRANCH   8  21
BRANCH   1  23
ATOM     23  C   UNL     1       1.943   3.044  -8.459  0.00  0.00    +0.153 C 
BRANCH  23  29
ATOM     24  C   UNL     1       1.690   5.399  -9.267  0.00  0.00    +0.008 A 
ATOM     25  C   UNL     1       2.185   6.674  -9.467  0.00  0.00    +0.038 A 
ATOM     26  C   UNL     1       3.482   6.979  -9.090  0.00  0.00    +0.123 A 
ATOM     27  C   UNL     1       4.280   6.008  -8.509  0.00  0.00    +0.038 A 
ATOM     28  C   UNL     1       3.781   4.736  -8.305  0.00  0.00    +0.008 A 
ATOM     29  C   UNL     1       2.486   4.432  -8.681  0.00  0.00    -0.029 A 
ATOM     30  F   UNL     1       3.969   8.223  -9.290  0.00  0.00    -0.205 F 
ENDBRANCH  23  29
ENDBRANCH   1  23
TORSDOF 6
