REMARK  Name = ZINC20710299
REMARK  7 active torsions:
REMARK  status: ('A' for Active; 'I' for Inactive)
REMARK    1  A    between atoms: C_1  and  C_2
REMARK    2  A    between atoms: C_2  and  C_3
REMARK    3  A    between atoms: C_3  and  N_4
REMARK    4  A    between atoms: C_5  and  C_7
REMARK    5  A    between atoms: C_20  and  C_23
REMARK    6  A    between atoms: C_25  and  N_30
REMARK    7  A    between atoms: C_28  and  O_29
REMARK                            x       y       z     vdW  Elec       q    Type
REMARK                         _______ _______ _______ _____ _____    ______ ____
ROOT
ATOM      1  C   UNL     1       3.577   2.126   3.504  0.00  0.00    +0.037 A 
ATOM      2  C   UNL     1       4.138   2.424   2.259  0.00  0.00    +0.015 A 
ATOM      3  C   UNL     1       3.402   2.246   1.112  0.00  0.00    +0.024 A 
ATOM      4  C   UNL     1       2.094   1.769   1.178  0.00  0.00    +0.031 A 
ATOM      5  C   UNL     1       1.537   1.457   2.427  0.00  0.00    -0.019 A 
ATOM      6  C   UNL     1       2.268   1.641   3.574  0.00  0.00    +0.019 A 
ATOM      7  C   UNL     1       0.163   0.910   2.443  0.00  0.00    +0.049 C 
ATOM      8  C   UNL     1      -0.739   1.084   3.610  0.00  0.00    -0.023 C 
ATOM      9  C   UNL     1      -1.992   1.137   3.173  0.00  0.00    -0.030 C 
ATOM     10  C   UNL     1      -2.018   1.035   1.647  0.00  0.00    +0.033 C 
ATOM     11  C   UNL     1      -0.637   1.595   1.295  0.00  0.00    +0.029 C 
ATOM     12  C   UNL     1      -0.013   1.086   0.008  0.00  0.00    +0.108 C 
ATOM     13  N   UNL     1       1.368   1.615  -0.002  0.00  0.00    -0.336 N 
ATOM     14  H   UNL     1       1.842   1.897  -0.954  0.00  0.00    +0.147 HD
ENDROOT
BRANCH  12  15
ATOM     15  C   UNL     1      -0.777   1.602  -1.184  0.00  0.00    +0.017 A 
ATOM     16  C   UNL     1      -0.321   2.710  -1.871  0.00  0.00    +0.041 A 
ATOM     17  C   UNL     1      -1.021   3.184  -2.965  0.00  0.00    +0.127 A 
ATOM     18  C   UNL     1      -2.179   2.550  -3.374  0.00  0.00    +0.036 A 
ATOM     19  C   UNL     1      -2.640   1.441  -2.691  0.00  0.00    +0.048 A 
ATOM     20  C   UNL     1      -1.936   0.960  -1.596  0.00  0.00    +0.122 A 
BRANCH  17  21
ATOM     21  N   UNL     1      -0.530   4.372  -3.698  0.00  0.00    +0.056 N 
ATOM     22  O   UNL     1       0.490   4.931  -3.339  0.00  0.00    -0.126 OA
ATOM     23  O   UNL     1      -1.146   4.790  -4.662  0.00  0.00    -0.126 OA
ENDBRANCH  17  21
BRANCH  20  24
ATOM     24  O   UNL     1      -2.384  -0.134  -0.926  0.00  0.00    -0.506 OA
ATOM     25  H   UNL     1      -3.303  -0.641  -1.253  0.00  0.00    +0.292 HD
ENDBRANCH  20  24
ENDBRANCH  12  15
BRANCH   1  27
ATOM     26  N   UNL     1       5.624   2.792   4.666  0.00  0.00    -0.311 N 
ATOM     27  C   UNL     1       4.362   2.324   4.738  0.00  0.00    +0.244 C 
ATOM     28  O   UNL     1       3.871   2.064   5.819  0.00  0.00    -0.270 OA
ATOM     29  H   UNL     1       6.068   3.027   3.687  0.00  0.00    +0.149 HD
BRANCH  26  30
ATOM     30  C   UNL     1       6.403   2.988   5.891  0.00  0.00    +0.104 C 
BRANCH  30  32
ATOM     31  C   UNL     1       8.605   3.729   6.811  0.00  0.00    +0.005 C 
ATOM     32  C   UNL     1       7.791   3.524   5.532  0.00  0.00    +0.015 C 
ENDBRANCH  30  32
ENDBRANCH  26  30
ENDBRANCH   1  27
TORSDOF 6
