REMARK  Name = ZINC05887115
REMARK  13 active torsions:
REMARK  status: ('A' for Active; 'I' for Inactive)
REMARK    1  A    between atoms: C_1  and  C_2
REMARK    2  A    between atoms: C_5  and  C_7
REMARK    3  A    between atoms: C_7  and  O_8
REMARK    4  A    between atoms: C_11  and  C_22
REMARK    5  A    between atoms: N_13  and  C_18
REMARK    6  A    between atoms: C_18  and  C_19
REMARK    7  A    between atoms: C_19  and  N_56
REMARK    8  A    between atoms: C_20  and  N_56
REMARK    9  A    between atoms: C_21  and  N_56
REMARK   10  A    between atoms: C_26  and  O_30
REMARK   11  A    between atoms: C_27  and  O_28
REMARK   12  A    between atoms: O_28  and  C_29
REMARK   13  A    between atoms: O_30  and  C_31
REMARK                            x       y       z     vdW  Elec       q    Type
REMARK                         _______ _______ _______ _____ _____    ______ ____
ROOT
ATOM      1  C   UNL     1       5.551   1.783  -1.615  0.00  0.00    +0.168 C 
ATOM      2  C   UNL     1       4.171   2.369  -1.464  0.00  0.00    +0.074 C 
ATOM      3  C   UNL     1       3.670   2.198  -0.021  0.00  0.00    +0.148 C 
ATOM      4  N   UNL     1       3.758   4.734  -1.274  0.00  0.00    -0.285 N 
ATOM      5  C   UNL     1       3.473   4.405  -2.539  0.00  0.00    +0.288 C 
ATOM      6  O   UNL     1       3.085   5.188  -3.382  0.00  0.00    -0.266 OA
ATOM      7  C   UNL     1       3.693   2.951  -2.778  0.00  0.00    +0.249 C 
ATOM      8  O   UNL     1       3.525   2.354  -3.815  0.00  0.00    -0.282 OA
ENDROOT
BRANCH   1  13
ATOM      9  C   UNL     1       5.603   0.771  -6.468  0.00  0.00    +0.086 C 
ATOM     10  C   UNL     1       6.036   0.891  -5.029  0.00  0.00    +0.103 A 
ATOM     11  C   UNL     1       7.237   0.508  -4.536  0.00  0.00    +0.045 A 
ATOM     12  C   UNL     1       7.231   0.791  -3.164  0.00  0.00    +0.053 A 
ATOM     13  C   UNL     1       5.998   1.344  -2.882  0.00  0.00    +0.170 A 
ATOM     14  O   UNL     1       5.293   1.387  -4.033  0.00  0.00    -0.457 OA
ENDBRANCH   1  13
BRANCH   3  15
ATOM     15  C   UNL     1       2.379   1.420  -0.013  0.00  0.00    +0.023 A 
ATOM     16  C   UNL     1       1.169   2.089   0.002  0.00  0.00    +0.009 A 
ATOM     17  C   UNL     1      -0.017   1.379   0.010  0.00  0.00    +0.004 A 
ATOM     18  C   UNL     1       0.002  -0.004   0.002  0.00  0.00    +0.049 A 
ATOM     19  C   UNL     1       1.211  -0.680  -0.013  0.00  0.00    +0.162 A 
ATOM     20  C   UNL     1       2.405   0.035  -0.021  0.00  0.00    +0.167 A 
BRANCH  20  21
ATOM     21  O   UNL     1       3.594  -0.624  -0.036  0.00  0.00    -0.491 OA
ATOM     22  C   UNL     1       4.149  -0.931  -1.317  0.00  0.00    +0.277 C 
ENDBRANCH  20  21
BRANCH  19  23
ATOM     23  O   UNL     1       1.231  -2.040  -0.020  0.00  0.00    -0.491 OA
ATOM     24  C   UNL     1      -0.032  -2.708  -0.011  0.00  0.00    +0.277 C 
ENDBRANCH  19  23
ENDBRANCH   3  15
BRANCH   1  25
ATOM     25  O   UNL     1       6.280   1.687  -0.648  0.00  0.00    -0.503 OA
ATOM     26  H   UNL     1       5.809   2.041   0.160  0.00  0.00    +0.292 HD
ENDBRANCH   1  25
BRANCH   4  27
ATOM     27  C   UNL     1       3.642   6.088  -0.727  0.00  0.00    +0.090 C 
BRANCH  27  28
ATOM     28  C   UNL     1       4.967   6.829  -0.914  0.00  0.00    -0.060 C 
BRANCH  28  31
ATOM     29  C   UNL     1       6.162   8.847  -0.311  0.00  0.00    -0.097 C 
ATOM     30  C   UNL     1       3.891   8.987  -1.139  0.00  0.00    -0.097 C 
ATOM     31  N   UNL     1       4.841   8.185  -0.339  0.00  0.00    +0.377 N 
ATOM     32  H   UNL     1       4.486   8.108   0.622  0.00  0.00    -0.083 HD
ENDBRANCH  28  31
ENDBRANCH  27  28
ENDBRANCH   4  27
TORSDOF 8
