REMARK  Name = ZINC51089050
REMARK  5 active torsions:
REMARK  status: ('A' for Active; 'I' for Inactive)
REMARK    1  A    between atoms: C_1  and  C_2
REMARK    2  A    between atoms: C_4  and  N_7
REMARK    3  A    between atoms: C_8  and  C_10
REMARK    4  A    between atoms: C_14  and  N_16
REMARK    5  A    between atoms: N_16  and  N_17
REMARK                            x       y       z     vdW  Elec       q    Type
REMARK                         _______ _______ _______ _____ _____    ______ ____
ROOT
ATOM      1  C   UNL     1       0.071  -5.658  -1.888  0.00  0.00    +0.128 A 
ATOM      2  C   UNL     1       0.086  -6.929  -1.323  0.00  0.00    +0.033 A 
ATOM      3  C   UNL     1       0.097  -8.040  -2.155  0.00  0.00    +0.006 A 
ATOM      4  C   UNL     1       0.093  -7.842  -3.523  0.00  0.00    +0.045 A 
ATOM      5  C   UNL     1       0.078  -6.541  -4.025  0.00  0.00    +0.133 A 
ATOM      6  N   UNL     1       0.062  -5.503  -3.208  0.00  0.00    -0.226 NA
ENDROOT
BRANCH   1   8
ATOM      7  N   UNL     1       0.039  -3.231  -1.551  0.00  0.00    -0.249 N 
ATOM      8  C   UNL     1       0.059  -4.465  -1.010  0.00  0.00    +0.269 C 
ATOM      9  O   UNL     1       0.067  -4.600   0.197  0.00  0.00    -0.268 OA
ATOM     10  H   UNL     1       0.033  -3.123  -2.515  0.00  0.00    +0.158 HD
BRANCH   7  14
ATOM     11  C   UNL     1      -0.018   1.503   0.010  0.00  0.00    +0.069 C 
ATOM     12  C   UNL     1       0.002  -0.004   0.002  0.00  0.00    +0.082 A 
ATOM     13  C   UNL     1       0.008  -0.820  -1.138  0.00  0.00    +0.092 A 
ATOM     14  C   UNL     1       0.028  -2.114  -0.729  0.00  0.00    +0.224 A 
ATOM     15  O   UNL     1       0.034  -2.120   0.615  0.00  0.00    -0.339 OA
ATOM     16  N   UNL     1       0.023  -0.774   1.055  0.00  0.00    -0.081 NA
ENDBRANCH   7  14
ENDBRANCH   1   8
BRANCH   5  17
ATOM     17  N   UNL     1       0.074  -6.334  -5.399  0.00  0.00    -0.268 N 
ATOM     18  H   UNL     1       0.082  -7.092  -6.004  0.00  0.00    +0.167 HD
BRANCH  17  19
ATOM     19  N   UNL     1       0.060  -5.062  -5.898  0.00  0.00    -0.255 NA
ATOM     20  H   UNL     1       0.836  -4.525  -5.541  0.00  0.00    +0.140 HD
ATOM     21  H   UNL     1       0.059  -5.070  -6.907  0.00  0.00    +0.140 HD
ENDBRANCH  17  19
ENDBRANCH   5  17
TORSDOF 4
