REMARK  Name = ZINC09966595
REMARK  9 active torsions:
REMARK  status: ('A' for Active; 'I' for Inactive)
REMARK    1  A    between atoms: C_1  and  C_2
REMARK    2  A    between atoms: C_2  and  O_3
REMARK    3  A    between atoms: O_3  and  C_4
REMARK    4  A    between atoms: C_9  and  N_10
REMARK    5  A    between atoms: C_20  and  S_21
REMARK    6  A    between atoms: S_21  and  C_22
REMARK    7  A    between atoms: C_22  and  C_24
REMARK    8  A    between atoms: C_22  and  C_25
REMARK    9  A    between atoms: N_30  and  C_31
REMARK                            x       y       z     vdW  Elec       q    Type
REMARK                         _______ _______ _______ _____ _____    ______ ____
ROOT
ATOM      1  N   UNL     1      -2.429   1.038   0.019  0.00  0.00    -0.252 N 
ATOM      2  C   UNL     1      -3.015   0.706  -1.155  0.00  0.00    +0.267 A 
ATOM      3  O   UNL     1      -2.516   1.018  -2.221  0.00  0.00    -0.267 OA
ATOM      4  C   UNL     1      -4.274  -0.048  -1.095  0.00  0.00    +0.065 A 
ATOM      5  C   UNL     1      -4.953  -0.441  -2.248  0.00  0.00    +0.015 A 
ATOM      6  C   UNL     1      -6.124  -1.138  -2.136  0.00  0.00    +0.001 A 
ATOM      7  C   UNL     1      -6.644  -1.457  -0.888  0.00  0.00    +0.002 A 
ATOM      8  C   UNL     1      -6.000  -1.085   0.258  0.00  0.00    +0.028 A 
ATOM      9  C   UNL     1      -4.800  -0.371   0.176  0.00  0.00    +0.079 A 
ATOM     10  N   UNL     1      -4.132   0.016   1.282  0.00  0.00    -0.223 NA
ATOM     11  C   UNL     1      -3.008   0.684   1.206  0.00  0.00    +0.178 A 
ENDROOT
BRANCH   1  17
ATOM     12  C   UNL     1      -1.238   3.146   0.032  0.00  0.00    +0.144 A 
ATOM     13  C   UNL     1      -0.043   3.848   0.024  0.00  0.00    +0.048 A 
ATOM     14  C   UNL     1       1.160   3.166   0.008  0.00  0.00    +0.004 A 
ATOM     15  C   UNL     1       1.175   1.783   0.000  0.00  0.00    +0.002 A 
ATOM     16  C   UNL     1      -0.013   1.076   0.008  0.00  0.00    +0.030 A 
ATOM     17  C   UNL     1      -1.223   1.753   0.017  0.00  0.00    +0.093 A 
BRANCH  12  18
ATOM     18  O   UNL     1      -2.421   3.815   0.048  0.00  0.00    -0.490 OA
BRANCH  18  20
ATOM     19  C   UNL     1      -3.777   5.815   0.073  0.00  0.00    +0.048 C 
ATOM     20  C   UNL     1      -2.359   5.243   0.055  0.00  0.00    +0.226 C 
ENDBRANCH  18  20
ENDBRANCH  12  18
ENDBRANCH   1  17
BRANCH  11  21
ATOM     21  S   UNL     1      -2.204   1.149   2.704  0.00  0.00    -0.075 S 
BRANCH  21  22
ATOM     22  C   UNL     1      -3.360   0.452   3.910  0.00  0.00    +0.137 C 
ATOM     23  C   UNL     1      -3.370  -1.073   3.786  0.00  0.00    +0.029 C 
BRANCH  22  24
ATOM     24  C   UNL     1      -2.929   0.840   5.301  0.00  0.00    +0.233 C 
ATOM     25  O   UNL     1      -1.787   1.192   5.506  0.00  0.00    -0.274 OA
ATOM     26  N   UNL     1      -3.813   0.797   6.317  0.00  0.00    -0.239 N 
ATOM     27  C   UNL     1      -3.428   1.144   7.561  0.00  0.00    +0.306 C 
ATOM     28  O   UNL     1      -2.283   1.496   7.766  0.00  0.00    -0.252 OA
ATOM     29  N   UNL     1      -4.312   1.100   8.577  0.00  0.00    -0.302 N 
ATOM     30  C   UNL     1      -3.893   1.478   9.930  0.00  0.00    +0.129 C 
ATOM     31  H   UNL     1      -4.727   0.516   6.153  0.00  0.00    +0.159 HD
ATOM     32  H   UNL     1      -5.226   0.819   8.414  0.00  0.00    +0.150 HD
ENDBRANCH  22  24
ENDBRANCH  21  22
ENDBRANCH  11  21
TORSDOF 6
