REMARK  Name = ZINC49512823
REMARK  10 active torsions:
REMARK  status: ('A' for Active; 'I' for Inactive)
REMARK    1  A    between atoms: C_1  and  C_2
REMARK    2  A    between atoms: C_2  and  C_3
REMARK    3  A    between atoms: C_2  and  C_4
REMARK    4  A    between atoms: C_13  and  N_16
REMARK    5  A    between atoms: C_17  and  C_19
REMARK    6  A    between atoms: N_21  and  C_22
REMARK    7  A    between atoms: C_22  and  C_23
REMARK    8  A    between atoms: C_23  and  C_25
REMARK    9  A    between atoms: C_23  and  N_31
REMARK   10  A    between atoms: N_29  and  C_30
REMARK                            x       y       z     vdW  Elec       q    Type
REMARK                         _______ _______ _______ _____ _____    ______ ____
ROOT
ATOM      1  N   UNL     1      -6.394  -1.474   1.024  0.00  0.00    -0.278 N 
ATOM      2  C   UNL     1      -7.636  -1.959   1.219  0.00  0.00    +0.303 C 
ATOM      3  O   UNL     1      -7.836  -3.155   1.161  0.00  0.00    -0.265 OA
ATOM      4  H   UNL     1      -6.218  -0.528   1.143  0.00  0.00    +0.155 HD
ENDROOT
BRANCH   1  14
ATOM      5  C   UNL     1      -1.432  -1.534   1.767  0.00  0.00    +0.222 C 
ATOM      6  O   UNL     1      -2.246  -0.635   1.777  0.00  0.00    -0.275 OA
ATOM      7  N   UNL     1      -1.741  -2.716   1.199  0.00  0.00    -0.271 N 
ATOM      8  C   UNL     1      -0.724  -3.768   1.063  0.00  0.00    +0.114 C 
ATOM      9  C   UNL     1      -0.838  -4.350  -0.352  0.00  0.00    +0.024 C 
ATOM     10  C   UNL     1      -2.211  -5.004  -0.508  0.00  0.00    +0.038 C 
ATOM     11  C   UNL     1      -3.300  -4.049  -0.095  0.00  0.00    -0.026 A 
ATOM     12  C   UNL     1      -3.039  -2.965   0.732  0.00  0.00    +0.041 A 
ATOM     13  C   UNL     1      -4.066  -2.108   1.104  0.00  0.00    +0.047 A 
ATOM     14  C   UNL     1      -5.358  -2.335   0.651  0.00  0.00    +0.036 A 
ATOM     15  C   UNL     1      -5.617  -3.422  -0.175  0.00  0.00    +0.024 A 
ATOM     16  C   UNL     1      -4.590  -4.268  -0.552  0.00  0.00    +0.007 A 
BRANCH   5  18
ATOM     17  C   UNL     1       0.015   0.088   2.960  0.00  0.00    +0.017 C 
ATOM     18  C   UNL     1      -0.076  -1.329   2.391  0.00  0.00    +0.069 C 
ATOM     19  C   UNL     1       0.127  -2.345   3.517  0.00  0.00    +0.017 C 
ENDBRANCH   5  18
ENDBRANCH   1  14
BRANCH   2  20
ATOM     20  C   UNL     1      -8.766  -1.026   1.506  0.00  0.00    +0.299 C 
ATOM     21  O   UNL     1      -8.565   0.170   1.563  0.00  0.00    -0.265 OA
ATOM     22  N   UNL     1     -10.008  -1.511   1.700  0.00  0.00    -0.309 N 
ATOM     23  H   UNL     1     -10.168  -2.466   1.654  0.00  0.00    +0.149 HD
BRANCH  22  24
ATOM     24  C   UNL     1     -11.116  -0.595   1.982  0.00  0.00    +0.095 C 
BRANCH  24  25
ATOM     25  C   UNL     1     -12.427  -1.382   2.034  0.00  0.00    -0.003 C 
BRANCH  25  26
ATOM     26  C   UNL     1     -12.401  -2.324   3.210  0.00  0.00    +0.006 A 
ATOM     27  C   UNL     1     -12.439  -3.671   3.145  0.00  0.00    +0.021 A 
ATOM     28  C   UNL     1     -12.394  -4.158   4.466  0.00  0.00    +0.019 A 
ATOM     29  C   UNL     1     -12.331  -3.091   5.288  0.00  0.00    +0.085 A 
ATOM     30  N   UNL     1     -12.329  -1.963   4.523  0.00  0.00    -0.355 N 
ATOM     31  C   UNL     1     -12.264  -0.589   5.027  0.00  0.00    +0.148 C 
ENDBRANCH  25  26
BRANCH  25  32
ATOM     32  N   UNL     1     -12.586  -2.152   0.793  0.00  0.00    +0.386 N 
ATOM     33  C   UNL     1     -12.496  -1.244  -0.370  0.00  0.00    -0.078 C 
ATOM     34  C   UNL     1     -13.510  -1.813  -1.395  0.00  0.00    -0.020 C 
ATOM     35  C   UNL     1     -14.659  -2.289  -0.467  0.00  0.00    -0.020 C 
ATOM     36  C   UNL     1     -13.909  -2.804   0.779  0.00  0.00    -0.078 C 
ATOM     37  H   UNL     1     -11.862  -2.852   0.732  0.00  0.00    -0.081 HD
ENDBRANCH  25  32
ENDBRANCH  24  25
ENDBRANCH  22  24
ENDBRANCH   2  20
TORSDOF 7
