REMARK  Name = ZINC09066209
REMARK  8 active torsions:
REMARK  status: ('A' for Active; 'I' for Inactive)
REMARK    1  A    between atoms: C_1  and  C_2
REMARK    2  A    between atoms: C_2  and  C_3
REMARK    3  A    between atoms: C_2  and  C_4
REMARK    4  A    between atoms: C_4  and  C_5
REMARK    5  A    between atoms: C_5  and  N_6
REMARK    6  A    between atoms: C_7  and  C_9
REMARK    7  A    between atoms: C_9  and  C_10
REMARK    8  A    between atoms: C_10  and  N_11
REMARK                            x       y       z     vdW  Elec       q    Type
REMARK                         _______ _______ _______ _____ _____    ______ ____
ROOT
ATOM      1  N   UNL     1      -7.816  -1.021  -3.597  0.00  0.00    -0.299 N 
ATOM      2  C   UNL     1      -8.626  -0.794  -4.651  0.00  0.00    +0.307 C 
ATOM      3  O   UNL     1      -8.246  -0.092  -5.568  0.00  0.00    -0.252 OA
ATOM      4  N   UNL     1      -9.855  -1.345  -4.687  0.00  0.00    -0.245 N 
ATOM      5  C   UNL     1     -10.378  -2.111  -3.545  0.00  0.00    +0.211 C 
ATOM      6  C   UNL     1     -11.086  -3.338  -4.059  0.00  0.00    +0.235 C 
ATOM      7  O   UNL     1     -11.127  -4.337  -3.373  0.00  0.00    -0.274 OA
ATOM      8  N   UNL     1     -11.674  -3.338  -5.271  0.00  0.00    -0.283 N 
ATOM      9  C   UNL     1     -11.599  -2.216  -6.103  0.00  0.00    +0.055 A 
ATOM     10  C   UNL     1     -10.681  -1.201  -5.813  0.00  0.00    +0.059 A 
ATOM     11  C   UNL     1     -10.593  -0.085  -6.625  0.00  0.00    +0.025 A 
ATOM     12  C   UNL     1     -11.423   0.030  -7.726  0.00  0.00    +0.002 A 
ATOM     13  C   UNL     1     -12.338  -0.966  -8.014  0.00  0.00    +0.002 A 
ATOM     14  C   UNL     1     -12.425  -2.096  -7.208  0.00  0.00    +0.025 A 
ATOM     15  H   UNL     1      -8.145  -1.519  -2.832  0.00  0.00    +0.150 HD
ATOM     16  H   UNL     1     -12.155  -4.125  -5.570  0.00  0.00    +0.155 HD
ENDROOT
BRANCH   1  17
ATOM     17  C   UNL     1      -6.441  -0.517  -3.607  0.00  0.00    +0.115 C 
BRANCH  17  18
ATOM     18  C   UNL     1      -5.744  -0.908  -2.303  0.00  0.00    +0.114 C 
BRANCH  18  20
ATOM     19  N   UNL     1      -3.520  -0.617  -1.260  0.00  0.00    -0.315 N 
ATOM     20  C   UNL     1      -4.330  -0.389  -2.314  0.00  0.00    +0.215 C 
ATOM     21  O   UNL     1      -3.919   0.233  -3.271  0.00  0.00    -0.276 OA
ATOM     22  H   UNL     1      -3.848  -1.114  -0.495  0.00  0.00    +0.149 HD
BRANCH  19  23
ATOM     23  C   UNL     1      -2.145  -0.112  -1.271  0.00  0.00    +0.104 C 
BRANCH  23  24
ATOM     24  C   UNL     1      -1.448  -0.504   0.033  0.00  0.00    +0.022 C 
BRANCH  24  26
ATOM     25  C   UNL     1      -0.030   1.553   0.017  0.00  0.00    +0.007 C 
ATOM     26  C   UNL     1      -0.012   0.024   0.022  0.00  0.00    -0.016 C 
ATOM     27  C   UNL     1       0.724  -0.473   1.269  0.00  0.00    +0.007 C 
ENDBRANCH  24  26
ENDBRANCH  23  24
ENDBRANCH  19  23
ENDBRANCH  18  20
ENDBRANCH  17  18
ENDBRANCH   1  17
TORSDOF 6
