REMARK  Name = ZINC36500918
REMARK  15 active torsions:
REMARK  status: ('A' for Active; 'I' for Inactive)
REMARK    1  A    between atoms: C_1  and  C_2
REMARK    2  A    between atoms: C_2  and  C_3
REMARK    3  A    between atoms: C_2  and  C_4
REMARK    4  A    between atoms: C_2  and  N_5
REMARK    5  A    between atoms: C_6  and  C_8
REMARK    6  A    between atoms: C_8  and  C_10
REMARK    7  A    between atoms: C_8  and  N_19
REMARK    8  A    between atoms: C_13  and  O_18
REMARK    9  A    between atoms: C_14  and  O_16
REMARK   10  A    between atoms: O_16  and  C_17
REMARK   11  A    between atoms: N_19  and  C_20
REMARK   12  A    between atoms: C_20  and  C_21
REMARK   13  A    between atoms: C_26  and  C_28
REMARK   14  A    between atoms: C_32  and  O_35
REMARK   15  A    between atoms: C_33  and  O_34
REMARK                            x       y       z     vdW  Elec       q    Type
REMARK                         _______ _______ _______ _____ _____    ______ ____
ROOT
ATOM      1  C   UNL     1       3.126  -1.546  -3.183  0.00  0.00    +0.193 C 
ENDROOT
BRANCH   1   2
ATOM      2  C   UNL     1       1.775  -1.560  -3.851  0.00  0.00    -0.015 A 
ATOM      3  C   UNL     1       0.944  -0.460  -3.750  0.00  0.00    +0.010 A 
ATOM      4  C   UNL     1      -0.296  -0.469  -4.361  0.00  0.00    +0.049 A 
ATOM      5  C   UNL     1      -0.709  -1.582  -5.076  0.00  0.00    +0.158 A 
ATOM      6  C   UNL     1       0.128  -2.689  -5.178  0.00  0.00    +0.162 A 
ATOM      7  C   UNL     1       1.372  -2.672  -4.567  0.00  0.00    +0.055 A 
BRANCH   6   8
ATOM      8  O   UNL     1      -0.272  -3.783  -5.879  0.00  0.00    -0.491 OA
ATOM      9  C   UNL     1       0.659  -4.862  -5.984  0.00  0.00    +0.277 C 
ENDBRANCH   6   8
BRANCH   5  10
ATOM     10  O   UNL     1      -1.929  -1.592  -5.677  0.00  0.00    -0.503 OA
ATOM     11  H   UNL     1      -1.923  -1.256  -6.584  0.00  0.00    +0.292 HD
ENDBRANCH   5  10
ENDBRANCH   1   2
BRANCH   1  13
ATOM     12  N   UNL     1       3.653  -3.929  -3.581  0.00  0.00    -0.309 N 
ATOM     13  C   UNL     1       3.460  -2.932  -2.695  0.00  0.00    +0.239 C 
ATOM     14  O   UNL     1       3.556  -3.149  -1.506  0.00  0.00    -0.273 OA
ATOM     15  H   UNL     1       3.576  -3.755  -4.532  0.00  0.00    +0.149 HD
BRANCH  12  17
ATOM     16  C   UNL     1       2.847  -5.789  -2.212  0.00  0.00    +0.031 C 
ATOM     17  C   UNL     1       3.978  -5.277  -3.106  0.00  0.00    +0.026 C 
ATOM     18  C   UNL     1       5.282  -5.235  -2.307  0.00  0.00    +0.031 C 
ATOM     19  C   UNL     1       4.145  -6.213  -4.305  0.00  0.00    +0.031 C 
ENDBRANCH  12  17
ENDBRANCH   1  13
BRANCH   1  20
ATOM     20  N   UNL     1       3.099  -0.621  -2.046  0.00  0.00    -0.275 N 
ATOM     21  C   UNL     1       4.061   0.313  -1.915  0.00  0.00    +0.252 C 
ATOM     22  O   UNL     1       4.126   0.980  -0.900  0.00  0.00    -0.270 OA
BRANCH  21  23
ATOM     23  C   UNL     1       5.035   0.527  -3.002  0.00  0.00    +0.082 A 
ATOM     24  C   UNL     1       4.595   0.679  -4.320  0.00  0.00    +0.017 A 
ATOM     25  C   UNL     1       5.508   0.878  -5.332  0.00  0.00    +0.005 A 
ATOM     26  C   UNL     1       6.864   0.930  -5.052  0.00  0.00    +0.049 A 
ATOM     27  C   UNL     1       7.315   0.782  -3.752  0.00  0.00    +0.159 A 
ATOM     28  C   UNL     1       6.405   0.585  -2.718  0.00  0.00    +0.171 A 
BRANCH  28  29
ATOM     29  O   UNL     1       6.843   0.445  -1.440  0.00  0.00    -0.503 OA
ATOM     30  H   UNL     1       7.031  -0.469  -1.187  0.00  0.00    +0.292 HD
ENDBRANCH  28  29
BRANCH  27  31
ATOM     31  O   UNL     1       8.648   0.834  -3.484  0.00  0.00    -0.503 OA
ATOM     32  H   UNL     1       8.975   1.722  -3.287  0.00  0.00    +0.292 HD
ENDBRANCH  27  31
ENDBRANCH  21  23
BRANCH  20  33
ATOM     33  C   UNL     1       2.026  -0.713  -1.053  0.00  0.00    +0.183 C 
BRANCH  33  34
ATOM     34  C   UNL     1       2.570  -0.361   0.307  0.00  0.00    +0.122 A 
ATOM     35  C   UNL     1       2.540   0.858   0.875  0.00  0.00    +0.046 A 
ATOM     36  C   UNL     1       3.154   0.734   2.143  0.00  0.00    +0.041 A 
ATOM     37  C   UNL     1       3.523  -0.553   2.273  0.00  0.00    +0.195 A 
ATOM     38  O   UNL     1       3.161  -1.213   1.161  0.00  0.00    -0.466 OA
ENDBRANCH  33  34
ENDBRANCH  20  33
ENDBRANCH   1  20
TORSDOF 11
