REMARK  Name = ZINC39712498
REMARK  7 active torsions:
REMARK  status: ('A' for Active; 'I' for Inactive)
REMARK    1  A    between atoms: C_1  and  C_2
REMARK    2  A    between atoms: C_4  and  C_32
REMARK    3  A    between atoms: C_8  and  C_12
REMARK    4  A    between atoms: C_12  and  C_14
REMARK    5  A    between atoms: C_12  and  S_15
REMARK    6  A    between atoms: S_15  and  C_16
REMARK    7  A    between atoms: C_20  and  C_22
REMARK                            x       y       z     vdW  Elec       q    Type
REMARK                         _______ _______ _______ _____ _____    ______ ____
ROOT
ATOM      1  C   UNL     1       6.458  -5.253   2.182  0.00  0.00    +0.340 C 
ATOM      2  N   UNL     1       7.695  -4.461   2.071  0.00  0.00    -0.219 N 
ATOM      3  N   UNL     1       8.415  -5.037   1.014  0.00  0.00    -0.145 NA
ATOM      4  C   UNL     1       7.752  -6.045   0.514  0.00  0.00    +0.238 C 
ATOM      5  O   UNL     1       6.571  -6.247   1.154  0.00  0.00    -0.443 OA
ATOM      6  H   UNL     1       7.956  -3.701   2.614  0.00  0.00    +0.173 HD
ENDROOT
BRANCH   4   7
ATOM      7  C   UNL     1       8.207  -6.830  -0.555  0.00  0.00    +0.043 C 
ATOM      8  C   UNL     1       9.407  -6.689  -1.254  0.00  0.00    +0.008 A 
ATOM      9  C   UNL     1      10.481  -5.783  -1.130  0.00  0.00    +0.010 A 
ATOM     10  C   UNL     1      11.547  -5.884  -1.966  0.00  0.00    +0.001 A 
ATOM     11  C   UNL     1      11.610  -6.868  -2.955  0.00  0.00    +0.002 A 
ATOM     12  C   UNL     1      10.614  -7.771  -3.130  0.00  0.00    +0.026 A 
ATOM     13  C   UNL     1       9.469  -7.729  -2.294  0.00  0.00    +0.043 A 
ATOM     14  N   UNL     1       8.384  -8.479  -2.261  0.00  0.00    -0.380 N 
ATOM     15  C   UNL     1       7.503  -8.009  -1.189  0.00  0.00    +0.154 C 
ATOM     16  H   UNL     1       8.201  -9.227  -2.852  0.00  0.00    +0.160 HD
ENDBRANCH   4   7
BRANCH   1  17
ATOM     17  S   UNL     1       5.006  -4.204   1.891  0.00  0.00    -0.086 S 
BRANCH  17  18
ATOM     18  C   UNL     1       5.277  -3.531   0.228  0.00  0.00    +0.114 C 
ATOM     19  C   UNL     1       6.512  -2.629   0.237  0.00  0.00    +0.027 C 
BRANCH  18  26
ATOM     20  C   UNL     1      -0.019   1.526   0.010  0.00  0.00    +0.024 C 
ATOM     21  C   UNL     1       0.002  -0.004   0.002  0.00  0.00    +0.076 C 
ATOM     22  C   UNL     1       0.769  -0.528  -1.190  0.00  0.00    -0.045 C 
ATOM     23  C   UNL     1       1.868  -1.261  -0.953  0.00  0.00    +0.071 C 
ATOM     24  C   UNL     1       2.243  -1.498   0.457  0.00  0.00    +0.111 C 
ATOM     25  N   UNL     1       3.306  -2.207   0.754  0.00  0.00    -0.226 NA
ATOM     26  C   UNL     1       4.072  -2.729  -0.191  0.00  0.00    +0.136 C 
ATOM     27  N   UNL     1       3.837  -2.585  -1.473  0.00  0.00    -0.160 NA
ATOM     28  C   UNL     1       2.796  -1.891  -1.945  0.00  0.00    +0.271 C 
ATOM     29  O   UNL     1       2.607  -1.777  -3.144  0.00  0.00    -0.268 OA
ATOM     30  S   UNL     1       0.997  -0.657   1.404  0.00  0.00    -0.098 S 
ATOM     31  C   UNL     1       0.315  -0.239  -2.598  0.00  0.00    +0.041 C 
ENDBRANCH  18  26
ENDBRANCH  17  18
ENDBRANCH   1  17
TORSDOF 4
