REMARK  Name = ZINC12875892
REMARK  7 active torsions:
REMARK  status: ('A' for Active; 'I' for Inactive)
REMARK    1  A    between atoms: C_1  and  C_2
REMARK    2  A    between atoms: C_2  and  C_4
REMARK    3  A    between atoms: C_2  and  O_35
REMARK    4  A    between atoms: N_12  and  C_15
REMARK    5  A    between atoms: C_15  and  C_16
REMARK    6  A    between atoms: C_19  and  O_22
REMARK    7  A    between atoms: O_22  and  C_23
REMARK                            x       y       z     vdW  Elec       q    Type
REMARK                         _______ _______ _______ _____ _____    ______ ____
ROOT
ATOM      1  C   UNL     1       0.002  -0.004   0.002  0.00  0.00    -0.028 C 
ATOM      2  C   UNL     1       1.183  -0.389   0.918  0.00  0.00    +0.075 C 
ATOM      3  C   UNL     1       2.121   0.851   0.901  0.00  0.00    +0.088 C 
ATOM      4  C   UNL     1       3.365   0.337   0.212  0.00  0.00    +0.225 C 
ATOM      5  O   UNL     1       4.360   0.991  -0.014  0.00  0.00    -0.275 OA
ATOM      6  N   UNL     1       3.196  -0.951  -0.110  0.00  0.00    -0.237 N 
ATOM      7  C   UNL     1       2.009  -1.459   0.240  0.00  0.00    +0.224 C 
ATOM      8  O   UNL     1       1.651  -2.601   0.044  0.00  0.00    -0.275 OA
ATOM      9  C   UNL     1       1.407   1.863  -0.001  0.00  0.00    +0.050 C 
ATOM     10  C   UNL     1       1.604   3.271   0.485  0.00  0.00    -0.026 A 
ATOM     11  C   UNL     1       1.308   3.917   1.665  0.00  0.00    +0.004 A 
ATOM     12  C   UNL     1       1.617   5.256   1.818  0.00  0.00    +0.002 A 
ATOM     13  C   UNL     1       2.225   5.945   0.784  0.00  0.00    +0.022 A 
ATOM     14  C   UNL     1       2.524   5.303  -0.400  0.00  0.00    +0.062 A 
ATOM     15  C   UNL     1       2.215   3.953  -0.563  0.00  0.00    +0.054 A 
ATOM     16  N   UNL     1       2.414   3.095  -1.647  0.00  0.00    -0.285 N 
ATOM     17  C   UNL     1       1.967   1.849  -1.397  0.00  0.00    +0.211 C 
ATOM     18  O   UNL     1       2.009   0.900  -2.151  0.00  0.00    -0.277 OA
ATOM     19 CL   UNL     1       3.287   6.178  -1.691  0.00  0.00    -0.082 Cl
ATOM     20  H   UNL     1       2.826   3.365  -2.483  0.00  0.00    +0.155 HD
ATOM     21  N   UNL     1       0.011   1.460   0.010  0.00  0.00    +0.396 N 
ATOM     22  H   UNL     1      -0.454   1.814   0.855  0.00  0.00    -0.083 HD
ATOM     23  H   UNL     1      -0.470   1.823  -0.822  0.00  0.00    -0.083 HD
ENDROOT
BRANCH   1  25
ATOM     24  C   UNL     1      -2.474  -0.100  -0.317  0.00  0.00    +0.036 C 
ATOM     25  C   UNL     1      -1.309  -0.557   0.563  0.00  0.00    +0.098 C 
BRANCH  25  26
ATOM     26  O   UNL     1      -1.499  -0.074   1.894  0.00  0.00    -0.394 OA
ATOM     27  H   UNL     1      -1.545   0.890   1.960  0.00  0.00    +0.210 HD
ENDBRANCH  25  26
ENDBRANCH   1  25
BRANCH   6  28
ATOM     28  C   UNL     1       4.226  -1.739  -0.790  0.00  0.00    +0.151 C 
BRANCH  28  29
ATOM     29  C   UNL     1       5.116  -2.394   0.235  0.00  0.00    -0.029 A 
ATOM     30  C   UNL     1       6.248  -1.740   0.685  0.00  0.00    +0.009 A 
ATOM     31  C   UNL     1       7.062  -2.336   1.629  0.00  0.00    +0.046 A 
ATOM     32  C   UNL     1       6.749  -3.596   2.117  0.00  0.00    +0.120 A 
ATOM     33  C   UNL     1       5.615  -4.253   1.659  0.00  0.00    +0.046 A 
ATOM     34  C   UNL     1       4.801  -3.650   0.720  0.00  0.00    +0.009 A 
BRANCH  32  35
ATOM     35  O   UNL     1       7.551  -4.188   3.041  0.00  0.00    -0.495 OA
ATOM     36  C   UNL     1       8.701  -3.453   3.466  0.00  0.00    +0.277 C 
ENDBRANCH  32  35
ENDBRANCH  28  29
ENDBRANCH   6  28
TORSDOF 5
