REMARK  Name = ZINC09358966
REMARK  3 active torsions:
REMARK  status: ('A' for Active; 'I' for Inactive)
REMARK    1  A    between atoms: C_1  and  C_2
REMARK    2  A    between atoms: C_5  and  C_8
REMARK    3  A    between atoms: C_13  and  C_21
REMARK                            x       y       z     vdW  Elec       q    Type
REMARK                         _______ _______ _______ _____ _____    ______ ____
ROOT
ATOM      1  C   UNL     1       0.059  -4.275  -0.021  0.00  0.00    +0.032 C 
ATOM      2  C   UNL     1      -1.170  -4.811   0.714  0.00  0.00    +0.060 C 
ATOM      3  C   UNL     1      -1.128  -6.320   0.744  0.00  0.00    +0.020 C 
ATOM      4  C   UNL     1       0.049  -6.981   0.767  0.00  0.00    +0.041 C 
ATOM      5  C   UNL     1       0.124  -8.492   0.795  0.00  0.00    +0.175 C 
ATOM      6  N   UNL     1      -1.183  -9.049   1.121  0.00  0.00    -0.221 N 
ATOM      7  C   UNL     1      -2.331  -8.328   1.090  0.00  0.00    +0.218 A 
ATOM      8  N   UNL     1      -3.313  -9.119   1.424  0.00  0.00    -0.201 NA
ATOM      9  C   UNL     1      -2.836 -10.342   1.677  0.00  0.00    +0.247 A 
ATOM     10  N   UNL     1      -1.537 -10.342   1.505  0.00  0.00    -0.156 NA
ATOM     11  N   UNL     1      -2.331  -6.984   0.753  0.00  0.00    -0.287 N 
ATOM     12  C   UNL     1       1.270  -6.281   0.762  0.00  0.00    +0.164 C 
ATOM     13  O   UNL     1       2.312  -6.904   0.807  0.00  0.00    -0.292 OA
ATOM     14  C   UNL     1       1.313  -4.779   0.702  0.00  0.00    +0.088 C 
ATOM     15  H   UNL     1      -3.156  -6.526   0.530  0.00  0.00    +0.155 HD
ENDROOT
BRANCH   1  20
ATOM     16  C   UNL     1      -0.018   1.503   0.010  0.00  0.00    +0.044 C 
ATOM     17  C   UNL     1       0.002  -0.004   0.002  0.00  0.00    -0.050 A 
ATOM     18  C   UNL     1       0.006  -0.689  -1.199  0.00  0.00    +0.003 A 
ATOM     19  C   UNL     1       0.025  -2.071  -1.206  0.00  0.00    +0.004 A 
ATOM     20  C   UNL     1       0.040  -2.768  -0.013  0.00  0.00    -0.043 A 
ATOM     21  C   UNL     1       0.037  -2.084   1.188  0.00  0.00    +0.004 A 
ATOM     22  C   UNL     1       0.023  -0.702   1.195  0.00  0.00    +0.003 A 
ENDBRANCH   1  20
BRANCH   5  23
ATOM     23  C   UNL     1       0.558  -8.996  -0.556  0.00  0.00    -0.018 A 
ATOM     24  C   UNL     1      -0.202  -8.714  -1.676  0.00  0.00    +0.007 A 
ATOM     25  C   UNL     1       0.195  -9.177  -2.916  0.00  0.00    +0.020 A 
ATOM     26  C   UNL     1       1.354  -9.922  -3.037  0.00  0.00    +0.041 A 
ATOM     27  C   UNL     1       2.115 -10.204  -1.916  0.00  0.00    +0.020 A 
ATOM     28  C   UNL     1       1.719  -9.737  -0.677  0.00  0.00    +0.007 A 
ATOM     29 CL   UNL     1       1.854 -10.504  -4.595  0.00  0.00    -0.084 Cl
ENDBRANCH   5  23
TORSDOF 2
