REMARK  Name = ZINC54061923
REMARK  8 active torsions:
REMARK  status: ('A' for Active; 'I' for Inactive)
REMARK    1  A    between atoms: C_1  and  C_2
REMARK    2  A    between atoms: C_7  and  C_8
REMARK    3  A    between atoms: N_10  and  N_11
REMARK    4  A    between atoms: N_14  and  C_15
REMARK    5  A    between atoms: C_15  and  C_16
REMARK    6  A    between atoms: C_16  and  C_18
REMARK    7  A    between atoms: C_16  and  N_24
REMARK    8  A    between atoms: C_21  and  C_23
REMARK                            x       y       z     vdW  Elec       q    Type
REMARK                         _______ _______ _______ _____ _____    ______ ____
ROOT
ATOM      1  N   UNL     1       2.773  -0.816   8.955  0.00  0.00    -0.218 N 
ATOM      2  C   UNL     1       1.502  -1.215   8.752  0.00  0.00    +0.316 C 
ATOM      3  O   UNL     1       0.597  -0.403   8.780  0.00  0.00    -0.251 OA
ATOM      4  N   UNL     1       1.233  -2.515   8.518  0.00  0.00    -0.296 N 
ATOM      5  H   UNL     1       2.966   0.119   9.123  0.00  0.00    +0.174 HD
ATOM      6  H   UNL     1       1.954  -3.163   8.495  0.00  0.00    +0.150 HD
ENDROOT
BRANCH   1   9
ATOM      7  C   UNL     1       5.086  -1.353   9.124  0.00  0.00    +0.260 C 
ATOM      8  O   UNL     1       5.328  -0.180   9.336  0.00  0.00    -0.269 OA
ATOM      9  N   UNL     1       3.815  -1.752   8.922  0.00  0.00    -0.229 N 
ATOM     10  H   UNL     1       3.621  -2.687   8.753  0.00  0.00    +0.173 HD
BRANCH   7  17
ATOM     11  C   UNL     1       7.789  -0.506   9.715  0.00  0.00    +0.044 C 
ATOM     12  C   UNL     1       7.493  -1.944   9.373  0.00  0.00    -0.038 A 
ATOM     13  C   UNL     1       8.514  -2.872   9.345  0.00  0.00    +0.004 A 
ATOM     14  C   UNL     1       8.244  -4.192   9.031  0.00  0.00    +0.000 A 
ATOM     15  C   UNL     1       6.950  -4.590   8.744  0.00  0.00    +0.001 A 
ATOM     16  C   UNL     1       5.921  -3.673   8.769  0.00  0.00    +0.013 A 
ATOM     17  C   UNL     1       6.185  -2.340   9.090  0.00  0.00    +0.041 A 
ENDBRANCH   7  17
ENDBRANCH   1   9
BRANCH   4  18
ATOM     18  C   UNL     1      -0.149  -2.949   8.298  0.00  0.00    +0.132 C 
BRANCH  18  19
ATOM     19  C   UNL     1      -0.192  -4.474   8.183  0.00  0.00    +0.140 C 
BRANCH  19  20
ATOM     20  C   UNL     1       0.204  -5.089   9.500  0.00  0.00    +0.124 A 
ATOM     21  C   UNL     1      -0.639  -5.582  10.424  0.00  0.00    +0.046 A 
ATOM     22  C   UNL     1       0.155  -6.054  11.494  0.00  0.00    +0.045 A 
ATOM     23  C   UNL     1       1.437  -5.822  11.159  0.00  0.00    +0.102 A 
ATOM     24  O   UNL     1       1.461  -5.242   9.948  0.00  0.00    -0.463 OA
ATOM     25  C   UNL     1       2.642  -6.160  11.999  0.00  0.00    +0.086 C 
ENDBRANCH  19  20
BRANCH  19  26
ATOM     26  N   UNL     1       0.741  -4.913   7.137  0.00  0.00    -0.287 NA
ATOM     27  C   UNL     1       0.496  -4.195   5.877  0.00  0.00    +0.113 C 
ATOM     28  C   UNL     1       1.526  -4.639   4.835  0.00  0.00    +0.175 C 
ATOM     29  O   UNL     1       1.452  -6.058   4.673  0.00  0.00    -0.377 OA
ATOM     30  C   UNL     1       1.686  -6.788   5.880  0.00  0.00    +0.175 C 
ATOM     31  C   UNL     1       0.658  -6.367   6.933  0.00  0.00    +0.113 C 
ENDBRANCH  19  26
ENDBRANCH  18  19
ENDBRANCH   4  18
TORSDOF 6
