REMARK  Name = ZINC01605877
REMARK  3 active torsions:
REMARK  status: ('A' for Active; 'I' for Inactive)
REMARK    1  A    between atoms: C_1  and  C_2
REMARK    2  A    between atoms: C_7  and  N_8
REMARK    3  A    between atoms: C_9  and  N_17
REMARK                            x       y       z     vdW  Elec       q    Type
REMARK                         _______ _______ _______ _____ _____    ______ ____
ROOT
ATOM      1  N   UNL     1      -0.087   3.937   0.077  0.00  0.00    -0.261 N 
ATOM      2  C   UNL     1       0.010   3.284   1.284  0.00  0.00    +0.109 A 
ATOM      3  C   UNL     1       0.094   1.919   1.304  0.00  0.00    +0.112 A 
ATOM      4  C   UNL     1       0.079   1.218   0.087  0.00  0.00    +0.254 A 
ATOM      5  O   UNL     1       0.154   0.001   0.080  0.00  0.00    -0.268 OA
ATOM      6  N   UNL     1      -0.011   1.898  -1.073  0.00  0.00    -0.302 N 
ATOM      7  H   UNL     1      -0.014   1.401  -1.940  0.00  0.00    +0.171 HD
ATOM      8  C   UNL     1      -0.098   3.241  -1.074  0.00  0.00    +0.168 A 
ATOM      9  S   UNL     1      -0.218   4.076  -2.564  0.00  0.00    -0.012 S 
ENDROOT
BRANCH   1  16
ATOM     10  C   UNL     1      -2.668   5.119   0.273  0.00  0.00    +0.047 C 
ATOM     11  C   UNL     1      -1.415   5.946   0.140  0.00  0.00    -0.008 A 
ATOM     12  C   UNL     1      -1.486   7.328   0.108  0.00  0.00    +0.008 A 
ATOM     13  C   UNL     1      -0.307   8.049  -0.015  0.00  0.00    +0.020 A 
ATOM     14  C   UNL     1       0.894   7.371  -0.102  0.00  0.00    +0.113 A 
ATOM     15  N   UNL     1       0.931   6.053  -0.064  0.00  0.00    -0.237 NA
ATOM     16  C   UNL     1      -0.173   5.330   0.047  0.00  0.00    +0.144 A 
ENDBRANCH   1  16
BRANCH   2  17
ATOM     17  N   UNL     1       0.021   3.994   2.457  0.00  0.00    -0.344 N 
ATOM     18  H   UNL     1       0.000   3.527   3.308  0.00  0.00    +0.144 HD
ATOM     19  H   UNL     1       0.049   4.964   2.437  0.00  0.00    +0.144 HD
ENDBRANCH   2  17
TORSDOF 2
