REMARK  Name = ZINC61767071
REMARK  7 active torsions:
REMARK  status: ('A' for Active; 'I' for Inactive)
REMARK    1  A    between atoms: C_1  and  C_2
REMARK    2  A    between atoms: C_2  and  C_3
REMARK    3  A    between atoms: C_2  and  C_4
REMARK    4  A    between atoms: C_4  and  N_5
REMARK    5  A    between atoms: C_9  and  O_12
REMARK    6  A    between atoms: O_12  and  C_13
REMARK    7  A    between atoms: C_16  and  N_20
REMARK                            x       y       z     vdW  Elec       q    Type
REMARK                         _______ _______ _______ _____ _____    ______ ____
ROOT
ATOM      1  N   UNL     1       2.092   0.093  -0.860  0.00  0.00    -0.309 N 
ATOM      2  C   UNL     1       2.493   1.229  -1.497  0.00  0.00    +0.109 A 
ATOM      3  C   UNL     1       3.805   1.514  -1.642  0.00  0.00    +0.132 A 
ATOM      4  N   UNL     1       4.754   0.705  -1.173  0.00  0.00    -0.215 NA
ATOM      5  C   UNL     1       4.440  -0.408  -0.547  0.00  0.00    +0.287 A 
ATOM      6  C   UNL     1       3.026  -0.749  -0.366  0.00  0.00    +0.314 A 
ATOM      7  O   UNL     1       2.701  -1.772   0.213  0.00  0.00    -0.262 OA
ENDROOT
BRANCH   1   8
ATOM      8  C   UNL     1       0.666  -0.208  -0.708  0.00  0.00    +0.128 C 
BRANCH   8  10
ATOM      9  C   UNL     1       0.238   1.928   0.515  0.00  0.00    +0.009 C 
ATOM     10  C   UNL     1       0.152   0.403   0.598  0.00  0.00    +0.003 C 
ATOM     11  C   UNL     1      -1.302  -0.016   0.819  0.00  0.00    +0.009 C 
ENDBRANCH   8  10
ENDBRANCH   1   8
BRANCH   5  12
ATOM     12  O   UNL     1       5.411  -1.227  -0.073  0.00  0.00    -0.432 OA
BRANCH  12  13
ATOM     13  C   UNL     1       6.702  -0.810  -0.170  0.00  0.00    +0.149 A 
ATOM     14  C   UNL     1       7.474  -1.192  -1.258  0.00  0.00    +0.049 A 
ATOM     15  C   UNL     1       8.785  -0.769  -1.357  0.00  0.00    +0.026 A 
ATOM     16  C   UNL     1       9.331   0.039  -0.368  0.00  0.00    +0.026 A 
ATOM     17  C   UNL     1       8.558   0.422   0.720  0.00  0.00    +0.046 A 
ATOM     18  C   UNL     1       7.245   0.003   0.816  0.00  0.00    +0.085 A 
ATOM     19 CL   UNL     1       6.276   0.486   2.173  0.00  0.00    -0.080 Cl
BRANCH  16  20
ATOM     20  N   UNL     1      10.659   0.466  -0.468  0.00  0.00    -0.358 N 
ATOM     21  H   UNL     1      11.199   0.198  -1.228  0.00  0.00    +0.142 HD
ATOM     22  H   UNL     1      11.040   1.030   0.223  0.00  0.00    +0.142 HD
ENDBRANCH  16  20
ENDBRANCH  12  13
ENDBRANCH   5  12
TORSDOF 5
