REMARK  Name = ZINC67609951
REMARK  11 active torsions:
REMARK  status: ('A' for Active; 'I' for Inactive)
REMARK    1  A    between atoms: C_1  and  C_2
REMARK    2  A    between atoms: C_2  and  C_4
REMARK    3  A    between atoms: C_2  and  N_11
REMARK    4  A    between atoms: C_8  and  O_10
REMARK    5  A    between atoms: N_11  and  C_12
REMARK    6  A    between atoms: N_15  and  C_16
REMARK    7  A    between atoms: C_16  and  C_17
REMARK    8  A    between atoms: C_22  and  C_23
REMARK    9  A    between atoms: C_23  and  N_24
REMARK   10  A    between atoms: N_24  and  C_25
REMARK   11  A    between atoms: N_24  and  C_26
REMARK                            x       y       z     vdW  Elec       q    Type
REMARK                         _______ _______ _______ _____ _____    ______ ____
ROOT
ATOM      1  N   UNL     1      -1.385  -0.842  -1.266  0.00  0.00    -0.282 N 
ATOM      2  C   UNL     1      -1.969  -0.435   0.015  0.00  0.00    +0.134 C 
ATOM      3  C   UNL     1      -2.075  -1.651  -2.094  0.00  0.00    +0.303 C 
ATOM      4  O   UNL     1      -1.591  -1.988  -3.157  0.00  0.00    -0.253 OA
ATOM      5  N   UNL     1      -3.302  -2.085  -1.744  0.00  0.00    -0.295 N 
ATOM      6  H   UNL     1      -3.689  -1.815  -0.896  0.00  0.00    +0.151 HD
ENDROOT
BRANCH   1   8
ATOM      7  C   UNL     1      -0.015   1.159  -1.583  0.00  0.00    +0.033 C 
ATOM      8  C   UNL     1      -0.052  -0.370  -1.646  0.00  0.00    +0.104 C 
BRANCH   8   9
ATOM      9  C   UNL     1       0.972  -0.937  -0.697  0.00  0.00    -0.024 A 
ATOM     10  C   UNL     1       0.766  -2.176  -0.118  0.00  0.00    +0.006 A 
ATOM     11  C   UNL     1       1.703  -2.699   0.753  0.00  0.00    +0.004 A 
ATOM     12  C   UNL     1       2.848  -1.984   1.049  0.00  0.00    +0.045 A 
ATOM     13  C   UNL     1       3.057  -0.741   0.470  0.00  0.00    +0.117 A 
ATOM     14  C   UNL     1       2.118  -0.221  -0.409  0.00  0.00    +0.050 A 
BRANCH  13  15
ATOM     15  O   UNL     1       4.182  -0.036   0.759  0.00  0.00    -0.507 OA
ATOM     16  H   UNL     1       4.923  -0.217   0.166  0.00  0.00    +0.292 HD
ENDBRANCH  13  15
ENDBRANCH   8   9
ENDBRANCH   1   8
BRANCH   5  17
ATOM     17  C   UNL     1      -4.053  -2.964  -2.645  0.00  0.00    +0.141 C 
BRANCH  17  18
ATOM     18  C   UNL     1      -5.344  -3.375  -1.985  0.00  0.00    -0.029 A 
ATOM     19  C   UNL     1      -5.433  -4.593  -1.339  0.00  0.00    +0.005 A 
ATOM     20  C   UNL     1      -6.617  -4.970  -0.734  0.00  0.00    +0.000 A 
ATOM     21  C   UNL     1      -7.713  -4.128  -0.775  0.00  0.00    +0.000 A 
ATOM     22  C   UNL     1      -7.623  -2.909  -1.421  0.00  0.00    +0.002 A 
ATOM     23  C   UNL     1      -6.438  -2.530  -2.022  0.00  0.00    -0.059 A 
BRANCH  23  24
ATOM     24  C   UNL     1      -6.338  -1.199  -2.721  0.00  0.00    -0.043 C 
BRANCH  24  25
ATOM     25  N   UNL     1      -5.723  -0.217  -1.819  0.00  0.00    +0.379 N 
ATOM     26  C   UNL     1      -5.499   1.041  -2.545  0.00  0.00    -0.096 C 
ATOM     27  C   UNL     1      -6.615   0.028  -0.678  0.00  0.00    -0.096 C 
ATOM     28  H   UNL     1      -4.840  -0.574  -1.486  0.00  0.00    -0.082 HD
ENDBRANCH  24  25
ENDBRANCH  23  24
ENDBRANCH  17  18
ENDBRANCH   5  17
TORSDOF 7
