REMARK  Name = ZINC37614677
REMARK  6 active torsions:
REMARK  status: ('A' for Active; 'I' for Inactive)
REMARK    1  A    between atoms: C_1  and  C_2
REMARK    2  A    between atoms: C_2  and  C_3
REMARK    3  A    between atoms: C_2  and  C_6
REMARK    4  A    between atoms: C_2  and  N_20
REMARK    5  A    between atoms: N_8  and  C_9
REMARK    6  A    between atoms: C_11  and  C_17
REMARK                            x       y       z     vdW  Elec       q    Type
REMARK                         _______ _______ _______ _____ _____    ______ ____
ROOT
ATOM      1  C   UNL     1      -1.410  -0.529   0.012  0.00  0.00    +0.206 C 
ATOM      2  O   UNL     1      -1.940  -0.824   1.063  0.00  0.00    -0.277 OA
ATOM      3  N   UNL     1      -2.090  -0.657  -1.144  0.00  0.00    -0.284 N 
ATOM      4  H   UNL     1      -1.697  -0.347  -1.975  0.00  0.00    +0.155 HD
ENDROOT
BRANCH   3   5
ATOM      5  C   UNL     1      -3.365  -1.240  -1.147  0.00  0.00    +0.070 A 
ATOM      6  C   UNL     1      -3.724  -2.121  -0.143  0.00  0.00    +0.044 A 
ATOM      7  C   UNL     1      -4.997  -2.700  -0.148  0.00  0.00    +0.100 A 
ATOM      8  C   UNL     1      -5.900  -2.383  -1.171  0.00  0.00    +0.140 A 
ATOM      9  C   UNL     1      -5.531  -1.501  -2.168  0.00  0.00    +0.079 A 
ATOM     10  C   UNL     1      -4.272  -0.926  -2.157  0.00  0.00    +0.147 A 
ATOM     11  F   UNL     1      -3.919  -0.060  -3.133  0.00  0.00    -0.203 F 
ATOM     12  F   UNL     1      -7.131  -2.939  -1.182  0.00  0.00    -0.205 F 
BRANCH   7  13
ATOM     13  C   UNL     1      -5.386  -3.639   0.916  0.00  0.00    +0.389 C 
ATOM     14  O   UNL     1      -4.595  -3.914   1.808  0.00  0.00    -0.240 OA
ATOM     15  O   UNL     1      -6.500  -4.144   0.909  0.00  0.00    -0.240 OA
ENDBRANCH   7  13
ENDBRANCH   3   5
BRANCH   1  17
ATOM     16  C   UNL     1      -0.001   1.512   0.005  0.00  0.00    -0.001 C 
ATOM     17  C   UNL     1       0.008  -0.018   0.000  0.00  0.00    +0.007 C 
BRANCH  17  18
ATOM     18  N   UNL     1       0.691  -0.500  -1.208  0.00  0.00    +0.388 N 
ATOM     19  H   UNL     1       1.640  -0.159  -1.216  0.00  0.00    -0.089 HD
ATOM     20  H   UNL     1       0.697  -1.509  -1.211  0.00  0.00    -0.089 HD
ATOM     21  H   UNL     1       0.205  -0.164  -2.026  0.00  0.00    -0.089 HD
ENDBRANCH  17  18
BRANCH  17  22
ATOM     22  C   UNL     1       0.744  -0.529   1.240  0.00  0.00    -0.014 C 
ATOM     23  C   UNL     1       1.025   0.477   2.358  0.00  0.00    +0.003 C 
ATOM     24  C   UNL     1       2.169  -0.023   1.474  0.00  0.00    +0.003 C 
ENDBRANCH  17  22
ENDBRANCH   1  17
TORSDOF 5
