REMARK  Name = ZINC22685391
REMARK  8 active torsions:
REMARK  status: ('A' for Active; 'I' for Inactive)
REMARK    1  A    between atoms: C_1  and  C_2
REMARK    2  A    between atoms: C_5  and  C_9
REMARK    3  A    between atoms: C_6  and  C_8
REMARK    4  A    between atoms: N_11  and  N_12
REMARK    5  A    between atoms: C_13  and  C_15
REMARK    6  A    between atoms: C_18  and  S_27
REMARK    7  A    between atoms: N_19  and  C_20
REMARK    8  A    between atoms: S_27  and  C_28
REMARK                            x       y       z     vdW  Elec       q    Type
REMARK                         _______ _______ _______ _____ _____    ______ ____
ROOT
ATOM      1  N   UNL     1       4.616   6.426  -0.028  0.00  0.00    -0.229 N 
ATOM      2  C   UNL     1       5.211   5.223  -0.154  0.00  0.00    +0.279 C 
ATOM      3  O   UNL     1       6.426   5.143  -0.156  0.00  0.00    -0.267 OA
ATOM      4  H   UNL     1       3.521   6.491   0.054  0.00  0.00    +0.173 HD
ENDROOT
BRANCH   2   5
ATOM      5  C   UNL     1       4.399   4.016  -0.287  0.00  0.00    +0.131 A 
ATOM      6  C   UNL     1       4.848   2.713  -0.297  0.00  0.00    +0.145 A 
ATOM      7  N   UNL     1       3.793   1.914  -0.438  0.00  0.00    -0.229 NA
ATOM      8  C   UNL     1       2.692   2.633  -0.519  0.00  0.00    +0.174 A 
ATOM      9  N   UNL     1       3.016   3.951  -0.436  0.00  0.00    -0.283 N 
BRANCH   9  10
ATOM     10  C   UNL     1       2.130   5.036  -0.486  0.00  0.00    +0.049 A 
ATOM     11  C   UNL     1       2.036   5.804  -1.639  0.00  0.00    +0.029 A 
ATOM     12  C   UNL     1       1.158   6.869  -1.688  0.00  0.00    +0.040 A 
ATOM     13  C   UNL     1       0.379   7.177  -0.585  0.00  0.00    +0.124 A 
ATOM     14  C   UNL     1       0.475   6.415   0.567  0.00  0.00    +0.040 A 
ATOM     15  C   UNL     1       1.348   5.346   0.618  0.00  0.00    +0.029 A 
ATOM     16  F   UNL     1      -0.476   8.223  -0.634  0.00  0.00    -0.205 F 
ENDBRANCH   9  10
BRANCH   8  17
ATOM     17  S   UNL     1       1.062   1.991  -0.713  0.00  0.00    -0.091 S 
ATOM     18  C   UNL     1       1.426   0.218  -0.751  0.00  0.00    +0.093 C 
ENDBRANCH   8  17
ENDBRANCH   2   5
BRANCH   1  21
ATOM     19  C   UNL     1       4.796   8.795   0.123  0.00  0.00    +0.260 C 
ATOM     20  O   UNL     1       3.586   8.867   0.214  0.00  0.00    -0.269 OA
ATOM     21  N   UNL     1       5.392   7.592  -0.002  0.00  0.00    -0.230 N 
ATOM     22  H   UNL     1       6.487   7.527  -0.085  0.00  0.00    +0.173 HD
BRANCH  19  27
ATOM     23  C   UNL     1       7.982  13.586   0.227  0.00  0.00    +0.044 C 
ATOM     24  C   UNL     1       7.148  12.331   0.201  0.00  0.00    -0.050 A 
ATOM     25  C   UNL     1       7.766  11.093   0.198  0.00  0.00    +0.004 A 
ATOM     26  C   UNL     1       7.008   9.941   0.172  0.00  0.00    +0.013 A 
ATOM     27  C   UNL     1       5.615  10.026   0.151  0.00  0.00    +0.041 A 
ATOM     28  C   UNL     1       4.998  11.277   0.149  0.00  0.00    -0.038 A 
ATOM     29  C   UNL     1       5.768  12.422   0.179  0.00  0.00    +0.007 A 
ATOM     30  C   UNL     1       3.494  11.379   0.120  0.00  0.00    +0.044 C 
ENDBRANCH  19  27
ENDBRANCH   1  21
TORSDOF 5
