REMARK  Name = ZINC09079670
REMARK  14 active torsions:
REMARK  status: ('A' for Active; 'I' for Inactive)
REMARK    1  A    between atoms: C_1  and  N_58
REMARK    2  A    between atoms: C_2  and  N_58
REMARK    3  A    between atoms: C_3  and  C_4
REMARK    4  A    between atoms: C_3  and  N_58
REMARK    5  A    between atoms: C_4  and  N_5
REMARK    6  A    between atoms: C_6  and  C_8
REMARK    7  A    between atoms: N_10  and  C_11
REMARK    8  A    between atoms: C_11  and  C_12
REMARK    9  A    between atoms: C_12  and  C_14
REMARK   10  A    between atoms: C_12  and  S_23
REMARK   11  A    between atoms: C_17  and  N_20
REMARK   12  A    between atoms: N_20  and  C_21
REMARK   13  A    between atoms: N_20  and  C_22
REMARK   14  A    between atoms: S_23  and  C_26
REMARK                            x       y       z     vdW  Elec       q    Type
REMARK                         _______ _______ _______ _____ _____    ______ ____
ROOT
ATOM      1  C   UNL     1      -1.333   2.113   0.020  0.00  0.00    +0.183 C 
ENDROOT
BRANCH   1   2
ATOM      2  C   UNL     1      -0.017   1.379   0.010  0.00  0.00    -0.021 A 
ATOM      3  C   UNL     1       1.169   2.089   0.002  0.00  0.00    +0.007 A 
ATOM      4  C   UNL     1       2.377   1.420  -0.013  0.00  0.00    +0.023 A 
ATOM      5  C   UNL     1       2.400   0.031  -0.021  0.00  0.00    +0.029 A 
ATOM      6  C   UNL     1       1.206  -0.680  -0.013  0.00  0.00    +0.023 A 
ATOM      7  C   UNL     1       0.002  -0.004   0.002  0.00  0.00    +0.007 A 
BRANCH   5   8
ATOM      8  N   UNL     1       3.620  -0.649  -0.037  0.00  0.00    -0.336 N 
ATOM      9  C   UNL     1       3.641  -2.114  -0.045  0.00  0.00    +0.129 C 
ATOM     10  C   UNL     1       4.877   0.102  -0.045  0.00  0.00    +0.129 C 
ENDBRANCH   5   8
ENDBRANCH   1   2
BRANCH   1  11
ATOM     11  S   UNL     1      -1.451   3.162  -1.455  0.00  0.00    +0.011 S 
ATOM     12  O   UNL     1      -1.193   2.395  -2.623  0.00  0.00    -0.168 OA
ATOM     13  O   UNL     1      -2.601   3.993  -1.373  0.00  0.00    -0.168 OA
BRANCH  11  14
ATOM     14  C   UNL     1      -0.086   4.270  -1.334  0.00  0.00    +0.126 A 
ATOM     15  C   UNL     1       1.175   4.125  -1.808  0.00  0.00    +0.035 A 
ATOM     16  C   UNL     1       2.092   5.137  -1.593  0.00  0.00    +0.009 A 
ATOM     17  C   UNL     1       1.703   6.244  -0.914  0.00  0.00    +0.047 A 
ATOM     18  S   UNL     1      -0.008   5.877  -0.561  0.00  0.00    -0.078 S 
ENDBRANCH  11  14
ENDBRANCH   1  11
BRANCH   1  19
ATOM     19  C   UNL     1      -1.421   2.984   1.274  0.00  0.00    +0.136 C 
BRANCH  19  22
ATOM     20  C   UNL     1      -3.000   4.530   2.301  0.00  0.00    +0.299 C 
ATOM     21  O   UNL     1      -2.210   4.689   3.208  0.00  0.00    -0.265 OA
ATOM     22  N   UNL     1      -2.700   3.698   1.284  0.00  0.00    -0.305 N 
ATOM     23  H   UNL     1      -3.332   3.571   0.559  0.00  0.00    +0.149 HD
BRANCH  20  25
ATOM     24  N   UNL     1      -4.605   6.090   3.328  0.00  0.00    -0.309 N 
ATOM     25  C   UNL     1      -4.305   5.258   2.311  0.00  0.00    +0.299 C 
ATOM     26  O   UNL     1      -5.095   5.099   1.404  0.00  0.00    -0.265 OA
ATOM     27  H   UNL     1      -3.973   6.217   4.053  0.00  0.00    +0.149 HD
BRANCH  24  28
ATOM     28  C   UNL     1      -5.884   6.804   3.338  0.00  0.00    +0.086 C 
BRANCH  28  29
ATOM     29  C   UNL     1      -5.972   7.675   4.592  0.00  0.00    -0.061 C 
BRANCH  29  32
ATOM     30  C   UNL     1      -7.481   9.050   5.896  0.00  0.00    -0.097 C 
ATOM     31  C   UNL     1      -7.327   9.358   3.499  0.00  0.00    -0.097 C 
ATOM     32  N   UNL     1      -7.276   8.371   4.598  0.00  0.00    +0.377 N 
ATOM     33  H   UNL     1      -8.024   7.681   4.462  0.00  0.00    -0.083 HD
ENDBRANCH  29  32
ENDBRANCH  28  29
ENDBRANCH  24  28
ENDBRANCH  20  25
ENDBRANCH  19  22
ENDBRANCH   1  19
TORSDOF 10
