REMARK  Name = ZINC65918948
REMARK  5 active torsions:
REMARK  status: ('A' for Active; 'I' for Inactive)
REMARK    1  A    between atoms: C_1  and  C_2
REMARK    2  A    between atoms: N_10  and  C_14
REMARK    3  A    between atoms: C_14  and  C_15
REMARK    4  A    between atoms: N_17  and  N_18
REMARK    5  A    between atoms: N_21  and  C_22
REMARK                            x       y       z     vdW  Elec       q    Type
REMARK                         _______ _______ _______ _____ _____    ______ ____
ROOT
ATOM      1  C   UNL     1       0.900   1.505   4.348  0.00  0.00    +0.215 C 
ENDROOT
BRANCH   1  11
ATOM      2  C   UNL     1      -0.019   1.526   0.010  0.00  0.00    +0.010 C 
ATOM      3  C   UNL     1       0.002  -0.004   0.002  0.00  0.00    +0.018 C 
ATOM      4  C   UNL     1      -1.434  -0.533   0.010  0.00  0.00    +0.006 C 
ATOM      5  C   UNL     1      -1.413  -2.063   0.022  0.00  0.00    +0.000 C 
ATOM      6  C   UNL     1      -0.692  -2.554   1.280  0.00  0.00    +0.003 C 
ATOM      7  C   UNL     1       0.748  -2.033   1.277  0.00  0.00    +0.035 C 
ATOM      8  C   UNL     1       0.740  -0.509   1.237  0.00  0.00    +0.115 C 
ATOM      9  C   UNL     1       0.109   0.049   2.493  0.00  0.00    +0.247 C 
ATOM     10  O   UNL     1      -1.026  -0.123   2.883  0.00  0.00    -0.273 OA
ATOM     11  N   UNL     1       1.076   0.778   3.088  0.00  0.00    -0.215 N 
ATOM     12  C   UNL     1       2.215   0.755   2.385  0.00  0.00    +0.310 C 
ATOM     13  O   UNL     1       3.227   1.337   2.720  0.00  0.00    -0.252 OA
ATOM     14  N   UNL     1       2.112   0.013   1.266  0.00  0.00    -0.285 N 
ATOM     15  H   UNL     1       2.807  -0.145   0.608  0.00  0.00    +0.151 HD
ENDBRANCH   1  11
BRANCH   1  16
ATOM     16  C   UNL     1       1.262   0.606   5.502  0.00  0.00    +0.247 C 
ATOM     17  O   UNL     1       1.630  -0.530   5.293  0.00  0.00    -0.273 OA
ATOM     18  N   UNL     1       1.176   1.065   6.766  0.00  0.00    -0.232 N 
ATOM     19  H   UNL     1       0.882   1.974   6.933  0.00  0.00    +0.173 HD
BRANCH  18  20
ATOM     20  N   UNL     1       1.513   0.229   7.839  0.00  0.00    -0.218 N 
ATOM     21  C   UNL     1       1.427   0.688   9.103  0.00  0.00    +0.316 C 
ATOM     22  O   UNL     1       1.719  -0.037  10.034  0.00  0.00    -0.251 OA
ATOM     23  N   UNL     1       1.018   1.951   9.336  0.00  0.00    -0.295 N 
ATOM     24  H   UNL     1       1.807  -0.680   7.672  0.00  0.00    +0.174 HD
ATOM     25  H   UNL     1       0.785   2.530   8.593  0.00  0.00    +0.151 HD
BRANCH  23  26
ATOM     26  C   UNL     1       0.925   2.450  10.710  0.00  0.00    +0.074 C 
ATOM     27  C   UNL     1       2.281   3.039  11.151  0.00  0.00    +0.022 C 
ATOM     28  C   UNL     1       2.142   4.557  10.878  0.00  0.00    +0.002 C 
ATOM     29  C   UNL     1       0.671   4.842  11.271  0.00  0.00    +0.002 C 
ATOM     30  C   UNL     1      -0.098   3.596  10.786  0.00  0.00    +0.022 C 
ENDBRANCH  23  26
ENDBRANCH  18  20
ENDBRANCH   1  16
TORSDOF 4
