REMARK  Name = ZINC39215201
REMARK  4 active torsions:
REMARK  status: ('A' for Active; 'I' for Inactive)
REMARK    1  A    between atoms: C_1  and  C_2
REMARK    2  A    between atoms: C_8  and  C_10
REMARK    3  A    between atoms: C_12  and  C_17
REMARK    4  A    between atoms: C_17  and  C_18
REMARK                            x       y       z     vdW  Elec       q    Type
REMARK                         _______ _______ _______ _____ _____    ______ ____
ROOT
ATOM      1  C   UNL     1      -1.353  -0.691   1.919  0.00  0.00    +0.022 C 
ATOM      2  C   UNL     1      -1.487  -0.112   3.106  0.00  0.00    +0.048 C 
ATOM      3  C   UNL     1      -2.640   0.115   3.832  0.00  0.00    +0.111 C 
ATOM      4  N   UNL     1      -3.847  -0.208   3.635  0.00  0.00    -0.280 NA
ATOM      5  C   UNL     1      -4.406  -0.987   2.555  0.00  0.00    +0.160 C 
ATOM      6  C   UNL     1      -3.726  -0.730   1.225  0.00  0.00    +0.124 C 
ATOM      7  N   UNL     1      -2.371  -1.241   1.214  0.00  0.00    -0.344 N 
ATOM      8  H   UNL     1      -2.184  -2.023   0.673  0.00  0.00    +0.146 HD
ENDROOT
BRANCH   1  16
ATOM      9  C   UNL     1      -0.018   1.503   0.010  0.00  0.00    +0.040 C 
ATOM     10  C   UNL     1       0.002  -0.004   0.002  0.00  0.00    -0.054 C 
ATOM     11  C   UNL     1       0.005  -0.637  -1.160  0.00  0.00    +0.023 C 
ATOM     12  C   UNL     1       0.034  -2.113  -1.190  0.00  0.00    +0.026 C 
ATOM     13  N   UNL     1       0.413  -2.800  -0.030  0.00  0.00    -0.285 N 
ATOM     14  C   UNL     1       0.436  -2.165   1.152  0.00  0.00    +0.230 C 
ATOM     15  O   UNL     1       0.809  -2.774   2.133  0.00  0.00    -0.274 OA
ATOM     16  C   UNL     1       0.024  -0.735   1.310  0.00  0.00    +0.145 C 
ATOM     17  C   UNL     1      -0.295  -2.779  -2.300  0.00  0.00    +0.033 C 
ATOM     18  H   UNL     1       0.660  -3.737  -0.081  0.00  0.00    +0.155 HD
ENDBRANCH   1  16
BRANCH   3  19
ATOM     19  C   UNL     1      -2.417   0.895   5.102  0.00  0.00    +0.349 C 
ATOM     20  F   UNL     1      -1.766   2.097   4.803  0.00  0.00    -0.192 F 
ATOM     21  F   UNL     1      -3.650   1.170   5.703  0.00  0.00    -0.192 F 
BRANCH  19  22
ATOM     22  C   UNL     1      -1.554   0.073   6.062  0.00  0.00    +0.416 C 
ATOM     23  F   UNL     1      -1.348   0.797   7.240  0.00  0.00    -0.202 F 
ATOM     24  F   UNL     1      -2.205  -1.129   6.361  0.00  0.00    -0.202 F 
ENDBRANCH  19  22
ENDBRANCH   3  19
TORSDOF 3
