REMARK  Name = ZINC08972060
REMARK  11 active torsions:
REMARK  status: ('A' for Active; 'I' for Inactive)
REMARK    1  A    between atoms: C_1  and  C_2
REMARK    2  A    between atoms: C_3  and  C_9
REMARK    3  A    between atoms: C_4  and  O_8
REMARK    4  A    between atoms: C_9  and  C_10
REMARK    5  A    between atoms: C_9  and  C_28
REMARK    6  A    between atoms: C_14  and  O_16
REMARK    7  A    between atoms: O_16  and  C_17
REMARK    8  A    between atoms: C_17  and  C_19
REMARK    9  A    between atoms: C_22  and  N_25
REMARK   10  A    between atoms: C_29  and  C_35
REMARK   11  A    between atoms: C_33  and  O_34
REMARK                            x       y       z     vdW  Elec       q    Type
REMARK                         _______ _______ _______ _____ _____    ______ ____
ROOT
ATOM      1  C   UNL     1      -0.052  -0.384  -2.594  0.00  0.00    +0.093 C 
ENDROOT
BRANCH   1   4
ATOM      2  C   UNL     1      -1.045   1.813  -0.538  0.00  0.00    +0.068 C 
ATOM      3  C   UNL     1      -0.822   0.354  -0.234  0.00  0.00    +0.068 A 
ATOM      4  C   UNL     1      -0.384  -0.615  -1.142  0.00  0.00    +0.048 A 
ATOM      5  C   UNL     1      -0.311  -1.801  -0.483  0.00  0.00    +0.213 A 
ATOM      6  N   UNL     1      -0.691  -1.582   0.795  0.00  0.00    -0.247 N 
ATOM      7  H   UNL     1      -0.737  -2.249   1.499  0.00  0.00    +0.192 HD
ATOM      8  N   UNL     1      -1.001  -0.223   0.927  0.00  0.00    -0.176 NA
BRANCH   5   9
ATOM      9  O   UNL     1       0.074  -2.990  -1.012  0.00  0.00    -0.492 OA
ATOM     10  H   UNL     1       1.009  -3.196  -0.878  0.00  0.00    +0.294 HD
ENDBRANCH   5   9
ENDBRANCH   1   4
BRANCH   1  11
ATOM     11  C   UNL     1       1.327  -0.917  -2.885  0.00  0.00    +0.048 A 
ATOM     12  C   UNL     1       2.388  -0.881  -2.046  0.00  0.00    +0.041 A 
ATOM     13  N   UNL     1       3.433  -1.458  -2.676  0.00  0.00    -0.278 N 
ATOM     14  N   UNL     1       3.003  -1.863  -3.946  0.00  0.00    -0.136 NA
ATOM     15  H   UNL     1       4.325  -1.572  -2.313  0.00  0.00    +0.189 HD
ATOM     16  C   UNL     1       1.737  -1.544  -4.071  0.00  0.00    +0.236 A 
ATOM     17  C   UNL     1       2.401  -0.301  -0.655  0.00  0.00    +0.065 C 
BRANCH  16  18
ATOM     18  O   UNL     1       0.959  -1.778  -5.161  0.00  0.00    -0.491 OA
ATOM     19  H   UNL     1       1.025  -1.097  -5.845  0.00  0.00    +0.294 HD
ENDBRANCH  16  18
ENDBRANCH   1  11
BRANCH   1  20
ATOM     20  C   UNL     1      -1.059  -1.098  -3.459  0.00  0.00    -0.032 A 
ATOM     21  C   UNL     1      -1.080  -2.480  -3.498  0.00  0.00    +0.005 A 
ATOM     22  C   UNL     1      -2.002  -3.138  -4.291  0.00  0.00    +0.004 A 
ATOM     23  C   UNL     1      -2.905  -2.415  -5.046  0.00  0.00    +0.046 A 
ATOM     24  C   UNL     1      -2.887  -1.028  -5.008  0.00  0.00    +0.132 A 
ATOM     25  C   UNL     1      -1.964  -0.371  -4.207  0.00  0.00    +0.051 A 
BRANCH  24  26
ATOM     26  O   UNL     1      -3.775  -0.315  -5.750  0.00  0.00    -0.422 OA
BRANCH  26  27
ATOM     27  C   UNL     1      -5.051  -0.256  -5.324  0.00  0.00    +0.344 C 
ATOM     28  O   UNL     1      -5.360  -0.749  -4.257  0.00  0.00    -0.245 OA
BRANCH  27  29
ATOM     29  C   UNL     1      -6.077   0.411  -6.153  0.00  0.00    +0.060 A 
ATOM     30  C   UNL     1      -5.727   0.974  -7.381  0.00  0.00    +0.017 A 
ATOM     31  C   UNL     1      -6.689   1.594  -8.151  0.00  0.00    +0.033 A 
ATOM     32  C   UNL     1      -7.998   1.659  -7.707  0.00  0.00    +0.126 A 
ATOM     33  C   UNL     1      -8.352   1.103  -6.491  0.00  0.00    +0.033 A 
ATOM     34  C   UNL     1      -7.401   0.474  -5.714  0.00  0.00    +0.017 A 
BRANCH  32  35
ATOM     35  N   UNL     1      -9.026   2.326  -8.538  0.00  0.00    +0.056 N 
ATOM     36  O   UNL     1      -8.720   2.814  -9.602  0.00  0.00    -0.126 OA
ATOM     37  O   UNL     1     -10.170   2.384  -8.153  0.00  0.00    -0.126 OA
ENDBRANCH  32  35
ENDBRANCH  27  29
ENDBRANCH  26  27
ENDBRANCH  24  26
ENDBRANCH   1  20
TORSDOF 9
