REMARK  Name = ZINC12781861
REMARK  8 active torsions:
REMARK  status: ('A' for Active; 'I' for Inactive)
REMARK    1  A    between atoms: C_1  and  C_2
REMARK    2  A    between atoms: C_2  and  N_3
REMARK    3  A    between atoms: N_3  and  C_4
REMARK    4  A    between atoms: C_4  and  C_5
REMARK    5  A    between atoms: N_7  and  C_8
REMARK    6  A    between atoms: C_16  and  C_18
REMARK    7  A    between atoms: C_18  and  N_19
REMARK    8  A    between atoms: N_26  and  C_29
REMARK                            x       y       z     vdW  Elec       q    Type
REMARK                         _______ _______ _______ _____ _____    ______ ____
ROOT
ATOM      1  N   UNL     1       4.019   3.326   0.411  0.00  0.00    -0.291 N 
ATOM      2  C   UNL     1       3.127   4.285   0.095  0.00  0.00    +0.236 C 
ATOM      3  O   UNL     1       2.066   3.984  -0.409  0.00  0.00    -0.274 OA
ENDROOT
BRANCH   1   5
ATOM      4  C   UNL     1       5.157   3.699   2.544  0.00  0.00    +0.024 C 
ATOM      5  C   UNL     1       5.301   3.689   1.021  0.00  0.00    +0.105 C 
ENDBRANCH   1   5
BRANCH   1   6
ATOM      6  C   UNL     1       3.708   1.919   0.145  0.00  0.00    +0.203 C 
BRANCH   6   7
ATOM      7  C   UNL     1       4.182   1.552  -1.237  0.00  0.00    +0.235 C 
ATOM      8  O   UNL     1       4.727   2.384  -1.932  0.00  0.00    -0.274 OA
ATOM      9  N   UNL     1       4.001   0.300  -1.702  0.00  0.00    -0.282 N 
ATOM     10  H   UNL     1       3.632  -0.384  -1.121  0.00  0.00    +0.155 HD
BRANCH   9  11
ATOM     11  C   UNL     1       4.345  -0.013  -3.022  0.00  0.00    +0.070 A 
ATOM     12  C   UNL     1       3.413   0.144  -4.041  0.00  0.00    +0.064 A 
ATOM     13  C   UNL     1       3.757  -0.163  -5.344  0.00  0.00    +0.022 A 
ATOM     14  C   UNL     1       5.024  -0.634  -5.633  0.00  0.00    +0.003 A 
ATOM     15  C   UNL     1       5.953  -0.797  -4.622  0.00  0.00    +0.022 A 
ATOM     16  C   UNL     1       5.617  -0.488  -3.317  0.00  0.00    +0.064 A 
ATOM     17 CL   UNL     1       6.783  -0.693  -2.047  0.00  0.00    -0.082 Cl
ATOM     18 CL   UNL     1       1.820   0.730  -3.678  0.00  0.00    -0.082 Cl
ENDBRANCH   9  11
ENDBRANCH   6   7
ENDBRANCH   1   6
BRANCH   2  19
ATOM     19  C   UNL     1       3.450   5.732   0.363  0.00  0.00    +0.222 C 
BRANCH  19  20
ATOM     20  N   UNL     1       2.331   6.571  -0.072  0.00  0.00    -0.283 N 
ATOM     21  C   UNL     1       1.244   6.952   0.713  0.00  0.00    +0.070 A 
ATOM     22  C   UNL     1       0.885   6.698   2.028  0.00  0.00    +0.028 A 
ATOM     23  C   UNL     1      -0.284   7.229   2.535  0.00  0.00    +0.002 A 
ATOM     24  C   UNL     1      -1.099   8.014   1.736  0.00  0.00    +0.002 A 
ATOM     25  C   UNL     1      -0.750   8.272   0.426  0.00  0.00    +0.028 A 
ATOM     26  C   UNL     1       0.423   7.743  -0.093  0.00  0.00    +0.070 A 
ATOM     27  N   UNL     1       1.035   7.818  -1.341  0.00  0.00    -0.295 N 
ATOM     28  C   UNL     1       2.180   7.111  -1.296  0.00  0.00    +0.330 A 
ATOM     29  O   UNL     1       2.958   6.977  -2.222  0.00  0.00    -0.246 OA
ATOM     30  C   UNL     1       0.524   8.548  -2.504  0.00  0.00    +0.154 C 
ENDBRANCH  19  20
ENDBRANCH   2  19
TORSDOF 6
