REMARK  Name = ZINC04751291
REMARK  5 active torsions:
REMARK  status: ('A' for Active; 'I' for Inactive)
REMARK    1  A    between atoms: C_2  and  C_21
REMARK    2  A    between atoms: C_5  and  C_6
REMARK    3  A    between atoms: C_8  and  C_19
REMARK    4  A    between atoms: C_9  and  N_18
REMARK    5  A    between atoms: C_21  and  N_52
REMARK                            x       y       z     vdW  Elec       q    Type
REMARK                         _______ _______ _______ _____ _____    ______ ____
ROOT
ATOM      1  C   UNL     1      -4.609  -1.573  -1.485  0.00  0.00    +0.108 C 
ATOM      2  C   UNL     1      -5.803  -0.710  -1.187  0.00  0.00    +0.099 C 
ATOM      3  C   UNL     1      -6.857  -1.213  -0.499  0.00  0.00    +0.198 C 
ATOM      4  O   UNL     1      -6.866  -2.482  -0.063  0.00  0.00    -0.445 OA
ATOM      5  C   UNL     1      -6.066  -3.396  -0.644  0.00  0.00    +0.115 C 
ATOM      6  C   UNL     1      -4.973  -3.031  -1.338  0.00  0.00    +0.046 C 
ATOM      7  C   UNL     1      -4.139  -3.987  -1.948  0.00  0.00    +0.163 C 
ATOM      8  O   UNL     1      -3.150  -3.620  -2.549  0.00  0.00    -0.292 OA
ATOM      9  C   UNL     1      -4.451  -5.457  -1.867  0.00  0.00    +0.080 C 
ATOM     10  C   UNL     1      -5.966  -5.633  -1.723  0.00  0.00    +0.016 C 
ATOM     11  C   UNL     1      -6.430  -4.855  -0.491  0.00  0.00    +0.075 C 
ENDROOT
BRANCH   1  16
ATOM     12  C   UNL     1      -2.253  -0.766  -0.792  0.00  0.00    +0.014 A 
ATOM     13  C   UNL     1      -1.388  -0.527   0.259  0.00  0.00    -0.057 A 
ATOM     14  C   UNL     1      -1.806  -0.774   1.524  0.00  0.00    +0.047 A 
ATOM     15  S   UNL     1      -3.473  -1.354   1.255  0.00  0.00    -0.100 S 
ATOM     16  C   UNL     1      -3.496  -1.236  -0.526  0.00  0.00    +0.003 A 
BRANCH  13  17
ATOM     17  C   UNL     1       0.002  -0.004   0.002  0.00  0.00    -0.042 C 
BRANCH  17  24
ATOM     18  C   UNL     1      -0.899   1.989  -1.057  0.00  0.00    -0.078 C 
ATOM     19  C   UNL     1      -0.745   3.471  -1.266  0.00  0.00    -0.019 C 
ATOM     20  C   UNL     1       0.287   3.702  -2.390  0.00  0.00    -0.002 C 
ATOM     21  C   UNL     1       1.659   3.544  -1.920  0.00  0.00    -0.002 C 
ATOM     22  C   UNL     1       1.932   2.122  -1.386  0.00  0.00    -0.019 C 
ATOM     23  C   UNL     1       1.357   2.014  -0.000  0.00  0.00    -0.078 C 
ATOM     24  N   UNL     1      -0.041   1.466   0.060  0.00  0.00    +0.382 N 
ATOM     25  H   UNL     1      -0.462   1.750   0.953  0.00  0.00    -0.081 HD
ENDBRANCH  17  24
ENDBRANCH  13  17
ENDBRANCH   1  16
BRANCH   3  26
ATOM     26  N   UNL     1      -7.938  -0.407  -0.243  0.00  0.00    -0.328 N 
ATOM     27  H   UNL     1      -8.698  -0.756   0.248  0.00  0.00    +0.145 HD
ATOM     28  H   UNL     1      -7.942   0.512  -0.554  0.00  0.00    +0.145 HD
ENDBRANCH   3  26
BRANCH   2  29
ATOM     29  C   UNL     1      -5.826   0.651  -1.631  0.00  0.00    +0.101 C 
ATOM     30  N   UNL     1      -5.845   1.731  -1.984  0.00  0.00    -0.191 NA
ENDBRANCH   2  29
TORSDOF 5
