REMARK  Name = ZINC38626809
REMARK  8 active torsions:
REMARK  status: ('A' for Active; 'I' for Inactive)
REMARK    1  A    between atoms: C_1  and  C_2
REMARK    2  A    between atoms: C_3  and  C_14
REMARK    3  A    between atoms: C_4  and  C_8
REMARK    4  A    between atoms: N_16  and  C_17
REMARK    5  A    between atoms: C_17  and  N_19
REMARK    6  A    between atoms: N_19  and  N_20
REMARK    7  A    between atoms: C_21  and  C_23
REMARK    8  A    between atoms: C_26  and  C_29
REMARK                            x       y       z     vdW  Elec       q    Type
REMARK                         _______ _______ _______ _____ _____    ______ ____
ROOT
ATOM      1  C   UNL     1      -5.193  -0.624   0.029  0.00  0.00    +0.153 C 
ATOM      2  S   UNL     1      -5.477   1.065   0.056  0.00  0.00    -0.017 S 
ENDROOT
BRANCH   1   5
ATOM      3  C   UNL     1      -2.891  -0.241   0.081  0.00  0.00    +0.251 C 
ATOM      4  O   UNL     1      -3.088   0.960   0.104  0.00  0.00    -0.270 OA
ATOM      5  N   UNL     1      -3.933  -1.096   0.098  0.00  0.00    -0.263 N 
ATOM      6  H   UNL     1      -3.775  -2.051   0.161  0.00  0.00    +0.157 HD
BRANCH   3   9
ATOM      7  C   UNL     1      -2.168  -3.178   0.246  0.00  0.00    +0.089 C 
ATOM      8  C   UNL     1      -1.200  -2.032   0.102  0.00  0.00    +0.132 C 
ATOM      9  C   UNL     1      -1.566  -0.740   0.036  0.00  0.00    +0.078 C 
ATOM     10  C   UNL     1      -0.299   0.086  -0.094  0.00  0.00    +0.161 C 
ATOM     11  N   UNL     1       0.758  -0.876   0.313  0.00  0.00    -0.144 NA
ATOM     12  O   UNL     1       0.137  -2.179   0.029  0.00  0.00    -0.410 OA
ATOM     13  H   UNL     1       1.596  -0.745  -0.233  0.00  0.00    +0.168 HD
BRANCH  10  14
ATOM     14  C   UNL     1      -0.336   1.272   0.835  0.00  0.00    -0.023 A 
ATOM     15  C   UNL     1       0.055   1.130   2.153  0.00  0.00    +0.005 A 
ATOM     16  C   UNL     1       0.021   2.218   3.005  0.00  0.00    +0.000 A 
ATOM     17  C   UNL     1      -0.403   3.448   2.538  0.00  0.00    +0.000 A 
ATOM     18  C   UNL     1      -0.793   3.590   1.220  0.00  0.00    +0.000 A 
ATOM     19  C   UNL     1      -0.755   2.503   0.367  0.00  0.00    +0.005 A 
ENDBRANCH  10  14
ENDBRANCH   3   9
ENDBRANCH   1   5
BRANCH   1  20
ATOM     20  N   UNL     1      -6.230  -1.480  -0.062  0.00  0.00    -0.245 N 
ATOM     21  H   UNL     1      -7.130  -1.141  -0.187  0.00  0.00    +0.172 HD
BRANCH  20  22
ATOM     22  N   UNL     1      -6.007  -2.861   0.023  0.00  0.00    -0.233 N 
ATOM     23  C   UNL     1      -7.027  -3.721  -0.170  0.00  0.00    +0.259 C 
ATOM     24  O   UNL     1      -8.115  -3.305  -0.507  0.00  0.00    -0.272 OA
ATOM     25  H   UNL     1      -5.119  -3.197   0.221  0.00  0.00    +0.173 HD
BRANCH  23  26
ATOM     26  C   UNL     1      -6.814  -5.199   0.033  0.00  0.00    +0.240 C 
ATOM     27  C   UNL     1      -7.048  -5.580   1.484  0.00  0.00    +0.041 C 
ATOM     28  C   UNL     1      -8.078  -6.446   1.428  0.00  0.00    +0.092 C 
ATOM     29  N   UNL     1      -8.479  -6.623   0.141  0.00  0.00    -0.153 NA
ATOM     30  N   UNL     1      -7.835  -5.975  -0.691  0.00  0.00    -0.170 NA
BRANCH  28  31
ATOM     31  C   UNL     1      -8.689  -7.112   2.604  0.00  0.00    +0.002 A 
ATOM     32  C   UNL     1      -8.202  -6.854   3.884  0.00  0.00    +0.013 A 
ATOM     33  C   UNL     1      -8.773  -7.475   4.976  0.00  0.00    +0.039 A 
ATOM     34  C   UNL     1      -9.829  -8.355   4.801  0.00  0.00    +0.123 A 
ATOM     35  C   UNL     1     -10.316  -8.615   3.530  0.00  0.00    +0.039 A 
ATOM     36  C   UNL     1      -9.755  -7.993   2.433  0.00  0.00    +0.013 A 
ATOM     37  F   UNL     1     -10.385  -8.962   5.872  0.00  0.00    -0.205 F 
ENDBRANCH  28  31
ENDBRANCH  23  26
ENDBRANCH  20  22
ENDBRANCH   1  20
TORSDOF 7
