REMARK  Name = ZINC49771003
REMARK  7 active torsions:
REMARK  status: ('A' for Active; 'I' for Inactive)
REMARK    1  A    between atoms: C_1  and  C_2
REMARK    2  A    between atoms: C_2  and  C_3
REMARK    3  A    between atoms: C_3  and  C_4
REMARK    4  A    between atoms: C_4  and  C_5
REMARK    5  A    between atoms: C_8  and  C_11
REMARK    6  A    between atoms: C_16  and  C_21
REMARK    7  A    between atoms: C_17  and  N_20
REMARK                            x       y       z     vdW  Elec       q    Type
REMARK                         _______ _______ _______ _____ _____    ______ ____
ROOT
ATOM      1  C   UNL     1      -6.236  -5.196  -1.187  0.00  0.00    +0.141 A 
ATOM      2  N   UNL     1      -6.911  -5.591  -0.138  0.00  0.00    -0.133 NA
ATOM      3  N   UNL     1      -8.117  -5.890  -0.471  0.00  0.00    -0.129 NA
ATOM      4  C   UNL     1      -8.277  -5.698  -1.771  0.00  0.00    +0.161 A 
ATOM      5  N   UNL     1      -7.076  -5.244  -2.256  0.00  0.00    -0.282 N 
ATOM      6  C   UNL     1      -6.930  -4.949  -3.582  0.00  0.00    +0.044 A 
ATOM      7  C   UNL     1      -7.971  -5.098  -4.436  0.00  0.00    +0.044 A 
ATOM      8  C   UNL     1      -9.217  -5.560  -3.963  0.00  0.00    +0.028 A 
ATOM      9  C   UNL     1      -9.367  -5.863  -2.646  0.00  0.00    +0.050 A 
ATOM     10  C   UNL     1      -5.603  -4.455  -4.098  0.00  0.00    +0.066 C 
ENDROOT
BRANCH   1  14
ATOM     11  C   UNL     1      -2.400  -3.803   0.185  0.00  0.00    -0.011 C 
ATOM     12  C   UNL     1      -3.222  -2.881  -0.718  0.00  0.00    +0.004 C 
ATOM     13  C   UNL     1      -4.687  -3.322  -0.698  0.00  0.00    +0.011 C 
ATOM     14  C   UNL     1      -4.793  -4.762  -1.206  0.00  0.00    +0.057 C 
ATOM     15  C   UNL     1      -3.971  -5.683  -0.303  0.00  0.00    +0.011 C 
ATOM     16  C   UNL     1      -2.506  -5.242  -0.323  0.00  0.00    +0.004 C 
BRANCH  11  17
ATOM     17  C   UNL     1      -0.935  -3.362   0.165  0.00  0.00    +0.003 C 
BRANCH  17  18
ATOM     18  C   UNL     1      -0.813  -1.970   0.789  0.00  0.00    +0.000 C 
BRANCH  18  20
ATOM     19  C   UNL     1       0.774  -0.137   1.393  0.00  0.00    +0.004 C 
ATOM     20  C   UNL     1       0.652  -1.529   0.769  0.00  0.00    -0.003 C 
ENDBRANCH  18  20
ENDBRANCH  17  18
ENDBRANCH  11  17
ENDBRANCH   1  14
BRANCH   7  21
ATOM     21  N   UNL     1      -7.810  -4.792  -5.794  0.00  0.00    -0.357 N 
ATOM     22  H   UNL     1      -6.954  -4.474  -6.121  0.00  0.00    +0.142 HD
ATOM     23  H   UNL     1      -8.555  -4.898  -6.407  0.00  0.00    +0.142 HD
ENDBRANCH   7  21
TORSDOF 5
