REMARK  Name = ZINC67138899
REMARK  5 active torsions:
REMARK  status: ('A' for Active; 'I' for Inactive)
REMARK    1  A    between atoms: C_3  and  O_25
REMARK    2  A    between atoms: C_4  and  N_8
REMARK    3  A    between atoms: C_9  and  C_11
REMARK    4  A    between atoms: C_14  and  S_16
REMARK    5  A    between atoms: S_16  and  N_19
REMARK                            x       y       z     vdW  Elec       q    Type
REMARK                         _______ _______ _______ _____ _____    ______ ____
ROOT
ATOM      1  C   UNL     1       4.924  -2.712   0.150  0.00  0.00    +0.192 A 
ATOM      2  C   UNL     1       5.087  -4.064   0.244  0.00  0.00    +0.057 A 
ATOM      3  C   UNL     1       6.469  -4.300   0.310  0.00  0.00    +0.072 A 
ATOM      4  C   UNL     1       7.081  -3.096   0.254  0.00  0.00    +0.259 A 
ATOM      5  O   UNL     1       6.147  -2.142   0.152  0.00  0.00    -0.432 OA
ENDROOT
BRANCH   1   7
ATOM      6  N   UNL     1       3.622  -0.659  -0.037  0.00  0.00    -0.276 N 
ATOM      7  C   UNL     1       3.643  -2.003   0.057  0.00  0.00    +0.284 C 
ATOM      8  O   UNL     1       2.599  -2.629   0.064  0.00  0.00    -0.266 OA
ATOM      9  H   UNL     1       4.454  -0.165  -0.109  0.00  0.00    +0.155 HD
BRANCH   6  13
ATOM     10  C   UNL     1      -0.018   1.377  -0.023  0.00  0.00    +0.023 A 
ATOM     11  C   UNL     1       1.091   1.949   0.573  0.00  0.00    +0.049 A 
ATOM     12  C   UNL     1       2.302   1.277   0.571  0.00  0.00    +0.138 A 
ATOM     13  C   UNL     1       2.400   0.024  -0.032  0.00  0.00    +0.077 A 
ATOM     14  C   UNL     1       1.284  -0.543  -0.628  0.00  0.00    +0.047 A 
ATOM     15  C   UNL     1       0.078   0.134  -0.623  0.00  0.00    +0.043 A 
ATOM     16 CL   UNL     1      -1.319  -0.577  -1.369  0.00  0.00    -0.083 Cl
BRANCH  12  17
ATOM     17  O   UNL     1       3.394   1.838   1.156  0.00  0.00    -0.505 OA
ATOM     18  H   UNL     1       3.497   1.615   2.092  0.00  0.00    +0.292 HD
ENDBRANCH  12  17
ENDBRANCH   6  13
ENDBRANCH   1   7
BRANCH   4  19
ATOM     19  S   UNL     1       8.822  -2.827   0.300  0.00  0.00    +0.094 S 
ATOM     20  O   UNL     1       9.015  -1.501   0.773  0.00  0.00    -0.150 OA
ATOM     21  O   UNL     1       9.391  -3.957   0.947  0.00  0.00    -0.150 OA
BRANCH  19  22
ATOM     22  N   UNL     1       9.363  -2.855  -1.265  0.00  0.00    -0.174 NA
ATOM     23  C   UNL     1       9.793  -4.115  -1.886  0.00  0.00    +0.109 C 
ATOM     24  C   UNL     1       9.025  -4.306  -3.197  0.00  0.00    +0.017 C 
ATOM     25  C   UNL     1       9.219  -3.071  -4.081  0.00  0.00    +0.003 C 
ATOM     26  C   UNL     1       8.659  -1.838  -3.368  0.00  0.00    +0.017 C 
ATOM     27  C   UNL     1       9.417  -1.621  -2.060  0.00  0.00    +0.109 C 
ENDBRANCH  19  22
ENDBRANCH   4  19
TORSDOF 5
