REMARK  Name = ZINC12833170
REMARK  9 active torsions:
REMARK  status: ('A' for Active; 'I' for Inactive)
REMARK    1  A    between atoms: C_1  and  C_2
REMARK    2  A    between atoms: C_6  and  C_15
REMARK    3  A    between atoms: C_13  and  C_14
REMARK    4  A    between atoms: C_15  and  N_60
REMARK    5  A    between atoms: C_16  and  C_17
REMARK    6  A    between atoms: C_16  and  N_60
REMARK    7  A    between atoms: C_22  and  C_23
REMARK    8  A    between atoms: C_22  and  N_60
REMARK    9  A    between atoms: N_27  and  C_28
REMARK                            x       y       z     vdW  Elec       q    Type
REMARK                         _______ _______ _______ _____ _____    ______ ____
ROOT
ATOM      1  N   UNL     1      -5.371   4.115  -1.569  0.00  0.00    +0.390 N 
ATOM      2  H   UNL     1      -4.626   4.336  -2.239  0.00  0.00    -0.080 HD
ENDROOT
BRANCH   1   3
ATOM      3  C   UNL     1      -4.803   4.106  -0.204  0.00  0.00    -0.036 C 
BRANCH   3   9
ATOM      4  C   UNL     1       2.554   3.000  -0.729  0.00  0.00    +0.044 C 
ATOM      5  C   UNL     1       1.157   2.474  -0.522  0.00  0.00    -0.047 A 
ATOM      6  C   UNL     1       0.098   3.337  -0.542  0.00  0.00    +0.013 A 
ATOM      7  C   UNL     1      -1.198   2.848  -0.350  0.00  0.00    -0.001 A 
ATOM      8  C   UNL     1      -2.356   3.744  -0.366  0.00  0.00    +0.017 A 
ATOM      9  C   UNL     1      -3.590   3.212  -0.189  0.00  0.00    +0.001 A 
ATOM     10  C   UNL     1      -3.742   1.824   0.021  0.00  0.00    +0.251 A 
ATOM     11  O   UNL     1      -4.860   1.368   0.187  0.00  0.00    -0.268 OA
ATOM     12  N   UNL     1      -2.685   0.994   0.042  0.00  0.00    -0.322 N 
ATOM     13  H   UNL     1      -2.825   0.045   0.189  0.00  0.00    +0.169 HD
ATOM     14  C   UNL     1      -1.405   1.471  -0.142  0.00  0.00    +0.049 A 
ATOM     15  C   UNL     1      -0.311   0.612  -0.120  0.00  0.00    +0.030 A 
ATOM     16  C   UNL     1       0.958   1.116  -0.312  0.00  0.00    -0.046 A 
ATOM     17  C   UNL     1       2.141   0.183  -0.293  0.00  0.00    +0.044 C 
ENDBRANCH   3   9
ENDBRANCH   1   3
BRANCH   1  18
ATOM     18  C   UNL     1      -5.929   2.785  -1.892  0.00  0.00    -0.035 C 
BRANCH  18  19
ATOM     19  C   UNL     1      -6.363   2.777  -3.336  0.00  0.00    -0.027 A 
ATOM     20  C   UNL     1      -5.620   2.561  -4.449  0.00  0.00    +0.009 A 
ATOM     21  C   UNL     1      -6.239   2.598  -5.685  0.00  0.00    +0.008 A 
ATOM     22  C   UNL     1      -7.567   2.859  -5.747  0.00  0.00    +0.045 A 
ATOM     23  S   UNL     1      -7.987   3.056  -4.023  0.00  0.00    -0.103 S 
ENDBRANCH  18  19
ENDBRANCH   1  18
BRANCH   1  24
ATOM     24  C   UNL     1      -6.427   5.144  -1.670  0.00  0.00    +0.001 C 
BRANCH  24  25
ATOM     25  C   UNL     1      -5.776   6.502  -1.730  0.00  0.00    +0.135 A 
ATOM     26  N   UNL     1      -5.587   7.324  -0.727  0.00  0.00    -0.115 NA
ATOM     27  N   UNL     1      -4.998   8.377  -1.181  0.00  0.00    -0.023 NA
ATOM     28  N   UNL     1      -4.814   8.250  -2.449  0.00  0.00    -0.044 NA
ATOM     29  N   UNL     1      -5.280   7.107  -2.825  0.00  0.00    -0.228 N 
BRANCH  29  30
ATOM     30  C   UNL     1      -5.271   6.570  -4.188  0.00  0.00    +0.111 C 
ATOM     31  C   UNL     1      -3.819   6.409  -4.682  0.00  0.00    +0.027 C 
ATOM     32  C   UNL     1      -3.885   6.790  -6.183  0.00  0.00    +0.002 C 
ATOM     33  C   UNL     1      -4.897   7.962  -6.194  0.00  0.00    +0.002 C 
ATOM     34  C   UNL     1      -5.957   7.557  -5.148  0.00  0.00    +0.027 C 
ENDBRANCH  29  30
ENDBRANCH  24  25
ENDBRANCH   1  24
TORSDOF 7
