REMARK  Name = ZINC12820565
REMARK  8 active torsions:
REMARK  status: ('A' for Active; 'I' for Inactive)
REMARK    1  A    between atoms: C_1  and  N_2
REMARK    2  A    between atoms: N_2  and  C_3
REMARK    3  A    between atoms: C_3  and  C_4
REMARK    4  A    between atoms: C_4  and  C_5
REMARK    5  A    between atoms: C_5  and  C_6
REMARK    6  A    between atoms: C_7  and  C_13
REMARK    7  A    between atoms: C_8  and  N_12
REMARK    8  A    between atoms: C_23  and  C_25
REMARK                            x       y       z     vdW  Elec       q    Type
REMARK                         _______ _______ _______ _____ _____    ______ ____
ROOT
ATOM      1  C   UNL     1      -0.022   1.465   0.013  0.00  0.00    +0.130 C 
ATOM      2  N   UNL     1       0.002  -0.004   0.002  0.00  0.00    -0.318 N 
ATOM      3  C   UNL     1       0.757  -0.494   1.047  0.00  0.00    +0.133 A 
ATOM      4  C   UNL     1       1.952  -1.217   0.803  0.00  0.00    +0.040 A 
ATOM      5  C   UNL     1       2.418  -1.466  -0.492  0.00  0.00    +0.013 A 
ATOM      6  C   UNL     1       3.575  -2.167  -0.667  0.00  0.00    +0.001 A 
ATOM      7  C   UNL     1       4.298  -2.639   0.425  0.00  0.00    +0.002 A 
ATOM      8  C   UNL     1       3.871  -2.413   1.700  0.00  0.00    +0.028 A 
ATOM      9  C   UNL     1       2.686  -1.696   1.917  0.00  0.00    +0.077 A 
ATOM     10  N   UNL     1       2.224  -1.447   3.150  0.00  0.00    -0.227 NA
ATOM     11  C   UNL     1       1.105  -0.768   3.320  0.00  0.00    +0.164 A 
ATOM     12  N   UNL     1       0.387  -0.296   2.303  0.00  0.00    -0.212 NA
ENDROOT
BRANCH  11  13
ATOM     13  C   UNL     1       0.631  -0.516   4.702  0.00  0.00    +0.037 A 
ATOM     14  C   UNL     1       1.353  -0.995   5.800  0.00  0.00    +0.014 A 
ATOM     15  C   UNL     1       0.871  -0.728   7.069  0.00  0.00    +0.020 A 
ATOM     16  C   UNL     1      -0.305  -0.013   7.210  0.00  0.00    +0.111 A 
ATOM     17  N   UNL     1      -0.968   0.421   6.155  0.00  0.00    -0.263 NA
ATOM     18  C   UNL     1      -0.545   0.196   4.928  0.00  0.00    +0.122 A 
ENDBRANCH  11  13
BRANCH   2  19
ATOM     19  C   UNL     1      -1.360  -0.553   0.034  0.00  0.00    +0.106 C 
BRANCH  19  20
ATOM     20  C   UNL     1      -2.087  -0.192  -1.263  0.00  0.00    +0.025 C 
BRANCH  20  21
ATOM     21  C   UNL     1      -3.505  -0.764  -1.230  0.00  0.00    +0.060 C 
BRANCH  21  22
ATOM     22  C   UNL     1      -4.221  -0.407  -2.507  0.00  0.00    +0.082 A 
ATOM     23  C   UNL     1      -4.236  -1.179  -3.692  0.00  0.00    +0.113 A 
ATOM     24  C   UNL     1      -5.011  -0.486  -4.619  0.00  0.00    +0.129 A 
ATOM     25  N   UNL     1      -5.437   0.642  -4.015  0.00  0.00    -0.263 N 
ATOM     26  H   UNL     1      -6.013   1.346  -4.431  0.00  0.00    +0.190 HD
ATOM     27  N   UNL     1      -4.938   0.663  -2.708  0.00  0.00    -0.176 NA
BRANCH  24  28
ATOM     28  N   UNL     1      -5.291  -0.881  -5.913  0.00  0.00    -0.342 N 
ATOM     29  H   UNL     1      -4.933  -1.716  -6.253  0.00  0.00    +0.144 HD
ATOM     30  H   UNL     1      -5.845  -0.324  -6.481  0.00  0.00    +0.144 HD
ENDBRANCH  24  28
BRANCH  23  31
ATOM     31  C   UNL     1      -3.578  -2.434  -3.900  0.00  0.00    +0.104 C 
ATOM     32  N   UNL     1      -3.057  -3.429  -4.064  0.00  0.00    -0.191 NA
ENDBRANCH  23  31
ENDBRANCH  21  22
ENDBRANCH  20  21
ENDBRANCH  19  20
ENDBRANCH   2  19
TORSDOF 7
