REMARK  Name = ZINC66594427
REMARK  9 active torsions:
REMARK  status: ('A' for Active; 'I' for Inactive)
REMARK    1  A    between atoms: C_1  and  C_2
REMARK    2  A    between atoms: C_5  and  C_9
REMARK    3  A    between atoms: C_6  and  C_8
REMARK    4  A    between atoms: C_9  and  C_10
REMARK    5  A    between atoms: C_10  and  C_12
REMARK    6  A    between atoms: C_10  and  N_13
REMARK    7  A    between atoms: N_13  and  C_14
REMARK    8  A    between atoms: C_14  and  C_15
REMARK    9  A    between atoms: C_18  and  N_20
REMARK                            x       y       z     vdW  Elec       q    Type
REMARK                         _______ _______ _______ _____ _____    ______ ____
ROOT
ATOM      1  C   UNL     1      -1.788  -4.500   0.664  0.00  0.00    +0.055 C 
ATOM      2  C   UNL     1      -1.960  -5.999   0.922  0.00  0.00    +0.024 C 
ENDROOT
BRANCH   1   3
ATOM      3  N   UNL     1      -2.311  -3.743   1.808  0.00  0.00    -0.307 NA
ATOM      4  H   UNL     1      -2.084  -4.201   2.679  0.00  0.00    +0.123 HD
BRANCH   3   5
ATOM      5  C   UNL     1      -3.760  -3.534   1.685  0.00  0.00    +0.156 C 
BRANCH   5   6
ATOM      6  C   UNL     1      -4.259  -2.756   2.874  0.00  0.00    +0.122 A 
ATOM      7  C   UNL     1      -4.344  -1.416   2.958  0.00  0.00    +0.048 A 
ATOM      8  C   UNL     1      -4.861  -1.118   4.240  0.00  0.00    +0.076 A 
ATOM      9  C   UNL     1      -5.060  -2.293   4.863  0.00  0.00    +0.280 A 
ATOM     10  O   UNL     1      -4.699  -3.282   4.029  0.00  0.00    -0.438 OA
BRANCH   9  11
ATOM     11  N   UNL     1      -5.593  -2.467   6.233  0.00  0.00    +0.093 N 
ATOM     12  O   UNL     1      -5.890  -1.499   6.894  0.00  0.00    -0.123 OA
ATOM     13  O   UNL     1      -5.730  -3.577   6.692  0.00  0.00    -0.123 OA
ENDBRANCH   9  11
ENDBRANCH   5   6
ENDBRANCH   3   5
ENDBRANCH   1   3
BRANCH   1  14
ATOM     14  C   UNL     1      -0.304  -4.182   0.476  0.00  0.00    +0.053 C 
BRANCH  14  19
ATOM     15  C   UNL     1       0.307   1.373  -0.995  0.00  0.00    +0.044 C 
ATOM     16  C   UNL     1       0.147  -0.076  -0.612  0.00  0.00    -0.050 A 
ATOM     17  C   UNL     1       0.331  -0.467   0.702  0.00  0.00    +0.003 A 
ATOM     18  C   UNL     1       0.185  -1.796   1.054  0.00  0.00    +0.004 A 
ATOM     19  C   UNL     1      -0.145  -2.733   0.092  0.00  0.00    -0.043 A 
ATOM     20  C   UNL     1      -0.330  -2.342  -1.220  0.00  0.00    -0.047 A 
ATOM     21  C   UNL     1      -0.188  -1.012  -1.571  0.00  0.00    +0.007 A 
ATOM     22  C   UNL     1      -0.690  -3.363  -2.268  0.00  0.00    +0.044 C 
ENDBRANCH  14  19
ENDBRANCH   1  14
TORSDOF 6
