REMARK  Name = ZINC56694093
REMARK  10 active torsions:
REMARK  status: ('A' for Active; 'I' for Inactive)
REMARK    1  A    between atoms: C_1  and  C_2
REMARK    2  A    between atoms: C_5  and  C_29
REMARK    3  A    between atoms: N_8  and  C_10
REMARK    4  A    between atoms: C_10  and  C_11
REMARK    5  A    between atoms: C_11  and  C_12
REMARK    6  A    between atoms: C_12  and  C_13
REMARK    7  A    between atoms: C_13  and  N_14
REMARK    8  A    between atoms: N_17  and  C_18
REMARK    9  A    between atoms: C_21  and  C_25
REMARK   10  A    between atoms: N_27  and  C_28
REMARK                            x       y       z     vdW  Elec       q    Type
REMARK                         _______ _______ _______ _____ _____    ______ ____
ROOT
ATOM      1  N   UNL     1       6.032  -2.572   4.439  0.00  0.00    -0.299 N 
ATOM      2  C   UNL     1       7.352  -2.314   4.517  0.00  0.00    +0.304 C 
ATOM      3  O   UNL     1       7.902  -1.685   3.634  0.00  0.00    -0.253 OA
ATOM      4  N   UNL     1       8.063  -2.753   5.575  0.00  0.00    -0.269 N 
ATOM      5  H   UNL     1       5.593  -3.074   5.143  0.00  0.00    +0.150 HD
ATOM      6  H   UNL     1       7.613  -3.197   6.311  0.00  0.00    +0.156 HD
ENDROOT
BRANCH   4   7
ATOM      7  C   UNL     1       9.445  -2.570   5.610  0.00  0.00    +0.036 A 
ATOM      8  C   UNL     1      10.007  -1.418   5.068  0.00  0.00    +0.024 A 
ATOM      9  C   UNL     1      11.370  -1.233   5.101  0.00  0.00    +0.016 A 
ATOM     10  C   UNL     1      12.192  -2.205   5.680  0.00  0.00    +0.055 A 
ATOM     11  C   UNL     1      11.624  -3.362   6.224  0.00  0.00    +0.055 A 
ATOM     12  C   UNL     1      10.257  -3.537   6.192  0.00  0.00    +0.044 A 
ATOM     13 CL   UNL     1      12.639  -4.572   6.945  0.00  0.00    -0.083 Cl
BRANCH  10  14
ATOM     14  C   UNL     1      13.654  -2.010   5.717  0.00  0.00    +0.245 C 
ATOM     15  O   UNL     1      14.367  -2.857   6.221  0.00  0.00    -0.270 OA
ATOM     16  N   UNL     1      14.198  -0.895   5.192  0.00  0.00    -0.314 N 
ATOM     17  C   UNL     1      15.650  -0.702   5.229  0.00  0.00    +0.128 C 
ATOM     18  H   UNL     1      13.630  -0.220   4.790  0.00  0.00    +0.149 HD
ENDBRANCH  10  14
ENDBRANCH   4   7
BRANCH   1  19
ATOM     19  C   UNL     1       5.259  -2.094   3.289  0.00  0.00    +0.105 C 
BRANCH  19  20
ATOM     20  C   UNL     1       3.797  -2.518   3.446  0.00  0.00    +0.017 C 
BRANCH  20  21
ATOM     21  C   UNL     1       2.990  -2.019   2.245  0.00  0.00    -0.017 C 
BRANCH  21  22
ATOM     22  C   UNL     1       1.529  -2.443   2.401  0.00  0.00    -0.079 C 
BRANCH  22  28
ATOM     23  C   UNL     1      -0.006   1.538   0.001  0.00  0.00    +0.005 C 
ATOM     24  C   UNL     1       0.006   0.008   0.002  0.00  0.00    -0.031 C 
ATOM     25  C   UNL     1      -1.433  -0.515   0.021  0.00  0.00    +0.003 C 
ATOM     26  C   UNL     1      -1.409  -2.044   0.101  0.00  0.00    -0.031 C 
ATOM     27  C   UNL     1      -0.620  -2.473   1.339  0.00  0.00    -0.076 C 
ATOM     28  N   UNL     1       0.754  -1.964   1.249  0.00  0.00    +0.380 N 
ATOM     29  C   UNL     1       0.744  -0.497   1.244  0.00  0.00    -0.076 C 
ATOM     30  C   UNL     1      -2.841  -2.573   0.198  0.00  0.00    +0.005 C 
ATOM     31  H   UNL     1       1.180  -2.299   0.398  0.00  0.00    -0.082 HD
ENDBRANCH  22  28
ENDBRANCH  21  22
ENDBRANCH  20  21
ENDBRANCH  19  20
ENDBRANCH   1  19
TORSDOF 7
