REMARK  Name = ZINC06470175
REMARK  9 active torsions:
REMARK  status: ('A' for Active; 'I' for Inactive)
REMARK    1  A    between atoms: C_1  and  O_2
REMARK    2  A    between atoms: O_2  and  C_3
REMARK    3  A    between atoms: C_6  and  O_9
REMARK    4  A    between atoms: O_9  and  C_10
REMARK    5  A    between atoms: C_10  and  C_11
REMARK    6  A    between atoms: N_13  and  C_14
REMARK    7  A    between atoms: C_14  and  N_16
REMARK    8  A    between atoms: N_16  and  C_17
REMARK    9  A    between atoms: C_18  and  C_26
REMARK                            x       y       z     vdW  Elec       q    Type
REMARK                         _______ _______ _______ _____ _____    ______ ____
ROOT
ATOM      1  C   UNL     1      -0.021   1.708   0.011  0.00  0.00    +0.141 C 
ATOM      2  S   UNL     1       0.002  -0.004   0.002  0.00  0.00    -0.018 S 
ENDROOT
BRANCH   1   5
ATOM      3  C   UNL     1      -2.355   1.676   0.022  0.00  0.00    +0.256 C 
ATOM      4  O   UNL     1      -2.339   0.464   0.016  0.00  0.00    -0.272 OA
ATOM      5  N   UNL     1      -1.197   2.366   0.021  0.00  0.00    -0.265 N 
ATOM      6  H   UNL     1      -1.210   3.336   0.026  0.00  0.00    +0.157 HD
BRANCH   3   7
ATOM      7  C   UNL     1      -3.671   2.412   0.033  0.00  0.00    +0.324 C 
BRANCH   7   8
ATOM      8  O   UNL     1      -4.744   1.468   0.033  0.00  0.00    -0.483 OA
BRANCH   8  12
ATOM      9  C   UNL     1      -8.580   2.994   0.060  0.00  0.00    +0.120 A 
ATOM     10  C   UNL     1      -8.379   1.622   0.051  0.00  0.00    +0.049 A 
ATOM     11  C   UNL     1      -7.096   1.111   0.042  0.00  0.00    +0.049 A 
ATOM     12  C   UNL     1      -6.007   1.971   0.041  0.00  0.00    +0.121 A 
ATOM     13  C   UNL     1      -6.208   3.343   0.055  0.00  0.00    +0.049 A 
ATOM     14  C   UNL     1      -7.491   3.854   0.060  0.00  0.00    +0.049 A 
BRANCH   9  16
ATOM     15  C   UNL     1      -9.975   4.920   0.078  0.00  0.00    +0.277 C 
ATOM     16  O   UNL     1      -9.843   3.497   0.069  0.00  0.00    -0.495 OA
ENDBRANCH   9  16
ENDBRANCH   8  12
ENDBRANCH   7   8
ENDBRANCH   3   7
ENDBRANCH   1   5
BRANCH   1  17
ATOM     17  N   UNL     1       1.137   2.397   0.004  0.00  0.00    -0.291 N 
ATOM     18  H   UNL     1       1.124   3.367   0.009  0.00  0.00    +0.154 HD
BRANCH  17  19
ATOM     19  C   UNL     1       2.346   1.721  -0.011  0.00  0.00    +0.084 A 
ATOM     20  C   UNL     1       3.630   2.249  -0.026  0.00  0.00    +0.068 A 
ATOM     21  C   UNL     1       4.741   1.313  -0.036  0.00  0.00    -0.023 A 
ATOM     22  C   UNL     1       4.393   0.008  -0.041  0.00  0.00    -0.004 A 
ATOM     23  S   UNL     1       2.623   0.011  -0.024  0.00  0.00    -0.077 S 
ATOM     24  C   UNL     1       5.315  -1.173  -0.058  0.00  0.00    +0.043 C 
ATOM     25  C   UNL     1       6.718  -0.685  -0.447  0.00  0.00    +0.005 C 
ATOM     26  C   UNL     1       7.063   0.548   0.394  0.00  0.00    +0.005 C 
ATOM     27  C   UNL     1       6.205   1.735  -0.048  0.00  0.00    +0.037 C 
BRANCH  20  28
ATOM     28  C   UNL     1       3.856   3.697  -0.027  0.00  0.00    +0.244 C 
ATOM     29  O   UNL     1       3.963   4.298   1.026  0.00  0.00    -0.270 OA
ATOM     30  N   UNL     1       3.945   4.365  -1.195  0.00  0.00    -0.325 N 
ATOM     31  H   UNL     1       3.860   3.886  -2.035  0.00  0.00    +0.145 HD
ATOM     32  H   UNL     1       4.095   5.323  -1.196  0.00  0.00    +0.145 HD
ENDBRANCH  20  28
ENDBRANCH  17  19
ENDBRANCH   1  17
TORSDOF 8
