REMARK  Name = ZINC17880320
REMARK  9 active torsions:
REMARK  status: ('A' for Active; 'I' for Inactive)
REMARK    1  A    between atoms: C_1  and  C_2
REMARK    2  A    between atoms: C_2  and  C_3
REMARK    3  A    between atoms: C_3  and  N_4
REMARK    4  A    between atoms: C_5  and  N_34
REMARK    5  A    between atoms: C_6  and  C_13
REMARK    6  A    between atoms: C_13  and  C_15
REMARK    7  A    between atoms: C_15  and  S_16
REMARK    8  A    between atoms: S_16  and  C_17
REMARK    9  A    between atoms: N_21  and  C_22
REMARK                            x       y       z     vdW  Elec       q    Type
REMARK                         _______ _______ _______ _____ _____    ______ ____
ROOT
ATOM      1  C   UNL     1      -4.047   0.213  -3.718  0.00  0.00    +0.157 C 
ENDROOT
BRANCH   1   2
ATOM      2  C   UNL     1      -3.757   0.361  -5.190  0.00  0.00    +0.182 C 
ATOM      3  O   UNL     1      -2.755   0.941  -5.556  0.00  0.00    -0.291 OA
BRANCH   2   6
ATOM      4  N   UNL     1      -5.358  -0.487  -8.400  0.00  0.00    -0.281 N 
ATOM      5  C   UNL     1      -4.470   0.056  -7.517  0.00  0.00    +0.116 A 
ATOM      6  C   UNL     1      -4.651  -0.174  -6.142  0.00  0.00    +0.120 A 
ATOM      7  C   UNL     1      -5.804  -0.985  -5.728  0.00  0.00    +0.266 A 
ATOM      8  O   UNL     1      -6.012  -1.213  -4.551  0.00  0.00    -0.267 OA
ATOM      9  N   UNL     1      -6.626  -1.472  -6.680  0.00  0.00    -0.274 N 
ATOM     10  H   UNL     1      -7.415  -2.026  -6.414  0.00  0.00    +0.173 HD
ATOM     11  C   UNL     1      -6.399  -1.223  -7.980  0.00  0.00    +0.331 A 
ATOM     12  O   UNL     1      -7.164  -1.681  -8.806  0.00  0.00    -0.246 OA
BRANCH   5  13
ATOM     13  N   UNL     1      -3.424   0.804  -7.960  0.00  0.00    -0.344 N 
ATOM     14  H   UNL     1      -2.749   1.114  -7.335  0.00  0.00    +0.144 HD
ATOM     15  H   UNL     1      -3.352   1.028  -8.901  0.00  0.00    +0.144 HD
ENDBRANCH   5  13
BRANCH   4  16
ATOM     16  C   UNL     1      -5.175  -0.258  -9.836  0.00  0.00    +0.128 C 
BRANCH  16  18
ATOM     17  C   UNL     1      -5.726   1.254 -11.747  0.00  0.00    +0.005 C 
ATOM     18  C   UNL     1      -5.918   1.014 -10.248  0.00  0.00    +0.018 C 
ENDBRANCH  16  18
ENDBRANCH   4  16
ENDBRANCH   2   6
ENDBRANCH   1   2
BRANCH   1  19
ATOM     19  S   UNL     1      -2.723   0.999  -2.760  0.00  0.00    -0.078 S 
BRANCH  19  20
ATOM     20  C   UNL     1      -3.201   0.744  -1.083  0.00  0.00    +0.198 A 
ATOM     21  N   UNL     1      -4.278   0.117  -0.675  0.00  0.00    -0.120 NA
ATOM     22  N   UNL     1      -4.289   0.139   0.725  0.00  0.00    -0.112 NA
ATOM     23  C   UNL     1      -3.216   0.773   1.130  0.00  0.00    +0.225 A 
ATOM     24  N   UNL     1      -2.512   1.162   0.024  0.00  0.00    -0.257 N 
ATOM     25  N   UNL     1      -2.857   1.008   2.451  0.00  0.00    -0.299 N 
ATOM     26  C   UNL     1      -2.813   2.465   2.739  0.00  0.00    +0.108 C 
ATOM     27  C   UNL     1      -2.931   2.524   4.283  0.00  0.00    +0.020 C 
ATOM     28  C   UNL     1      -3.926   1.384   4.598  0.00  0.00    +0.020 C 
ATOM     29  C   UNL     1      -3.858   0.443   3.382  0.00  0.00    +0.108 C 
BRANCH  24  30
ATOM     30  C   UNL     1      -1.300   1.869   0.023  0.00  0.00    +0.070 A 
ATOM     31  C   UNL     1      -0.094   1.183   0.043  0.00  0.00    +0.028 A 
ATOM     32  C   UNL     1       1.097   1.882   0.037  0.00  0.00    +0.002 A 
ATOM     33  C   UNL     1       1.090   3.265   0.016  0.00  0.00    +0.002 A 
ATOM     34  C   UNL     1      -0.110   3.952   0.001  0.00  0.00    +0.022 A 
ATOM     35  C   UNL     1      -1.306   3.258   0.007  0.00  0.00    +0.065 A 
ATOM     36 CL   UNL     1      -2.812   4.122  -0.011  0.00  0.00    -0.081 Cl
ENDBRANCH  24  30
ENDBRANCH  19  20
ENDBRANCH   1  19
TORSDOF 8
