REMARK  Name = ZINC19414872
REMARK  9 active torsions:
REMARK  status: ('A' for Active; 'I' for Inactive)
REMARK    1  A    between atoms: C_1  and  C_2
REMARK    2  A    between atoms: C_2  and  C_4
REMARK    3  A    between atoms: C_2  and  N_15
REMARK    4  A    between atoms: C_9  and  C_12
REMARK    5  A    between atoms: C_16  and  O_18
REMARK    6  A    between atoms: O_18  and  C_19
REMARK    7  A    between atoms: C_19  and  C_20
REMARK    8  A    between atoms: C_19  and  C_21
REMARK    9  A    between atoms: C_19  and  C_22
REMARK                            x       y       z     vdW  Elec       q    Type
REMARK                         _______ _______ _______ _____ _____    ______ ____
ROOT
ATOM      1  C   UNL     1      -3.463   2.077   0.597  0.00  0.00    +0.236 C 
ATOM      2  O   UNL     1      -3.099   3.137   1.060  0.00  0.00    -0.274 OA
ATOM      3  N   UNL     1      -4.771   1.753   0.603  0.00  0.00    -0.300 N 
ATOM      4  C   UNL     1      -5.779   2.716   1.067  0.00  0.00    +0.108 C 
ATOM      5  C   UNL     1      -6.633   2.060   2.150  0.00  0.00    +0.032 C 
ATOM      6  C   UNL     1      -7.215   0.750   1.615  0.00  0.00    +0.078 C 
ATOM      7  C   UNL     1      -6.076  -0.205   1.252  0.00  0.00    +0.032 C 
ATOM      8  C   UNL     1      -5.216   0.427   0.152  0.00  0.00    +0.108 C 
ENDROOT
BRANCH   6   9
ATOM      9  C   UNL     1      -8.083   0.117   2.672  0.00  0.00    +0.214 C 
ATOM     10  O   UNL     1      -7.816  -0.989   3.093  0.00  0.00    -0.276 OA
ATOM     11  N   UNL     1      -9.155   0.780   3.150  0.00  0.00    -0.329 N 
ATOM     12  H   UNL     1      -9.788   0.318   3.922  0.00  0.00    +0.145 HD
ATOM     13  H   UNL     1      -9.396   1.783   2.768  0.00  0.00    +0.145 HD
ENDBRANCH   6   9
BRANCH   1  15
ATOM     14  C   UNL     1      -2.499   1.200  -1.512  0.00  0.00    +0.038 C 
ATOM     15  C   UNL     1      -2.453   1.122   0.015  0.00  0.00    +0.159 C 
BRANCH  15  16
ATOM     16  N   UNL     1      -1.113   1.485   0.482  0.00  0.00    -0.270 N 
ATOM     17  C   UNL     1      -0.142   0.552   0.534  0.00  0.00    +0.401 C 
ATOM     18  O   UNL     1      -0.378  -0.591   0.194  0.00  0.00    -0.226 OA
ATOM     19  H   UNL     1      -0.899   2.519   0.790  0.00  0.00    +0.153 HD
BRANCH  17  20
ATOM     20  O   UNL     1       1.092   0.886   0.958  0.00  0.00    -0.445 OA
BRANCH  20  21
ATOM     21  C   UNL     1       2.089  -0.169   0.982  0.00  0.00    +0.107 C 
ATOM     22  C   UNL     1       2.277  -0.726  -0.431  0.00  0.00    +0.055 C 
ATOM     23  C   UNL     1       3.418   0.397   1.488  0.00  0.00    +0.055 C 
ATOM     24  C   UNL     1       1.624  -1.289   1.914  0.00  0.00    +0.055 C 
ENDBRANCH  20  21
ENDBRANCH  17  20
ENDBRANCH  15  16
ENDBRANCH   1  15
TORSDOF 5
