REMARK  Name = ZINC62540346
REMARK  5 active torsions:
REMARK  status: ('A' for Active; 'I' for Inactive)
REMARK    1  A    between atoms: C_1  and  C_2
REMARK    2  A    between atoms: C_5  and  C_8
REMARK    3  A    between atoms: C_12  and  C_18
REMARK    4  A    between atoms: C_14  and  N_17
REMARK    5  A    between atoms: C_18  and  C_20
REMARK                            x       y       z     vdW  Elec       q    Type
REMARK                         _______ _______ _______ _____ _____    ______ ____
ROOT
ATOM      1  C   UNL     1       0.082  -4.251  -0.022  0.00  0.00    +0.228 A 
ATOM      2  N   UNL     1       0.095  -4.995  -1.098  0.00  0.00    -0.209 NA
ATOM      3  C   UNL     1       0.104  -6.301  -0.725  0.00  0.00    +0.112 A 
ATOM      4  C   UNL     1       0.119  -7.501  -1.435  0.00  0.00    +0.043 A 
ATOM      5  C   UNL     1       0.125  -8.713  -0.745  0.00  0.00    +0.021 A 
ATOM      6  C   UNL     1       0.116  -8.723   0.658  0.00  0.00    +0.038 A 
ATOM      7  C   UNL     1       0.101  -7.536   1.363  0.00  0.00    +0.070 A 
ATOM      8  C   UNL     1       0.095  -6.319   0.679  0.00  0.00    +0.176 A 
ATOM      9  O   UNL     1       0.086  -5.028   1.077  0.00  0.00    -0.433 OA
ENDROOT
BRANCH   1  14
ATOM     10  C   UNL     1       0.034   1.504   0.009  0.00  0.00    +0.044 C 
ATOM     11  C   UNL     1       0.046  -0.003   0.001  0.00  0.00    -0.050 A 
ATOM     12  C   UNL     1       0.054  -0.686  -1.203  0.00  0.00    +0.004 A 
ATOM     13  C   UNL     1       0.066  -2.065  -1.217  0.00  0.00    +0.013 A 
ATOM     14  C   UNL     1       0.070  -2.772  -0.014  0.00  0.00    +0.037 A 
ATOM     15  C   UNL     1       0.061  -2.078   1.197  0.00  0.00    +0.013 A 
ATOM     16  C   UNL     1       0.055  -0.699   1.197  0.00  0.00    +0.004 A 
ENDBRANCH   1  14
BRANCH   7  17
ATOM     17  N   UNL     1       0.091  -7.553   2.761  0.00  0.00    -0.355 N 
ATOM     18  H   UNL     1       0.094  -8.398   3.236  0.00  0.00    +0.142 HD
ATOM     19  H   UNL     1       0.080  -6.718   3.256  0.00  0.00    +0.142 HD
ENDBRANCH   7  17
BRANCH   5  20
ATOM     20  C   UNL     1       0.141  -9.981  -1.488  0.00  0.00    +0.160 C 
ATOM     21  O   UNL     1       0.048  -9.976  -2.697  0.00  0.00    -0.292 OA
ATOM     22  C   UNL     1       0.273 -11.287  -0.748  0.00  0.00    +0.091 C 
ENDBRANCH   5  20
TORSDOF 3
