REMARK  Name = ZINC39664482
REMARK  7 active torsions:
REMARK  status: ('A' for Active; 'I' for Inactive)
REMARK    1  A    between atoms: C_1  and  C_2
REMARK    2  A    between atoms: C_6  and  C_7
REMARK    3  A    between atoms: C_11  and  C_20
REMARK    4  A    between atoms: N_22  and  C_23
REMARK    5  A    between atoms: C_23  and  C_24
REMARK    6  A    between atoms: C_24  and  C_26
REMARK    7  A    between atoms: C_24  and  N_32
REMARK                            x       y       z     vdW  Elec       q    Type
REMARK                         _______ _______ _______ _____ _____    ______ ____
ROOT
ATOM      1  C   UNL     1       0.032  -0.282   2.559  0.00  0.00    +0.254 C 
ATOM      2  O   UNL     1       0.118   0.905   2.814  0.00  0.00    -0.269 OA
ATOM      3  N   UNL     1      -0.055  -1.182   3.558  0.00  0.00    -0.296 N 
ATOM      4  C   UNL     1      -0.040  -2.660   3.453  0.00  0.00    +0.121 C 
ATOM      5  C   UNL     1       0.804  -3.129   4.660  0.00  0.00    +0.100 C 
ATOM      6  C   UNL     1       0.702  -1.982   5.679  0.00  0.00    -0.004 C 
ATOM      7  C   UNL     1      -0.181  -0.917   5.011  0.00  0.00    +0.115 C 
ATOM      8  C   UNL     1       2.085  -1.406   5.967  0.00  0.00    -0.010 C 
ATOM      9  C   UNL     1       1.964  -0.306   7.026  0.00  0.00    -0.082 C 
ATOM     10  N   UNL     1       1.380  -0.865   8.251  0.00  0.00    +0.379 N 
ATOM     11  C   UNL     1       0.014  -1.332   7.986  0.00  0.00    -0.082 C 
ATOM     12  C   UNL     1       0.052  -2.475   6.968  0.00  0.00    -0.010 C 
ATOM     13  H   UNL     1       1.943  -1.639   8.568  0.00  0.00    -0.086 HD
ATOM     14  H   UNL     1       1.358  -0.153   8.966  0.00  0.00    -0.086 HD
ENDROOT
BRANCH   1  20
ATOM     15  C   UNL     1       0.007   1.530   0.025  0.00  0.00    +0.045 C 
ATOM     16  C   UNL     1       0.011   0.023   0.001  0.00  0.00    -0.031 A 
ATOM     17  C   UNL     1       0.010  -0.689  -1.174  0.00  0.00    +0.011 A 
ATOM     18  C   UNL     1       0.015  -2.044  -1.123  0.00  0.00    +0.046 A 
ATOM     19  S   UNL     1       0.021  -2.395   0.520  0.00  0.00    -0.092 S 
ATOM     20  C   UNL     1       0.023  -0.732   1.164  0.00  0.00    +0.077 A 
ENDBRANCH   1  20
BRANCH   5  21
ATOM     21  C   UNL     1       2.238  -3.341   4.247  0.00  0.00    +0.218 C 
ATOM     22  O   UNL     1       2.741  -2.621   3.410  0.00  0.00    -0.275 OA
ATOM     23  N   UNL     1       2.961  -4.330   4.808  0.00  0.00    -0.313 N 
ATOM     24  H   UNL     1       2.583  -4.859   5.528  0.00  0.00    +0.149 HD
BRANCH  23  25
ATOM     25  C   UNL     1       4.317  -4.607   4.329  0.00  0.00    +0.127 C 
BRANCH  25  26
ATOM     26  C   UNL     1       4.866  -5.846   5.040  0.00  0.00    +0.104 C 
BRANCH  26  27
ATOM     27  C   UNL     1       4.913  -5.593   6.525  0.00  0.00    -0.029 A 
ATOM     28  C   UNL     1       5.950  -4.858   7.069  0.00  0.00    +0.005 A 
ATOM     29  C   UNL     1       5.993  -4.627   8.431  0.00  0.00    +0.000 A 
ATOM     30  C   UNL     1       4.999  -5.129   9.249  0.00  0.00    +0.000 A 
ATOM     31  C   UNL     1       3.962  -5.864   8.706  0.00  0.00    +0.000 A 
ATOM     32  C   UNL     1       3.916  -6.092   7.343  0.00  0.00    +0.005 A 
ENDBRANCH  26  27
BRANCH  26  33
ATOM     33  N   UNL     1       6.220  -6.133   4.549  0.00  0.00    -0.290 NA
ATOM     34  C   UNL     1       6.248  -6.186   3.080  0.00  0.00    +0.113 C 
ATOM     35  C   UNL     1       7.685  -6.427   2.611  0.00  0.00    +0.175 C 
ATOM     36  O   UNL     1       8.180  -7.630   3.205  0.00  0.00    -0.377 OA
ATOM     37  C   UNL     1       8.168  -7.613   4.635  0.00  0.00    +0.175 C 
ATOM     38  C   UNL     1       6.736  -7.384   5.125  0.00  0.00    +0.113 C 
ENDBRANCH  26  33
ENDBRANCH  25  26
ENDBRANCH  23  25
ENDBRANCH   5  21
TORSDOF 6
