REMARK  Name = ZINC12887968
REMARK  6 active torsions:
REMARK  status: ('A' for Active; 'I' for Inactive)
REMARK    1  A    between atoms: C_1  and  C_2
REMARK    2  A    between atoms: C_6  and  N_8
REMARK    3  A    between atoms: C_17  and  S_18
REMARK    4  A    between atoms: S_18  and  C_19
REMARK    5  A    between atoms: C_19  and  C_21
REMARK    6  A    between atoms: C_19  and  C_22
REMARK                            x       y       z     vdW  Elec       q    Type
REMARK                         _______ _______ _______ _____ _____    ______ ____
ROOT
ATOM      1  N   UNL     1      -1.184   1.881   0.018  0.00  0.00    -0.255 N 
ATOM      2  C   UNL     1      -0.126   1.401  -0.662  0.00  0.00    +0.268 A 
ATOM      3  O   UNL     1      -0.210   0.348  -1.271  0.00  0.00    -0.267 OA
ATOM      4  C   UNL     1       1.095   2.144  -0.664  0.00  0.00    +0.077 A 
ATOM      5  C   UNL     1       2.358   1.803  -1.335  0.00  0.00    -0.012 A 
ATOM      6  C   UNL     1       3.371   2.691  -1.182  0.00  0.00    +0.051 A 
ATOM      7  S   UNL     1       2.725   3.982  -0.159  0.00  0.00    -0.062 S 
ATOM      8  C   UNL     1       1.085   3.342   0.067  0.00  0.00    +0.118 A 
ATOM      9  N   UNL     1       0.009   3.761   0.723  0.00  0.00    -0.215 NA
ATOM     10  C   UNL     1      -1.105   3.057   0.711  0.00  0.00    +0.178 A 
ATOM     11  S   UNL     1       4.983   2.569  -1.873  0.00  0.00    -0.118 S 
ATOM     12  C   UNL     1       4.979   0.857  -2.505  0.00  0.00    +0.075 C 
ATOM     13  C   UNL     1       3.617   0.630  -3.178  0.00  0.00    +0.016 C 
ATOM     14  C   UNL     1       2.513   0.521  -2.139  0.00  0.00    +0.038 C 
ENDROOT
BRANCH   1  20
ATOM     15  C   UNL     1      -5.562   0.947  -2.017  0.00  0.00    +0.044 C 
ATOM     16  C   UNL     1      -4.525   0.689  -0.955  0.00  0.00    -0.048 A 
ATOM     17  C   UNL     1      -4.759  -0.261   0.023  0.00  0.00    +0.003 A 
ATOM     18  C   UNL     1      -3.809  -0.501   0.999  0.00  0.00    +0.002 A 
ATOM     19  C   UNL     1      -2.621   0.203   0.996  0.00  0.00    +0.026 A 
ATOM     20  C   UNL     1      -2.385   1.161   0.019  0.00  0.00    +0.052 A 
ATOM     21  C   UNL     1      -3.341   1.400  -0.959  0.00  0.00    +0.029 A 
ENDBRANCH   1  20
BRANCH  10  22
ATOM     22  S   UNL     1      -2.514   3.643   1.593  0.00  0.00    -0.075 S 
BRANCH  22  23
ATOM     23  C   UNL     1      -1.841   5.178   2.276  0.00  0.00    +0.137 C 
ATOM     24  C   UNL     1      -0.719   4.848   3.264  0.00  0.00    +0.029 C 
BRANCH  23  25
ATOM     25  C   UNL     1      -2.933   5.931   2.991  0.00  0.00    +0.233 C 
ATOM     26  O   UNL     1      -3.892   5.334   3.433  0.00  0.00    -0.274 OA
ATOM     27  N   UNL     1      -2.845   7.268   3.138  0.00  0.00    -0.239 N 
ATOM     28  C   UNL     1      -3.822   7.941   3.776  0.00  0.00    +0.303 C 
ATOM     29  O   UNL     1      -4.783   7.343   4.220  0.00  0.00    -0.253 OA
ATOM     30  N   UNL     1      -3.734   9.278   3.924  0.00  0.00    -0.313 N 
ATOM     31  H   UNL     1      -2.078   7.745   2.784  0.00  0.00    +0.159 HD
ATOM     32  H   UNL     1      -2.967   9.755   3.570  0.00  0.00    +0.146 HD
ATOM     33  H   UNL     1      -4.437   9.763   4.383  0.00  0.00    +0.146 HD
ENDBRANCH  23  25
ENDBRANCH  22  23
ENDBRANCH  10  22
TORSDOF 4
