REMARK  Name = ZINC65155141
REMARK  6 active torsions:
REMARK  status: ('A' for Active; 'I' for Inactive)
REMARK    1  A    between atoms: C_1  and  C_2
REMARK    2  A    between atoms: C_5  and  C_8
REMARK    3  A    between atoms: C_8  and  O_27
REMARK    4  A    between atoms: N_15  and  C_18
REMARK    5  A    between atoms: C_18  and  C_19
REMARK    6  A    between atoms: C_22  and  C_25
REMARK                            x       y       z     vdW  Elec       q    Type
REMARK                         _______ _______ _______ _____ _____    ______ ____
ROOT
ATOM      1  C   UNL     1       0.059  -4.275  -0.021  0.00  0.00    +0.194 C 
ATOM      2  C   UNL     1       0.696  -4.804   1.243  0.00  0.00    +0.019 A 
ATOM      3  C   UNL     1       1.953  -4.665   1.787  0.00  0.00    +0.009 A 
ATOM      4  C   UNL     1       2.256  -5.280   2.990  0.00  0.00    +0.000 A 
ATOM      5  C   UNL     1       1.294  -6.031   3.640  0.00  0.00    +0.002 A 
ATOM      6  C   UNL     1       0.034  -6.171   3.097  0.00  0.00    +0.024 A 
ATOM      7  C   UNL     1      -0.279  -5.555   1.887  0.00  0.00    +0.043 A 
ATOM      8  N   UNL     1      -1.461  -5.547   1.147  0.00  0.00    -0.264 N 
ATOM      9  C   UNL     1      -1.351  -4.824   0.019  0.00  0.00    +0.261 C 
ATOM     10  O   UNL     1      -2.218  -4.645  -0.809  0.00  0.00    -0.271 OA
ENDROOT
BRANCH   1  15
ATOM     11  C   UNL     1      -0.018   1.503   0.010  0.00  0.00    +0.044 C 
ATOM     12  C   UNL     1       0.002  -0.004   0.002  0.00  0.00    -0.050 A 
ATOM     13  C   UNL     1       0.006  -0.689  -1.199  0.00  0.00    +0.004 A 
ATOM     14  C   UNL     1       0.025  -2.071  -1.206  0.00  0.00    +0.007 A 
ATOM     15  C   UNL     1       0.040  -2.768  -0.013  0.00  0.00    -0.003 A 
ATOM     16  C   UNL     1       0.037  -2.084   1.188  0.00  0.00    +0.007 A 
ATOM     17  C   UNL     1       0.023  -0.702   1.195  0.00  0.00    +0.004 A 
ENDBRANCH   1  15
BRANCH   1  18
ATOM     18  O   UNL     1       0.752  -4.760  -1.174  0.00  0.00    -0.371 OA
ATOM     19  H   UNL     1       0.366  -4.475  -2.013  0.00  0.00    +0.212 HD
ENDBRANCH   1  18
BRANCH   8  20
ATOM     20  C   UNL     1      -2.683  -6.246   1.552  0.00  0.00    +0.149 C 
BRANCH  20  21
ATOM     21  C   UNL     1      -3.533  -5.328   2.392  0.00  0.00    -0.030 A 
ATOM     22  C   UNL     1      -3.364  -5.297   3.764  0.00  0.00    +0.006 A 
ATOM     23  C   UNL     1      -4.138  -4.458   4.539  0.00  0.00    +0.019 A 
ATOM     24  C   UNL     1      -5.094  -3.639   3.934  0.00  0.00    +0.052 A 
ATOM     25  C   UNL     1      -5.259  -3.675   2.548  0.00  0.00    +0.019 A 
ATOM     26  C   UNL     1      -4.474  -4.515   1.785  0.00  0.00    +0.006 A 
BRANCH  24  27
ATOM     27  C   UNL     1      -5.902  -2.766   4.732  0.00  0.00    +0.099 C 
ATOM     28  N   UNL     1      -6.542  -2.074   5.365  0.00  0.00    -0.191 NA
ENDBRANCH  24  27
ENDBRANCH  20  21
ENDBRANCH   8  20
TORSDOF 5
