REMARK  Name = ZINC03778636
REMARK  8 active torsions:
REMARK  status: ('A' for Active; 'I' for Inactive)
REMARK    1  A    between atoms: C_1  and  C_2
REMARK    2  A    between atoms: C_4  and  C_9
REMARK    3  A    between atoms: C_7  and  N_8
REMARK    4  A    between atoms: C_9  and  N_10
REMARK    5  A    between atoms: C_16  and  C_35
REMARK    6  A    between atoms: C_20  and  C_22
REMARK    7  A    between atoms: C_22  and  C_23
REMARK    8  A    between atoms: C_22  and  C_29
REMARK                            x       y       z     vdW  Elec       q    Type
REMARK                         _______ _______ _______ _____ _____    ______ ____
ROOT
ATOM      1  N   UNL     1       4.775  -1.112  -1.184  0.00  0.00    -0.329 N 
ATOM      2  C   UNL     1       6.051  -0.684  -1.326  0.00  0.00    +0.200 A 
ATOM      3  N   UNL     1       6.858  -1.696  -1.140  0.00  0.00    -0.239 NA
ATOM      4  C   UNL     1       6.136  -2.788  -0.878  0.00  0.00    +0.080 A 
ATOM      5  C   UNL     1       4.830  -2.443  -0.898  0.00  0.00    +0.045 A 
ATOM      6  C   UNL     1       3.686  -3.392  -0.653  0.00  0.00    +0.089 C 
ATOM      7  C   UNL     1       4.225  -4.645   0.048  0.00  0.00    +0.195 C 
ATOM      8  N   UNL     1       5.459  -5.079  -0.623  0.00  0.00    -0.281 N 
ATOM      9  C   UNL     1       6.630  -4.186  -0.591  0.00  0.00    +0.165 C 
ATOM     10  C   UNL     1       5.519  -6.266  -1.258  0.00  0.00    +0.228 C 
ATOM     11  O   UNL     1       4.521  -6.947  -1.367  0.00  0.00    -0.275 OA
ENDROOT
BRANCH   7  12
ATOM     12  C   UNL     1       3.196  -5.745  -0.026  0.00  0.00    +0.376 C 
ATOM     13  O   UNL     1       2.636  -5.986  -1.081  0.00  0.00    -0.244 OA
ATOM     14  O   UNL     1       2.925  -6.393   0.971  0.00  0.00    -0.244 OA
ENDBRANCH   7  12
BRANCH   1  15
ATOM     15  C   UNL     1       3.564  -0.298  -1.308  0.00  0.00    +0.158 C 
BRANCH  15  19
ATOM     16  C   UNL     1       3.752   3.134   2.328  0.00  0.00    +0.045 C 
ATOM     17  C   UNL     1       3.230   1.825   1.795  0.00  0.00    -0.030 A 
ATOM     18  C   UNL     1       3.618   1.382   0.546  0.00  0.00    +0.010 A 
ATOM     19  C   UNL     1       3.139   0.181   0.056  0.00  0.00    -0.027 A 
ATOM     20  C   UNL     1       2.270  -0.581   0.815  0.00  0.00    +0.007 A 
ATOM     21  C   UNL     1       1.878  -0.145   2.065  0.00  0.00    +0.023 A 
ATOM     22  C   UNL     1       2.361   1.059   2.562  0.00  0.00    +0.028 A 
BRANCH  22  23
ATOM     23  N   UNL     1       1.971   1.501   3.829  0.00  0.00    -0.358 N 
ATOM     24  H   UNL     1       2.307   2.343   4.173  0.00  0.00    +0.142 HD
ATOM     25  H   UNL     1       1.365   0.965   4.364  0.00  0.00    +0.142 HD
ENDBRANCH  22  23
ENDBRANCH  15  19
ENDBRANCH   1  15
BRANCH  10  26
ATOM     26  C   UNL     1       6.826  -6.749  -1.833  0.00  0.00    +0.135 C 
BRANCH  26  27
ATOM     27  C   UNL     1       6.876  -8.254  -1.772  0.00  0.00    -0.031 A 
ATOM     28  C   UNL     1       5.884  -9.004  -2.375  0.00  0.00    +0.005 A 
ATOM     29  C   UNL     1       5.930 -10.384  -2.319  0.00  0.00    +0.000 A 
ATOM     30  C   UNL     1       6.970 -11.014  -1.661  0.00  0.00    +0.000 A 
ATOM     31  C   UNL     1       7.963 -10.264  -1.060  0.00  0.00    +0.000 A 
ATOM     32  C   UNL     1       7.919  -8.884  -1.119  0.00  0.00    +0.005 A 
ENDBRANCH  26  27
BRANCH  26  33
ATOM     33  C   UNL     1       6.939  -6.300  -3.268  0.00  0.00    -0.031 A 
ATOM     34  C   UNL     1       8.085  -5.661  -3.703  0.00  0.00    +0.005 A 
ATOM     35  C   UNL     1       8.190  -5.250  -5.019  0.00  0.00    +0.000 A 
ATOM     36  C   UNL     1       7.148  -5.477  -5.899  0.00  0.00    +0.000 A 
ATOM     37  C   UNL     1       6.003  -6.116  -5.463  0.00  0.00    +0.000 A 
ATOM     38  C   UNL     1       5.900  -6.532  -4.149  0.00  0.00    +0.005 A 
ENDBRANCH  26  33
ENDBRANCH  10  26
TORSDOF 7
