REMARK  Name = ZINC12480040
REMARK  13 active torsions:
REMARK  status: ('A' for Active; 'I' for Inactive)
REMARK    1  A    between atoms: C_1  and  C_2
REMARK    2  A    between atoms: C_5  and  C_7
REMARK    3  A    between atoms: C_7  and  C_9
REMARK    4  A    between atoms: C_7  and  N_17
REMARK    5  A    between atoms: N_11  and  C_12
REMARK    6  A    between atoms: C_12  and  C_13
REMARK    7  A    between atoms: C_13  and  C_14
REMARK    8  A    between atoms: C_14  and  C_15
REMARK    9  A    between atoms: C_14  and  C_16
REMARK   10  A    between atoms: N_17  and  C_18
REMARK   11  A    between atoms: C_25  and  C_27
REMARK   12  A    between atoms: C_28  and  N_35
REMARK   13  A    between atoms: C_29  and  C_32
REMARK                            x       y       z     vdW  Elec       q    Type
REMARK                         _______ _______ _______ _____ _____    ______ ____
ROOT
ATOM      1  N   UNL     1      -3.869   1.697   0.185  0.00  0.00    -0.248 N 
ATOM      2  C   UNL     1      -3.978   1.867   1.518  0.00  0.00    +0.262 C 
ATOM      3  O   UNL     1      -3.466   1.066   2.278  0.00  0.00    -0.269 OA
ENDROOT
BRANCH   1   4
ATOM      4  C   UNL     1      -4.492   2.595  -0.688  0.00  0.00    +0.038 A 
ATOM      5  C   UNL     1      -5.861   2.514  -0.909  0.00  0.00    +0.025 A 
ATOM      6  C   UNL     1      -6.474   3.405  -1.768  0.00  0.00    +0.022 A 
ATOM      7  C   UNL     1      -5.724   4.371  -2.416  0.00  0.00    +0.041 A 
ATOM      8  C   UNL     1      -4.360   4.451  -2.201  0.00  0.00    +0.022 A 
ATOM      9  C   UNL     1      -3.742   3.566  -1.339  0.00  0.00    +0.025 A 
ATOM     10 CL   UNL     1      -6.498   5.485  -3.500  0.00  0.00    -0.084 Cl
ENDBRANCH   1   4
BRANCH   2  11
ATOM     11  C   UNL     1      -4.713   3.016   2.051  0.00  0.00    +0.116 A 
ATOM     12  C   UNL     1      -5.046   3.317   3.373  0.00  0.00    +0.076 A 
ATOM     13  C   UNL     1      -5.758   4.511   3.486  0.00  0.00    +0.155 A 
ATOM     14  N   UNL     1      -6.031   5.202   2.401  0.00  0.00    -0.203 NA
ATOM     15  S   UNL     1      -5.413   4.408   1.189  0.00  0.00    +0.019 S 
BRANCH  13  16
ATOM     16  C   UNL     1      -6.198   4.994   4.808  0.00  0.00    +0.262 C 
ATOM     17  O   UNL     1      -5.942   4.350   5.807  0.00  0.00    -0.269 OA
ATOM     18  N   UNL     1      -6.885   6.149   4.909  0.00  0.00    -0.324 N 
ATOM     19  H   UNL     1      -7.089   6.663   4.112  0.00  0.00    +0.145 HD
ATOM     20  H   UNL     1      -7.175   6.467   5.778  0.00  0.00    +0.145 HD
ENDBRANCH  13  16
BRANCH  12  21
ATOM     21  N   UNL     1      -4.708   2.515   4.456  0.00  0.00    -0.355 N 
ATOM     22  H   UNL     1      -4.211   1.694   4.315  0.00  0.00    +0.142 HD
ATOM     23  H   UNL     1      -4.968   2.777   5.353  0.00  0.00    +0.142 HD
ENDBRANCH  12  21
ENDBRANCH   2  11
BRANCH   1  24
ATOM     24  C   UNL     1      -3.098   0.572  -0.349  0.00  0.00    +0.233 C 
BRANCH  24  29
ATOM     25  C   UNL     1      -6.336  -0.404  -4.090  0.00  0.00    +0.086 C 
ATOM     26  C   UNL     1      -5.345  -0.608  -2.974  0.00  0.00    +0.102 A 
ATOM     27  C   UNL     1      -4.894  -1.795  -2.529  0.00  0.00    +0.045 A 
ATOM     28  C   UNL     1      -3.982  -1.521  -1.484  0.00  0.00    +0.047 A 
ATOM     29  C   UNL     1      -3.937  -0.184  -1.347  0.00  0.00    +0.135 A 
ATOM     30  O   UNL     1      -4.762   0.364  -2.254  0.00  0.00    -0.462 OA
ENDBRANCH  24  29
BRANCH  24  31
ATOM     31  C   UNL     1      -1.856   1.091  -1.027  0.00  0.00    +0.242 C 
ATOM     32  O   UNL     1      -1.335   2.115  -0.637  0.00  0.00    -0.273 OA
ATOM     33  N   UNL     1      -1.324   0.417  -2.066  0.00  0.00    -0.313 N 
ATOM     34  H   UNL     1      -1.741  -0.402  -2.377  0.00  0.00    +0.149 HD
BRANCH  33  35
ATOM     35  C   UNL     1      -0.120   0.925  -2.729  0.00  0.00    +0.104 C 
BRANCH  35  36
ATOM     36  C   UNL     1       0.268  -0.016  -3.872  0.00  0.00    +0.022 C 
BRANCH  36  37
ATOM     37  C   UNL     1       1.525   0.514  -4.564  0.00  0.00    -0.016 C 
ATOM     38  C   UNL     1       2.701   0.472  -3.587  0.00  0.00    +0.007 C 
ATOM     39  C   UNL     1       1.841  -0.356  -5.782  0.00  0.00    +0.007 C 
ENDBRANCH  36  37
ENDBRANCH  35  36
ENDBRANCH  33  35
ENDBRANCH  24  31
ENDBRANCH   1  24
TORSDOF 10
