REMARK  Name = ZINC01467956
REMARK  10 active torsions:
REMARK  status: ('A' for Active; 'I' for Inactive)
REMARK    1  A    between atoms: C_1  and  C_2
REMARK    2  A    between atoms: C_3  and  C_32
REMARK    3  A    between atoms: C_4  and  N_17
REMARK    4  A    between atoms: C_14  and  C_15
REMARK    5  A    between atoms: N_17  and  C_18
REMARK    6  A    between atoms: C_19  and  C_31
REMARK    7  A    between atoms: N_20  and  C_30
REMARK    8  A    between atoms: N_21  and  C_24
REMARK    9  A    between atoms: C_32  and  C_33
REMARK   10  A    between atoms: C_33  and  C_35
REMARK                            x       y       z     vdW  Elec       q    Type
REMARK                         _______ _______ _______ _____ _____    ______ ____
ROOT
ATOM      1  C   UNL     1       1.655  -0.858   2.100  0.00  0.00    +0.045 C 
ATOM      2  C   UNL     1       0.175  -0.726   2.352  0.00  0.00    -0.023 A 
ATOM      3  C   UNL     1      -0.572   0.211   1.653  0.00  0.00    -0.000 A 
ATOM      4  C   UNL     1      -1.927   0.339   1.870  0.00  0.00    +0.113 A 
ATOM      5  N   UNL     1      -2.582  -0.444   2.779  0.00  0.00    -0.279 N 
ATOM      6  C   UNL     1      -3.908  -0.508   3.171  0.00  0.00    +0.075 A 
ATOM      7  C   UNL     1      -5.054   0.181   2.801  0.00  0.00    +0.028 A 
ATOM      8  C   UNL     1      -6.260  -0.128   3.395  0.00  0.00    +0.002 A 
ATOM      9  C   UNL     1      -6.335  -1.122   4.360  0.00  0.00    +0.002 A 
ATOM     10  C   UNL     1      -5.218  -1.811   4.738  0.00  0.00    +0.030 A 
ATOM     11  C   UNL     1      -3.984  -1.516   4.149  0.00  0.00    +0.090 A 
ATOM     12  N   UNL     1      -2.735  -2.014   4.312  0.00  0.00    -0.226 NA
ATOM     13  C   UNL     1      -1.898  -1.387   3.507  0.00  0.00    +0.158 A 
ATOM     14  C   UNL     1      -0.454  -1.541   3.293  0.00  0.00    +0.098 A 
ENDROOT
BRANCH  14  15
ATOM     15  C   UNL     1       0.293  -2.514   4.032  0.00  0.00    +0.103 C 
ATOM     16  N   UNL     1       0.886  -3.285   4.619  0.00  0.00    -0.191 NA
ENDBRANCH  14  15
BRANCH   4  17
ATOM     17  N   UNL     1      -2.635   1.274   1.156  0.00  0.00    -0.295 N 
ATOM     18  H   UNL     1      -2.760   1.157   0.070  0.00  0.00    +0.154 HD
BRANCH  17  19
ATOM     19  C   UNL     1      -3.202   2.382   1.815  0.00  0.00    +0.120 A 
ATOM     20  C   UNL     1      -4.002   3.321   1.262  0.00  0.00    +0.059 A 
ATOM     21  N   UNL     1      -4.346   4.228   2.230  0.00  0.00    -0.282 N 
ATOM     22  N   UNL     1      -3.740   3.862   3.438  0.00  0.00    -0.216 N 
ATOM     23  C   UNL     1      -3.030   2.735   3.225  0.00  0.00    +0.293 A 
ATOM     24  O   UNL     1      -2.370   2.127   4.049  0.00  0.00    -0.264 OA
ATOM     25  C   UNL     1      -5.207   5.396   2.032  0.00  0.00    +0.171 C 
ATOM     26  C   UNL     1      -4.443   3.362  -0.178  0.00  0.00    +0.067 C 
BRANCH  22  27
ATOM     27  C   UNL     1      -3.852   4.545   4.652  0.00  0.00    +0.067 A 
ATOM     28  C   UNL     1      -2.713   4.848   5.388  0.00  0.00    +0.028 A 
ATOM     29  C   UNL     1      -2.826   5.528   6.585  0.00  0.00    +0.002 A 
ATOM     30  C   UNL     1      -4.072   5.898   7.056  0.00  0.00    +0.000 A 
ATOM     31  C   UNL     1      -5.208   5.594   6.329  0.00  0.00    +0.002 A 
ATOM     32  C   UNL     1      -5.102   4.919   5.129  0.00  0.00    +0.028 A 
ENDBRANCH  22  27
ENDBRANCH  17  19
ENDBRANCH   4  17
BRANCH   3  33
ATOM     33  C   UNL     1       0.106   1.097   0.640  0.00  0.00    +0.068 C 
BRANCH  33  34
ATOM     34  C   UNL     1       0.585   2.357   1.314  0.00  0.00    -0.075 C 
ATOM     35  C   UNL     1       1.818   2.439   1.748  0.00  0.00    +0.007 C 
ATOM     36  C   UNL     1      -0.355   3.522   1.489  0.00  0.00    +0.039 C 
ENDBRANCH  33  34
ENDBRANCH   3  33
TORSDOF 6
