REMARK  Name = ZINC09162718
REMARK  13 active torsions:
REMARK  status: ('A' for Active; 'I' for Inactive)
REMARK    1  A    between atoms: C_1  and  C_2
REMARK    2  A    between atoms: C_2  and  C_4
REMARK    3  A    between atoms: C_2  and  N_10
REMARK    4  A    between atoms: C_11  and  C_13
REMARK    5  A    between atoms: C_18  and  N_19
REMARK    6  A    between atoms: C_20  and  C_22
REMARK    7  A    between atoms: C_22  and  O_23
REMARK    8  A    between atoms: O_23  and  C_24
REMARK    9  A    between atoms: C_24  and  C_26
REMARK   10  A    between atoms: C_31  and  N_32
REMARK   11  A    between atoms: N_32  and  C_33
REMARK   12  A    between atoms: C_33  and  C_34
REMARK   13  A    between atoms: C_34  and  O_35
REMARK                            x       y       z     vdW  Elec       q    Type
REMARK                         _______ _______ _______ _____ _____    ______ ____
ROOT
ATOM      1  N   UNL     1      -2.475  -0.164  -0.225  0.00  0.00    -0.282 N 
ATOM      2  C   UNL     1      -3.403  -0.787  -0.979  0.00  0.00    +0.255 C 
ATOM      3  O   UNL     1      -4.186  -0.135  -1.637  0.00  0.00    -0.272 OA
ATOM      4  H   UNL     1      -1.800  -0.683   0.239  0.00  0.00    +0.155 HD
ENDROOT
BRANCH   1  10
ATOM      5  C   UNL     1      -1.280   1.933  -0.012  0.00  0.00    +0.058 A 
ATOM      6  C   UNL     1      -1.306   3.324   0.106  0.00  0.00    +0.015 A 
ATOM      7  C   UNL     1      -2.511   3.992   0.113  0.00  0.00    +0.001 A 
ATOM      8  C   UNL     1      -3.701   3.289   0.013  0.00  0.00    +0.002 A 
ATOM      9  C   UNL     1      -3.692   1.913  -0.099  0.00  0.00    +0.024 A 
ATOM     10  C   UNL     1      -2.486   1.224  -0.113  0.00  0.00    +0.046 A 
BRANCH   5  12
ATOM     11  N   UNL     1       1.165   1.902  -0.034  0.00  0.00    -0.305 N 
ATOM     12  C   UNL     1       0.007   1.212  -0.025  0.00  0.00    +0.246 C 
ATOM     13  O   UNL     1       0.023  -0.004  -0.032  0.00  0.00    -0.270 OA
ATOM     14  H   UNL     1       1.152   2.872  -0.028  0.00  0.00    +0.150 HD
BRANCH  11  16
ATOM     15  C   UNL     1       2.811   0.836  -1.496  0.00  0.00    +0.033 C 
ATOM     16  C   UNL     1       2.443   1.186  -0.052  0.00  0.00    +0.100 C 
BRANCH  16  17
ATOM     17  C   UNL     1       3.517   2.061   0.541  0.00  0.00    -0.027 A 
ATOM     18  C   UNL     1       3.546   3.413   0.252  0.00  0.00    +0.005 A 
ATOM     19  C   UNL     1       4.529   4.216   0.799  0.00  0.00    +0.000 A 
ATOM     20  C   UNL     1       5.488   3.666   1.629  0.00  0.00    +0.000 A 
ATOM     21  C   UNL     1       5.462   2.314   1.915  0.00  0.00    +0.000 A 
ATOM     22  C   UNL     1       4.477   1.511   1.371  0.00  0.00    +0.005 A 
ENDBRANCH  16  17
ENDBRANCH  11  16
ENDBRANCH   5  12
ENDBRANCH   1  10
BRANCH   2  23
ATOM     23  C   UNL     1      -3.466  -2.292  -1.005  0.00  0.00    +0.328 C 
BRANCH  23  24
ATOM     24  O   UNL     1      -4.541  -2.716  -1.884  0.00  0.00    -0.452 OA
BRANCH  24  25
ATOM     25  C   UNL     1      -4.733  -4.043  -2.020  0.00  0.00    +0.341 C 
ATOM     26  O   UNL     1      -4.022  -4.825  -1.419  0.00  0.00    -0.245 OA
BRANCH  25  27
ATOM     27  C   UNL     1      -5.806  -4.547  -2.895  0.00  0.00    +0.080 A 
ATOM     28  C   UNL     1      -6.699  -3.655  -3.497  0.00  0.00    +0.017 A 
ATOM     29  C   UNL     1      -7.696  -4.132  -4.319  0.00  0.00    +0.001 A 
ATOM     30  C   UNL     1      -7.826  -5.494  -4.545  0.00  0.00    +0.002 A 
ATOM     31  C   UNL     1      -6.957  -6.387  -3.954  0.00  0.00    +0.024 A 
ATOM     32  C   UNL     1      -5.941  -5.925  -3.126  0.00  0.00    +0.041 A 
BRANCH  32  33
ATOM     33  N   UNL     1      -5.065  -6.822  -2.529  0.00  0.00    -0.341 N 
ATOM     34  H   UNL     1      -4.405  -6.505  -1.893  0.00  0.00    +0.146 HD
BRANCH  33  35
ATOM     35  C   UNL     1      -5.138  -8.247  -2.860  0.00  0.00    +0.129 C 
BRANCH  35  36
ATOM     36  C   UNL     1      -4.071  -9.009  -2.071  0.00  0.00    +0.174 C 
BRANCH  36  37
ATOM     37  O   UNL     1      -4.363  -8.930  -0.675  0.00  0.00    -0.393 OA
ATOM     38  H   UNL     1      -3.727  -9.392  -0.113  0.00  0.00    +0.209 HD
ENDBRANCH  36  37
ENDBRANCH  35  36
ENDBRANCH  33  35
ENDBRANCH  32  33
ENDBRANCH  25  27
ENDBRANCH  24  25
ENDBRANCH  23  24
ENDBRANCH   2  23
TORSDOF 12
