REMARK  Name = ZINC14359228
REMARK  12 active torsions:
REMARK  status: ('A' for Active; 'I' for Inactive)
REMARK    1  A    between atoms: C_1  and  C_2
REMARK    2  A    between atoms: C_2  and  C_3
REMARK    3  A    between atoms: C_2  and  C_4
REMARK    4  A    between atoms: C_4  and  C_6
REMARK    5  A    between atoms: C_4  and  N_22
REMARK    6  A    between atoms: C_6  and  O_8
REMARK    7  A    between atoms: O_8  and  C_9
REMARK    8  A    between atoms: C_9  and  C_10
REMARK    9  A    between atoms: C_10  and  C_12
REMARK   10  A    between atoms: C_23  and  C_25
REMARK   11  A    between atoms: C_29  and  S_31
REMARK   12  A    between atoms: S_31  and  N_34
REMARK                            x       y       z     vdW  Elec       q    Type
REMARK                         _______ _______ _______ _____ _____    ______ ____
ROOT
ATOM      1  C   UNL     1      -3.509  -5.126   0.008  0.00  0.00    +0.185 C 
ENDROOT
BRANCH   1   2
ATOM      2  N   UNL     1      -3.237  -6.566  -0.002  0.00  0.00    -0.298 N 
ATOM      3  C   UNL     1      -4.156  -7.422  -0.491  0.00  0.00    +0.245 C 
ATOM      4  O   UNL     1      -5.211  -6.999  -0.924  0.00  0.00    -0.270 OA
ATOM      5  H   UNL     1      -2.396  -6.903   0.343  0.00  0.00    +0.150 HD
BRANCH   3   6
ATOM      6  C   UNL     1      -3.882  -8.874  -0.502  0.00  0.00    +0.039 A 
ATOM      7  C   UNL     1      -2.672  -9.363  -0.006  0.00  0.00    +0.013 A 
ATOM      8  C   UNL     1      -2.423 -10.720  -0.018  0.00  0.00    +0.003 A 
ATOM      9  C   UNL     1      -3.369 -11.596  -0.520  0.00  0.00    +0.028 A 
ATOM     10  C   UNL     1      -4.571 -11.118  -1.013  0.00  0.00    +0.106 A 
ATOM     11  C   UNL     1      -4.834  -9.764  -1.002  0.00  0.00    +0.041 A 
BRANCH  10  12
ATOM     12  S   UNL     1      -5.769 -12.242  -1.649  0.00  0.00    +0.061 S 
ATOM     13  O   UNL     1      -6.582 -11.502  -2.550  0.00  0.00    -0.153 OA
ATOM     14  O   UNL     1      -5.061 -13.409  -2.045  0.00  0.00    -0.153 OA
BRANCH  12  15
ATOM     15  N   UNL     1      -6.744 -12.685  -0.386  0.00  0.00    -0.172 NA
ATOM     16  C   UNL     1      -6.423 -13.857   0.444  0.00  0.00    +0.137 C 
ATOM     17  C   UNL     1      -6.477 -13.428   1.919  0.00  0.00    +0.177 C 
ATOM     18  O   UNL     1      -7.731 -12.792   2.177  0.00  0.00    -0.377 OA
ATOM     19  C   UNL     1      -7.942 -11.591   1.432  0.00  0.00    +0.177 C 
ATOM     20  C   UNL     1      -7.960 -11.921  -0.065  0.00  0.00    +0.137 C 
ENDBRANCH  12  15
ENDBRANCH  10  12
ENDBRANCH   3   6
ENDBRANCH   1   2
BRANCH   1  22
ATOM     21  C   UNL     1      -4.584  -3.262   1.278  0.00  0.00    +0.009 C 
ATOM     22  C   UNL     1      -4.300  -4.766   1.267  0.00  0.00    +0.014 C 
ATOM     23  C   UNL     1      -5.623  -5.534   1.275  0.00  0.00    +0.009 C 
ENDBRANCH   1  22
BRANCH   1  24
ATOM     24  C   UNL     1      -2.206  -4.369  -0.000  0.00  0.00    +0.328 C 
ATOM     25  O   UNL     1      -1.158  -4.970  -0.014  0.00  0.00    -0.249 OA
BRANCH  24  26
ATOM     26  O   UNL     1      -2.210  -3.027   0.007  0.00  0.00    -0.455 OA
BRANCH  26  27
ATOM     27  C   UNL     1      -0.918  -2.364  -0.002  0.00  0.00    +0.311 C 
BRANCH  27  28
ATOM     28  C   UNL     1      -1.119  -0.871   0.008  0.00  0.00    +0.202 C 
ATOM     29  O   UNL     1      -2.243  -0.410   0.021  0.00  0.00    -0.288 OA
BRANCH  28  30
ATOM     30  C   UNL     1       0.002  -0.004   0.002  0.00  0.00    +0.046 A 
ATOM     31  C   UNL     1       1.331  -0.370  -0.013  0.00  0.00    +0.095 A 
ATOM     32  N   UNL     1       2.104   0.733  -0.014  0.00  0.00    -0.360 N 
ATOM     33  H   UNL     1       3.074   0.726  -0.023  0.00  0.00    +0.165 HD
ATOM     34  C   UNL     1       1.327   1.873  -0.001  0.00  0.00    +0.047 A 
ATOM     35  C   UNL     1      -0.018   1.472   0.010  0.00  0.00    +0.010 A 
ATOM     36  C   UNL     1      -1.032   2.425   0.030  0.00  0.00    +0.011 A 
ATOM     37  C   UNL     1      -0.709   3.765   0.028  0.00  0.00    +0.001 A 
ATOM     38  C   UNL     1       0.619   4.164   0.018  0.00  0.00    +0.002 A 
ATOM     39  C   UNL     1       1.633   3.230   0.003  0.00  0.00    +0.026 A 
ENDBRANCH  28  30
ENDBRANCH  27  28
ENDBRANCH  26  27
ENDBRANCH  24  26
ENDBRANCH   1  24
TORSDOF 10
