REMARK  Name = ZINC25102214
REMARK  7 active torsions:
REMARK  status: ('A' for Active; 'I' for Inactive)
REMARK    1  A    between atoms: C_3  and  O_10
REMARK    2  A    between atoms: C_6  and  C_7
REMARK    3  A    between atoms: O_10  and  C_11
REMARK    4  A    between atoms: C_11  and  C_12
REMARK    5  A    between atoms: N_14  and  C_15
REMARK    6  A    between atoms: C_15  and  C_16
REMARK    7  A    between atoms: N_18  and  C_19
REMARK                            x       y       z     vdW  Elec       q    Type
REMARK                         _______ _______ _______ _____ _____    ______ ____
ROOT
ATOM      1  C   UNL     1       5.936   2.288  -0.080  0.00  0.00    +0.251 C 
ATOM      2  O   UNL     1       5.758   3.487  -0.078  0.00  0.00    -0.272 OA
ATOM      3  N   UNL     1       7.189   1.792  -0.084  0.00  0.00    -0.304 N 
ATOM      4  H   UNL     1       7.331   0.832  -0.086  0.00  0.00    +0.149 HD
ENDROOT
BRANCH   1   5
ATOM      5  C   UNL     1       4.755   1.351  -0.080  0.00  0.00    +0.324 C 
BRANCH   5   6
ATOM      6  O   UNL     1       3.545   2.111  -0.076  0.00  0.00    -0.483 OA
BRANCH   6   9
ATOM      7  C   UNL     1      -0.017   1.389  -0.071  0.00  0.00    +0.016 A 
ATOM      8  C   UNL     1       1.167   2.092  -0.071  0.00  0.00    +0.046 A 
ATOM      9  C   UNL     1       2.380   1.414  -0.075  0.00  0.00    +0.121 A 
ATOM     10  C   UNL     1       2.404   0.024  -0.078  0.00  0.00    +0.046 A 
ATOM     11  C   UNL     1       1.225  -0.686  -0.078  0.00  0.00    +0.016 A 
ATOM     12  C   UNL     1       0.003  -0.009  -0.074  0.00  0.00    +0.037 A 
BRANCH  12  13
ATOM     13  C   UNL     1      -1.264  -0.766  -0.073  0.00  0.00    +0.242 C 
ATOM     14  O   UNL     1      -2.326  -0.175  -0.069  0.00  0.00    -0.270 OA
ATOM     15  N   UNL     1      -1.243  -2.114  -0.076  0.00  0.00    -0.325 N 
ATOM     16  H   UNL     1      -0.395  -2.586  -0.079  0.00  0.00    +0.145 HD
ATOM     17  H   UNL     1      -2.075  -2.612  -0.075  0.00  0.00    +0.145 HD
ENDBRANCH  12  13
ENDBRANCH   6   9
ENDBRANCH   5   6
ENDBRANCH   1   5
BRANCH   3  18
ATOM     18  C   UNL     1       8.337   2.702  -0.084  0.00  0.00    +0.200 C 
BRANCH  18  19
ATOM     19  C   UNL     1       9.614   1.901  -0.088  0.00  0.00    +0.234 C 
ATOM     20  O   UNL     1       9.569   0.689  -0.091  0.00  0.00    -0.274 OA
ATOM     21  N   UNL     1      10.805   2.532  -0.089  0.00  0.00    -0.282 N 
ATOM     22  H   UNL     1      10.842   3.499  -0.153  0.00  0.00    +0.155 HD
BRANCH  21  23
ATOM     23  C   UNL     1      11.990   1.790   0.001  0.00  0.00    +0.072 A 
ATOM     24  C   UNL     1      12.076   0.540  -0.597  0.00  0.00    +0.029 A 
ATOM     25  C   UNL     1      13.245  -0.191  -0.507  0.00  0.00    +0.043 A 
ATOM     26  C   UNL     1      14.332   0.321   0.179  0.00  0.00    +0.161 A 
ATOM     27  C   UNL     1      14.252   1.568   0.778  0.00  0.00    +0.195 A 
ATOM     28  C   UNL     1      13.084   2.307   0.685  0.00  0.00    +0.182 A 
ATOM     29  F   UNL     1      13.006   3.525   1.264  0.00  0.00    -0.200 F 
ATOM     30  F   UNL     1      15.315   2.066   1.448  0.00  0.00    -0.199 F 
ATOM     31  F   UNL     1      15.474  -0.397   0.265  0.00  0.00    -0.202 F 
ENDBRANCH  21  23
ENDBRANCH  18  19
ENDBRANCH   3  18
TORSDOF 7
