REMARK  Name = ZINC20572783
REMARK  4 active torsions:
REMARK  status: ('A' for Active; 'I' for Inactive)
REMARK    1  A    between atoms: C_3  and  C_8
REMARK    2  A    between atoms: N_10  and  C_11
REMARK    3  A    between atoms: C_11  and  C_12
REMARK    4  A    between atoms: C_12  and  C_13
REMARK                            x       y       z     vdW  Elec       q    Type
REMARK                         _______ _______ _______ _____ _____    ______ ____
ROOT
ATOM      1  C   UNL     1       8.562   2.044  -0.070  0.00  0.00    +0.217 C 
ATOM      2  O   UNL     1       8.547   3.257  -0.064  0.00  0.00    -0.276 OA
ATOM      3  N   UNL     1       9.738   1.385  -0.085  0.00  0.00    -0.301 N 
ATOM      4  C   UNL     1       9.773  -0.084  -0.099  0.00  0.00    +0.110 C 
ATOM      5  C   UNL     1      10.633  -0.545  -1.279  0.00  0.00    +0.047 C 
ATOM      6  C   UNL     1      12.008   0.118  -1.194  0.00  0.00    +0.064 C 
ATOM      7  C   UNL     1      11.857   1.637  -1.268  0.00  0.00    +0.047 C 
ATOM      8  C   UNL     1      11.009   2.122  -0.094  0.00  0.00    +0.110 C 
ATOM      9  C   UNL     1      12.873  -0.361  -2.332  0.00  0.00    +0.057 A 
ATOM     10  C   UNL     1      14.167  -0.724  -2.178  0.00  0.00    +0.039 A 
ATOM     11  N   UNL     1      14.627  -1.100  -3.399  0.00  0.00    -0.349 N 
ATOM     12  H   UNL     1      15.521  -1.413  -3.608  0.00  0.00    +0.166 HD
ATOM     13  C   UNL     1      13.600  -0.954  -4.269  0.00  0.00    +0.171 A 
ATOM     14  N   UNL     1      12.555  -0.511  -3.619  0.00  0.00    -0.348 N 
ATOM     15  C   UNL     1      14.889  -0.684  -0.855  0.00  0.00    +0.070 C 
ATOM     16  C   UNL     1      14.061   0.180   0.107  0.00  0.00    +0.088 C 
ATOM     17  N   UNL     1      12.657  -0.252   0.074  0.00  0.00    -0.305 NA
ATOM     18  H   UNL     1      12.146   0.116   0.862  0.00  0.00    +0.123 HD
ATOM     19  H   UNL     1      11.688  -0.322  -4.009  0.00  0.00    +0.166 HD
ENDROOT
BRANCH   1  20
ATOM     20  C   UNL     1       7.267   1.274  -0.061  0.00  0.00    +0.114 C 
BRANCH  20  21
ATOM     21  C   UNL     1       6.091   2.254  -0.045  0.00  0.00    +0.113 C 
BRANCH  21  24
ATOM     22  C   UNL     1       3.656   2.164  -0.022  0.00  0.00    +0.244 C 
ATOM     23  O   UNL     1       3.641   3.380  -0.015  0.00  0.00    -0.270 OA
ATOM     24  N   UNL     1       4.832   1.505  -0.036  0.00  0.00    -0.311 N 
ATOM     25  H   UNL     1       4.844   0.535  -0.042  0.00  0.00    +0.149 HD
BRANCH  22  28
ATOM     26  C   UNL     1      -0.017   1.379   0.010  0.00  0.00    +0.004 A 
ATOM     27  C   UNL     1       1.167   2.088   0.002  0.00  0.00    +0.013 A 
ATOM     28  C   UNL     1       2.385   1.409  -0.013  0.00  0.00    +0.039 A 
ATOM     29  C   UNL     1       2.400   0.013  -0.021  0.00  0.00    +0.051 A 
ATOM     30  C   UNL     1       1.208  -0.686  -0.013  0.00  0.00    +0.124 A 
ATOM     31  C   UNL     1       0.002  -0.004   0.002  0.00  0.00    +0.038 A 
ATOM     32  F   UNL     1       1.219  -2.037  -0.021  0.00  0.00    -0.205 F 
ENDBRANCH  22  28
ENDBRANCH  21  24
ENDBRANCH  20  21
ENDBRANCH   1  20
TORSDOF 4
