REMARK  Name = ZINC04366350
REMARK  8 active torsions:
REMARK  status: ('A' for Active; 'I' for Inactive)
REMARK    1  A    between atoms: C_1  and  C_2
REMARK    2  A    between atoms: C_2  and  C_4
REMARK    3  A    between atoms: C_2  and  O_17
REMARK    4  A    between atoms: N_6  and  N_7
REMARK    5  A    between atoms: C_8  and  C_9
REMARK    6  A    between atoms: C_12  and  O_16
REMARK    7  A    between atoms: C_14  and  O_15
REMARK    8  A    between atoms: O_17  and  C_18
REMARK                            x       y       z     vdW  Elec       q    Type
REMARK                         _______ _______ _______ _____ _____    ______ ____
ROOT
ATOM      1  C   UNL     1       0.862  -0.290   1.210  0.00  0.00    +0.273 C 
ATOM      2  O   UNL     1       1.979  -0.741   1.067  0.00  0.00    -0.270 OA
ATOM      3  N   UNL     1       0.391  -0.038   2.447  0.00  0.00    -0.204 N 
ATOM      4  H   UNL     1      -0.503   0.322   2.562  0.00  0.00    +0.177 HD
ENDROOT
BRANCH   1   6
ATOM      5  C   UNL     1      -0.256   1.493  -0.102  0.00  0.00    +0.062 C 
ATOM      6  C   UNL     1       0.002  -0.011   0.004  0.00  0.00    +0.257 C 
BRANCH   6   7
ATOM      7  O   UNL     1       0.671  -0.465  -1.174  0.00  0.00    -0.480 OA
BRANCH   7   8
ATOM      8  C   UNL     1      -0.107  -0.775  -2.245  0.00  0.00    +0.122 A 
ATOM      9  C   UNL     1      -1.474  -0.546  -2.199  0.00  0.00    +0.047 A 
ATOM     10  C   UNL     1      -2.262  -0.857  -3.291  0.00  0.00    +0.023 A 
ATOM     11  C   UNL     1      -1.690  -1.407  -4.424  0.00  0.00    +0.041 A 
ATOM     12  C   UNL     1      -0.327  -1.641  -4.469  0.00  0.00    +0.023 A 
ATOM     13  C   UNL     1       0.465  -1.326  -3.382  0.00  0.00    +0.047 A 
ATOM     14 CL   UNL     1      -2.683  -1.802  -5.792  0.00  0.00    -0.084 Cl
ENDBRANCH   7   8
ENDBRANCH   6   7
ENDBRANCH   1   6
BRANCH   3  15
ATOM     15  N   UNL     1       1.191  -0.297   3.568  0.00  0.00    -0.188 NA
ATOM     16  C   UNL     1       0.737  -0.055   4.760  0.00  0.00    +0.142 C 
BRANCH  16  17
ATOM     17  C   UNL     1       1.578  -0.327   5.938  0.00  0.00    +0.036 A 
ATOM     18  C   UNL     1       1.092  -0.067   7.222  0.00  0.00    +0.016 A 
ATOM     19  C   UNL     1       1.881  -0.323   8.321  0.00  0.00    +0.046 A 
ATOM     20  C   UNL     1       3.161  -0.840   8.158  0.00  0.00    +0.120 A 
ATOM     21  C   UNL     1       3.653  -1.101   6.887  0.00  0.00    +0.091 A 
ATOM     22  C   UNL     1       2.867  -0.853   5.776  0.00  0.00    +0.129 A 
BRANCH  22  23
ATOM     23  O   UNL     1       3.345  -1.114   4.532  0.00  0.00    -0.506 OA
ATOM     24  H   UNL     1       3.812  -0.370   4.126  0.00  0.00    +0.292 HD
ENDBRANCH  22  23
BRANCH  20  25
ATOM     25  O   UNL     1       3.934  -1.091   9.247  0.00  0.00    -0.507 OA
ATOM     26  H   UNL     1       3.832  -1.983   9.605  0.00  0.00    +0.292 HD
ENDBRANCH  20  25
ENDBRANCH  16  17
ENDBRANCH   3  15
TORSDOF 7
