REMARK  Name = ZINC19078160
REMARK  5 active torsions:
REMARK  status: ('A' for Active; 'I' for Inactive)
REMARK    1  A    between atoms: C_8  and  C_10
REMARK    2  A    between atoms: C_10  and  O_12
REMARK    3  A    between atoms: O_12  and  C_13
REMARK    4  A    between atoms: C_13  and  C_14
REMARK    5  A    between atoms: N_16  and  C_17
REMARK                            x       y       z     vdW  Elec       q    Type
REMARK                         _______ _______ _______ _____ _____    ______ ____
ROOT
ATOM      1  C   UNL     1       6.801   3.934  -0.028  0.00  0.00    +0.328 C 
ENDROOT
BRANCH   1   2
ATOM      2  C   UNL     1       7.275   5.365  -0.035  0.00  0.00    +0.255 C 
ATOM      3  O   UNL     1       6.468   6.270  -0.028  0.00  0.00    -0.272 OA
ATOM      4  N   UNL     1       8.595   5.638  -0.048  0.00  0.00    -0.281 N 
ATOM      5  H   UNL     1       9.240   4.916   0.013  0.00  0.00    +0.155 HD
BRANCH   4   6
ATOM      6  C   UNL     1       9.033   6.960  -0.150  0.00  0.00    +0.062 A 
ATOM      7  C   UNL     1       8.325   7.960   0.442  0.00  0.00    +0.025 A 
ATOM      8  C   UNL     1       8.736   9.289   0.358  0.00  0.00    +0.004 A 
ATOM      9  C   UNL     1       9.857   9.646  -0.315  0.00  0.00    +0.031 A 
ATOM     10  C   UNL     1      10.647   8.657  -0.958  0.00  0.00    +0.102 A 
ATOM     11  C   UNL     1      10.225   7.263  -0.870  0.00  0.00    +0.121 A 
ATOM     12  N   UNL     1      11.057   6.446  -1.510  0.00  0.00    -0.189 NA
ATOM     13  S   UNL     1      12.187   7.353  -2.108  0.00  0.00    +0.117 S 
ATOM     14  N   UNL     1      11.770   8.796  -1.661  0.00  0.00    -0.191 NA
ENDBRANCH   4   6
ENDBRANCH   1   2
BRANCH   1  15
ATOM     15  O   UNL     1       5.350   3.904  -0.014  0.00  0.00    -0.450 OA
BRANCH  15  16
ATOM     16  C   UNL     1       4.762   2.691  -0.006  0.00  0.00    +0.375 C 
ATOM     17  O   UNL     1       5.445   1.685  -0.012  0.00  0.00    -0.241 OA
BRANCH  16  25
ATOM     18  C   UNL     1      -1.203   1.747   0.047  0.00  0.00    +0.001 A 
ATOM     19  C   UNL     1      -1.229   3.135   0.051  0.00  0.00    +0.004 A 
ATOM     20  C   UNL     1      -0.059   3.862   0.038  0.00  0.00    +0.047 A 
ATOM     21  C   UNL     1       1.165   3.202   0.027  0.00  0.00    +0.136 A 
ATOM     22  C   UNL     1       1.186   1.795   0.029  0.00  0.00    +0.021 A 
ATOM     23  C   UNL     1      -0.013   1.077   0.042  0.00  0.00    +0.011 A 
ATOM     24  C   UNL     1       2.599   1.419   0.017  0.00  0.00    +0.065 A 
ATOM     25  C   UNL     1       3.298   2.584   0.008  0.00  0.00    +0.213 A 
ATOM     26  O   UNL     1       2.443   3.628   0.014  0.00  0.00    -0.448 OA
ENDBRANCH  16  25
ENDBRANCH  15  16
ENDBRANCH   1  15
TORSDOF 5
