REMARK  Name = ZINC59293260
REMARK  13 active torsions:
REMARK  status: ('A' for Active; 'I' for Inactive)
REMARK    1  A    between atoms: C_1  and  C_2
REMARK    2  A    between atoms: C_2  and  O_3
REMARK    3  A    between atoms: O_3  and  C_4
REMARK    4  A    between atoms: C_4  and  C_6
REMARK    5  A    between atoms: C_7  and  N_32
REMARK    6  A    between atoms: C_9  and  C_31
REMARK    7  A    between atoms: C_10  and  C_25
REMARK    8  A    between atoms: N_18  and  C_21
REMARK    9  A    between atoms: C_21  and  C_22
REMARK   10  A    between atoms: C_25  and  O_27
REMARK   11  A    between atoms: O_27  and  C_28
REMARK   12  A    between atoms: C_28  and  C_29
REMARK   13  A    between atoms: C_28  and  C_30
REMARK                            x       y       z     vdW  Elec       q    Type
REMARK                         _______ _______ _______ _____ _____    ______ ____
ROOT
ATOM      1  C   UNL     1      -2.985  -2.481   0.196  0.00  0.00    +0.117 C 
ATOM      2  C   UNL     1      -2.965  -3.834   0.058  0.00  0.00    +0.195 C 
ATOM      3  O   UNL     1      -4.101  -4.549  -0.009  0.00  0.00    -0.446 OA
ATOM      4  C   UNL     1      -5.261  -4.016   0.406  0.00  0.00    +0.116 C 
ATOM      5  C   UNL     1      -5.417  -2.694   0.564  0.00  0.00    +0.098 C 
ATOM      6  C   UNL     1      -4.290  -1.744   0.287  0.00  0.00    +0.145 C 
ATOM      7  C   UNL     1      -4.552  -0.976  -0.984  0.00  0.00    -0.002 A 
ATOM      8  C   UNL     1      -4.722  -1.357  -2.296  0.00  0.00    +0.007 A 
ATOM      9  C   UNL     1      -4.955  -0.401  -3.269  0.00  0.00    +0.000 A 
ATOM     10  C   UNL     1      -5.016   0.936  -2.920  0.00  0.00    +0.002 A 
ATOM     11  C   UNL     1      -4.847   1.321  -1.606  0.00  0.00    +0.024 A 
ATOM     12  C   UNL     1      -4.613   0.365  -0.621  0.00  0.00    +0.042 A 
ATOM     13  N   UNL     1      -4.413   0.501   0.754  0.00  0.00    -0.261 N 
ATOM     14  C   UNL     1      -4.218  -0.683   1.360  0.00  0.00    +0.240 C 
ATOM     15  O   UNL     1      -4.022  -0.865   2.543  0.00  0.00    -0.274 OA
ATOM     16  C   UNL     1      -6.421  -4.930   0.705  0.00  0.00    +0.087 C 
ENDROOT
BRANCH   2  17
ATOM     17  N   UNL     1      -1.761  -4.482  -0.015  0.00  0.00    -0.329 N 
ATOM     18  H   UNL     1      -0.935  -3.986   0.105  0.00  0.00    +0.145 HD
ATOM     19  H   UNL     1      -1.733  -5.436  -0.186  0.00  0.00    +0.145 HD
ENDBRANCH   2  17
BRANCH   1  20
ATOM     20  C   UNL     1      -1.777  -1.770   0.259  0.00  0.00    +0.342 C 
ATOM     21  O   UNL     1      -1.355  -1.196  -0.729  0.00  0.00    -0.245 OA
BRANCH  20  22
ATOM     22  O   UNL     1      -1.083  -1.720   1.417  0.00  0.00    -0.462 OA
BRANCH  22  24
ATOM     23  C   UNL     1       0.779  -1.035   2.798  0.00  0.00    +0.048 C 
ATOM     24  C   UNL     1       0.138  -0.978   1.409  0.00  0.00    +0.229 C 
ENDBRANCH  22  24
ENDBRANCH  20  22
ENDBRANCH   1  20
BRANCH   5  25
ATOM     25  C   UNL     1      -6.665  -2.186   1.004  0.00  0.00    +0.340 C 
ATOM     26  O   UNL     1      -6.855  -0.985   1.037  0.00  0.00    -0.245 OA
BRANCH  25  27
ATOM     27  O   UNL     1      -7.642  -3.034   1.385  0.00  0.00    -0.459 OA
BRANCH  27  28
ATOM     28  C   UNL     1      -8.909  -2.460   1.711  0.00  0.00    +0.171 C 
ATOM     29  C   UNL     1      -9.818  -2.496   0.480  0.00  0.00    +0.052 C 
ATOM     30  C   UNL     1      -9.555  -3.259   2.845  0.00  0.00    +0.052 C 
ENDBRANCH  27  28
ENDBRANCH  25  27
ENDBRANCH   5  25
BRANCH  13  31
ATOM     31  C   UNL     1      -4.417   1.787   1.456  0.00  0.00    +0.209 C 
BRANCH  31  32
ATOM     32  C   UNL     1      -5.835   2.178   1.782  0.00  0.00    +0.228 C 
ATOM     33  O   UNL     1      -6.746   1.415   1.537  0.00  0.00    -0.274 OA
ATOM     34  N   UNL     1      -6.092   3.374   2.346  0.00  0.00    -0.328 N 
ATOM     35  H   UNL     1      -5.364   3.985   2.542  0.00  0.00    +0.145 HD
ATOM     36  H   UNL     1      -7.005   3.626   2.556  0.00  0.00    +0.145 HD
ENDBRANCH  31  32
ENDBRANCH  13  31
TORSDOF 9
