REMARK  Name = ZINC58385565
REMARK  4 active torsions:
REMARK  status: ('A' for Active; 'I' for Inactive)
REMARK    1  A    between atoms: C_1  and  C_2
REMARK    2  A    between atoms: C_2  and  C_3
REMARK    3  A    between atoms: C_2  and  N_15
REMARK    4  A    between atoms: C_16  and  C_18
REMARK                            x       y       z     vdW  Elec       q    Type
REMARK                         _______ _______ _______ _____ _____    ______ ____
ROOT
ATOM      1  C   UNL     1      -0.019   1.526   0.010  0.00  0.00    +0.033 C 
ATOM      2  C   UNL     1       0.002  -0.004   0.002  0.00  0.00    +0.100 C 
ENDROOT
BRANCH   2   3
ATOM      3  C   UNL     1       0.731  -0.503   1.223  0.00  0.00    -0.025 A 
ATOM      4  C   UNL     1       2.115  -0.512   1.244  0.00  0.00    +0.007 A 
ATOM      5  C   UNL     1       2.792  -0.968   2.358  0.00  0.00    +0.028 A 
ATOM      6  C   UNL     1       2.082  -1.418   3.461  0.00  0.00    +0.067 A 
ATOM      7  C   UNL     1       0.686  -1.409   3.440  0.00  0.00    +0.067 A 
ATOM      8  C   UNL     1       0.015  -0.944   2.319  0.00  0.00    +0.033 A 
ATOM      9  N   UNL     1       0.262  -1.910   4.668  0.00  0.00    -0.306 N 
ATOM     10  H   UNL     1      -0.660  -2.023   4.947  0.00  0.00    +0.170 HD
ATOM     11  C   UNL     1       1.350  -2.210   5.402  0.00  0.00    +0.325 A 
ATOM     12  O   UNL     1       1.330  -2.670   6.529  0.00  0.00    -0.247 OA
ATOM     13  N   UNL     1       2.463  -1.924   4.701  0.00  0.00    -0.306 N 
ATOM     14  H   UNL     1       3.375  -2.050   5.007  0.00  0.00    +0.170 HD
ENDBRANCH   2   3
BRANCH   2  15
ATOM     15  N   UNL     1       0.688  -0.476  -1.203  0.00  0.00    -0.306 N 
ATOM     16  C   UNL     1       0.006  -0.608  -2.358  0.00  0.00    +0.255 C 
ATOM     17  O   UNL     1      -1.175  -0.336  -2.400  0.00  0.00    -0.272 OA
ATOM     18  H   UNL     1       1.632  -0.695  -1.170  0.00  0.00    +0.149 HD
BRANCH  16  19
ATOM     19  C   UNL     1       0.712  -1.094  -3.598  0.00  0.00    +0.263 C 
ATOM     20  C   UNL     1       1.079  -2.591  -3.469  0.00  0.00    +0.093 C 
ATOM     21  C   UNL     1      -0.119  -3.265  -4.111  0.00  0.00    -0.002 A 
ATOM     22  C   UNL     1      -0.569  -4.566  -4.089  0.00  0.00    +0.007 A 
ATOM     23  C   UNL     1      -1.721  -4.910  -4.774  0.00  0.00    +0.000 A 
ATOM     24  C   UNL     1      -2.416  -3.944  -5.478  0.00  0.00    +0.004 A 
ATOM     25  C   UNL     1      -1.964  -2.641  -5.504  0.00  0.00    +0.046 A 
ATOM     26  C   UNL     1      -0.803  -2.287  -4.820  0.00  0.00    +0.125 A 
ATOM     27  O   UNL     1      -0.177  -1.081  -4.728  0.00  0.00    -0.479 OA
ENDBRANCH  16  19
ENDBRANCH   2  15
TORSDOF 3
