REMARK  Name = ZINC45724926
REMARK  9 active torsions:
REMARK  status: ('A' for Active; 'I' for Inactive)
REMARK    1  A    between atoms: C_1  and  C_2
REMARK    2  A    between atoms: C_2  and  O_3
REMARK    3  A    between atoms: O_3  and  C_4
REMARK    4  A    between atoms: C_11  and  C_13
REMARK    5  A    between atoms: C_13  and  C_15
REMARK    6  A    between atoms: C_13  and  N_16
REMARK    7  A    between atoms: N_19  and  C_20
REMARK    8  A    between atoms: C_25  and  C_26
REMARK    9  A    between atoms: C_26  and  C_27
REMARK                            x       y       z     vdW  Elec       q    Type
REMARK                         _______ _______ _______ _____ _____    ______ ____
ROOT
ATOM      1  N   UNL     1       4.219  -1.339   5.389  0.00  0.00    -0.290 N 
ATOM      2  C   UNL     1       5.326  -1.222   6.148  0.00  0.00    +0.304 C 
ATOM      3  O   UNL     1       5.576  -2.061   6.992  0.00  0.00    -0.252 OA
ATOM      4  N   UNL     1       6.157  -0.175   5.972  0.00  0.00    -0.269 N 
ATOM      5  H   UNL     1       4.019  -0.670   4.716  0.00  0.00    +0.151 HD
ATOM      6  H   UNL     1       6.002   0.450   5.247  0.00  0.00    +0.156 HD
ENDROOT
BRANCH   4   7
ATOM      7  C   UNL     1       7.241   0.011   6.837  0.00  0.00    +0.038 A 
ATOM      8  C   UNL     1       7.204  -0.512   8.123  0.00  0.00    +0.023 A 
ATOM      9  C   UNL     1       8.276  -0.327   8.973  0.00  0.00    +0.002 A 
ATOM     10  C   UNL     1       9.386   0.378   8.546  0.00  0.00    +0.000 A 
ATOM     11  C   UNL     1       9.427   0.899   7.266  0.00  0.00    +0.006 A 
ATOM     12  C   UNL     1       8.360   0.712   6.408  0.00  0.00    -0.017 A 
BRANCH  12  13
ATOM     13  C   UNL     1       8.408   1.276   5.011  0.00  0.00    +0.132 C 
BRANCH  13  14
ATOM     14  C   UNL     1       7.733   2.623   4.990  0.00  0.00    +0.215 C 
ATOM     15  O   UNL     1       7.260   3.081   6.008  0.00  0.00    -0.276 OA
ATOM     16  N   UNL     1       7.655   3.320   3.838  0.00  0.00    -0.329 N 
ATOM     17  H   UNL     1       8.034   2.954   3.024  0.00  0.00    +0.145 HD
ATOM     18  H   UNL     1       7.221   4.187   3.825  0.00  0.00    +0.145 HD
ENDBRANCH  13  14
ENDBRANCH  12  13
ENDBRANCH   4   7
BRANCH   1  19
ATOM     19  C   UNL     1       3.317  -2.477   5.580  0.00  0.00    +0.137 C 
ATOM     20  C   UNL     1       2.332  -2.163   6.709  0.00  0.00    +0.036 C 
BRANCH  19  28
ATOM     21  C   UNL     1       0.759  -1.787   1.342  0.00  0.00    +0.163 A 
ATOM     22  C   UNL     1       0.208  -2.627   0.392  0.00  0.00    +0.049 A 
ATOM     23  C   UNL     1       0.308  -4.004   0.523  0.00  0.00    +0.004 A 
ATOM     24  C   UNL     1       0.960  -4.554   1.605  0.00  0.00    +0.012 A 
ATOM     25  C   UNL     1       1.521  -3.719   2.571  0.00  0.00    +0.024 A 
ATOM     26  C   UNL     1       1.427  -2.325   2.440  0.00  0.00    +0.177 A 
ATOM     27  O   UNL     1       2.056  -1.779   3.501  0.00  0.00    -0.454 OA
ATOM     28  C   UNL     1       2.555  -2.734   4.306  0.00  0.00    +0.126 A 
ATOM     29  C   UNL     1       2.265  -3.947   3.816  0.00  0.00    +0.055 A 
BRANCH  21  30
ATOM     30  O   UNL     1       0.654  -0.439   1.203  0.00  0.00    -0.489 OA
BRANCH  30  32
ATOM     31  C   UNL     1      -0.060   1.572   0.067  0.00  0.00    +0.048 C 
ATOM     32  C   UNL     1      -0.045   0.042   0.052  0.00  0.00    +0.226 C 
ENDBRANCH  30  32
ENDBRANCH  21  30
ENDBRANCH  19  28
ENDBRANCH   1  19
TORSDOF 7
