REMARK  Name = ZINC13095600
REMARK  8 active torsions:
REMARK  status: ('A' for Active; 'I' for Inactive)
REMARK    1  A    between atoms: C_5  and  C_7
REMARK    2  A    between atoms: C_7  and  N_8
REMARK    3  A    between atoms: N_13  and  C_14
REMARK    4  A    between atoms: C_14  and  C_16
REMARK    5  A    between atoms: C_16  and  S_17
REMARK    6  A    between atoms: S_17  and  C_18
REMARK    7  A    between atoms: C_21  and  C_24
REMARK    8  A    between atoms: N_22  and  N_23
REMARK                            x       y       z     vdW  Elec       q    Type
REMARK                         _______ _______ _______ _____ _____    ______ ____
ROOT
ATOM      1  C   UNL     1      -4.782   1.829  -0.610  0.00  0.00    +0.175 C 
ENDROOT
BRANCH   1   2
ATOM      2  C   UNL     1      -5.941   1.593   0.324  0.00  0.00    +0.249 C 
ATOM      3  O   UNL     1      -5.749   1.093   1.417  0.00  0.00    -0.273 OA
BRANCH   2   9
ATOM      4  N   UNL     1      -9.518   1.994   0.593  0.00  0.00    -0.324 N 
ATOM      5  C   UNL     1     -10.400   1.695   1.582  0.00  0.00    +0.095 A 
ATOM      6  C   UNL     1      -9.938   1.142   2.708  0.00  0.00    +0.066 A 
ATOM      7  S   UNL     1      -8.190   1.025   2.372  0.00  0.00    -0.061 S 
ATOM      8  C   UNL     1      -8.196   1.721   0.783  0.00  0.00    +0.166 A 
ATOM      9  N   UNL     1      -7.170   1.930  -0.045  0.00  0.00    -0.156 NA
BRANCH   4  10
ATOM     10  C   UNL     1      -9.980   2.601  -0.658  0.00  0.00    +0.160 C 
BRANCH  10  15
ATOM     11  C   UNL     1     -12.903   0.651  -2.039  0.00  0.00    +0.000 A 
ATOM     12  C   UNL     1     -13.973   1.319  -1.474  0.00  0.00    +0.001 A 
ATOM     13  C   UNL     1     -13.752   2.402  -0.645  0.00  0.00    +0.020 A 
ATOM     14  C   UNL     1     -12.459   2.818  -0.380  0.00  0.00    +0.046 A 
ATOM     15  C   UNL     1     -11.389   2.149  -0.945  0.00  0.00    -0.009 A 
ATOM     16  C   UNL     1     -11.611   1.068  -1.778  0.00  0.00    +0.007 A 
ATOM     17 CL   UNL     1     -12.181   4.179   0.661  0.00  0.00    -0.083 Cl
ENDBRANCH  10  15
ENDBRANCH   4  10
ENDBRANCH   2   9
ENDBRANCH   1   2
BRANCH   1  18
ATOM     18  S   UNL     1      -3.251   1.268   0.175  0.00  0.00    -0.075 S 
BRANCH  18  19
ATOM     19  C   UNL     1      -2.096   1.651  -1.100  0.00  0.00    +0.209 A 
ATOM     20  N   UNL     1      -2.372   2.194  -2.265  0.00  0.00    -0.121 NA
ATOM     21  N   UNL     1      -1.295   2.335  -2.952  0.00  0.00    -0.127 NA
ATOM     22  C   UNL     1      -0.265   1.896  -2.267  0.00  0.00    +0.182 A 
ATOM     23  N   UNL     1      -0.747   1.439  -1.062  0.00  0.00    -0.224 N 
BRANCH  22  24
ATOM     24  C   UNL     1       1.146   1.890  -2.708  0.00  0.00    +0.023 A 
ATOM     25  C   UNL     1       2.082   1.088  -2.052  0.00  0.00    +0.012 A 
ATOM     26  C   UNL     1       3.396   1.083  -2.470  0.00  0.00    +0.003 A 
ATOM     27  C   UNL     1       3.791   1.877  -3.532  0.00  0.00    +0.038 A 
ATOM     28  C   UNL     1       2.869   2.679  -4.185  0.00  0.00    +0.124 A 
ATOM     29  C   UNL     1       1.548   2.689  -3.778  0.00  0.00    +0.050 A 
ATOM     30  F   UNL     1       3.262   3.453  -5.220  0.00  0.00    -0.205 F 
ENDBRANCH  22  24
BRANCH  23  31
ATOM     31  N   UNL     1      -0.026   0.893  -0.038  0.00  0.00    -0.295 N 
ATOM     32  H   UNL     1       0.118  -0.095  -0.184  0.00  0.00    +0.163 HD
ATOM     33  H   UNL     1       0.853   1.374   0.082  0.00  0.00    +0.163 HD
ENDBRANCH  23  31
ENDBRANCH  18  19
ENDBRANCH   1  18
TORSDOF 8
