REMARK  Name = ZINC09292116
REMARK  6 active torsions:
REMARK  status: ('A' for Active; 'I' for Inactive)
REMARK    1  A    between atoms: C_1  and  C_2
REMARK    2  A    between atoms: C_12  and  C_32
REMARK    3  A    between atoms: C_14  and  C_15
REMARK    4  A    between atoms: C_15  and  C_16
REMARK    5  A    between atoms: C_23  and  C_26
REMARK    6  A    between atoms: C_35  and  O_38
REMARK                            x       y       z     vdW  Elec       q    Type
REMARK                         _______ _______ _______ _____ _____    ______ ____
ROOT
ATOM      1  C   UNL     1       0.271   1.521   0.280  0.00  0.00    +0.044 C 
ATOM      2  C   UNL     1       0.224   0.015   0.225  0.00  0.00    -0.049 A 
ATOM      3  C   UNL     1       0.102  -0.638  -0.993  0.00  0.00    +0.005 A 
ATOM      4  C   UNL     1       0.057  -2.006  -1.070  0.00  0.00    +0.029 A 
ATOM      5  C   UNL     1       0.134  -2.798   0.099  0.00  0.00    +0.080 A 
ATOM      6  C   UNL     1       0.257  -2.098   1.321  0.00  0.00    +0.041 A 
ATOM      7  C   UNL     1       0.308  -0.728   1.388  0.00  0.00    +0.020 A 
ATOM      8  S   UNL     1       0.321  -3.418   2.508  0.00  0.00    -0.052 S 
ATOM      9  C   UNL     1       0.185  -4.771   1.348  0.00  0.00    +0.169 A 
ATOM     10  N   UNL     1       0.104  -4.145   0.196  0.00  0.00    -0.224 NA
ATOM     11  N   UNL     1       0.169  -6.131   1.599  0.00  0.00    -0.232 N 
ATOM     12  C   UNL     1       0.059  -7.194   0.592  0.00  0.00    +0.152 C 
ATOM     13  C   UNL     1       0.086  -8.499   1.353  0.00  0.00    +0.077 C 
ATOM     14  C   UNL     1       0.201  -8.184   2.665  0.00  0.00    +0.250 C 
ATOM     15  O   UNL     1       0.259  -9.073   3.683  0.00  0.00    -0.282 OA
ATOM     16  C   UNL     1       0.256  -6.715   2.808  0.00  0.00    +0.293 C 
ATOM     17  O   UNL     1       0.363  -6.120   3.862  0.00  0.00    -0.266 OA
ENDROOT
BRANCH  12  18
ATOM     18  C   UNL     1      -1.238  -7.061  -0.163  0.00  0.00    -0.022 A 
ATOM     19  C   UNL     1      -2.414  -6.819   0.523  0.00  0.00    +0.009 A 
ATOM     20  C   UNL     1      -3.605  -6.697  -0.167  0.00  0.00    +0.046 A 
ATOM     21  C   UNL     1      -3.620  -6.818  -1.548  0.00  0.00    +0.117 A 
ATOM     22  C   UNL     1      -2.439  -7.061  -2.234  0.00  0.00    +0.046 A 
ATOM     23  C   UNL     1      -1.250  -7.176  -1.540  0.00  0.00    +0.009 A 
BRANCH  21  24
ATOM     24  O   UNL     1      -4.790  -6.699  -2.229  0.00  0.00    -0.507 OA
ATOM     25  H   UNL     1      -4.996  -5.795  -2.504  0.00  0.00    +0.292 HD
ENDBRANCH  21  24
ENDBRANCH  12  18
BRANCH  13  26
ATOM     26  C   UNL     1       0.005  -9.847   0.782  0.00  0.00    +0.195 C 
ATOM     27  O   UNL     1      -0.960 -10.550   1.018  0.00  0.00    -0.287 OA
BRANCH  26  28
ATOM     28  C   UNL     1       1.093 -10.350  -0.080  0.00  0.00    +0.023 A 
ATOM     29  C   UNL     1       2.259  -9.598  -0.254  0.00  0.00    +0.015 A 
ATOM     30  C   UNL     1       3.272 -10.070  -1.054  0.00  0.00    +0.046 A 
ATOM     31  C   UNL     1       3.148 -11.302  -1.700  0.00  0.00    +0.124 A 
ATOM     32  C   UNL     1       1.982 -12.042  -1.528  0.00  0.00    -0.002 A 
ATOM     33  C   UNL     1       0.968 -11.586  -0.724  0.00  0.00    +0.019 A 
ATOM     34  C   UNL     1       2.130 -13.302  -2.361  0.00  0.00    +0.083 C 
ATOM     35  C   UNL     1       3.319 -12.938  -3.281  0.00  0.00    +0.175 C 
ATOM     36  O   UNL     1       4.025 -11.948  -2.514  0.00  0.00    -0.488 OA
ATOM     37  C   UNL     1       4.201 -14.162  -3.536  0.00  0.00    +0.052 C 
ENDBRANCH  26  28
ENDBRANCH  13  26
TORSDOF 4
