REMARK  Name = ZINC04520883
REMARK  7 active torsions:
REMARK  status: ('A' for Active; 'I' for Inactive)
REMARK    1  A    between atoms: C_1  and  C_2
REMARK    2  A    between atoms: C_5  and  O_8
REMARK    3  A    between atoms: O_8  and  C_9
REMARK    4  A    between atoms: C_9  and  C_10
REMARK    5  A    between atoms: N_12  and  N_13
REMARK    6  A    between atoms: N_13  and  C_14
REMARK    7  A    between atoms: C_16  and  C_20
REMARK                            x       y       z     vdW  Elec       q    Type
REMARK                         _______ _______ _______ _____ _____    ______ ____
ROOT
ATOM      1  N   UNL     1       0.044  -8.490   1.921  0.00  0.00    -0.269 N 
ATOM      2  H   UNL     1       0.051  -8.859   1.024  0.00  0.00    +0.169 HD
ENDROOT
BRANCH   1   3
ATOM      3  C   UNL     1      -0.057  -9.305   2.980  0.00  0.00    +0.119 C 
ATOM      4  C   UNL     1      -0.046 -10.692   2.798  0.00  0.00    +0.130 C 
ATOM      5  C   UNL     1      -0.043 -11.402   1.567  0.00  0.00    +0.123 C 
ATOM      6  N   UNL     1      -0.031 -12.687   1.900  0.00  0.00    -0.127 NA
ATOM      7  N   UNL     1      -0.028 -12.795   3.180  0.00  0.00    -0.042 NA
ATOM      8  N   UNL     1      -0.030 -11.644   3.753  0.00  0.00    -0.126 NA
BRANCH   5   9
ATOM      9  C   UNL     1      -0.051 -10.830   0.202  0.00  0.00    +0.004 A 
ATOM     10  C   UNL     1       1.148 -10.646  -0.488  0.00  0.00    +0.010 A 
ATOM     11  C   UNL     1       1.133 -10.113  -1.760  0.00  0.00    +0.001 A 
ATOM     12  C   UNL     1      -0.066  -9.759  -2.351  0.00  0.00    +0.000 A 
ATOM     13  C   UNL     1      -1.258  -9.938  -1.672  0.00  0.00    +0.001 A 
ATOM     14  C   UNL     1      -1.258 -10.477  -0.402  0.00  0.00    +0.010 A 
ENDBRANCH   5   9
ENDBRANCH   1   3
BRANCH   1  17
ATOM     15  C   UNL     1       0.138  -6.278   1.045  0.00  0.00    +0.267 C 
ATOM     16  O   UNL     1       0.148  -6.735  -0.078  0.00  0.00    -0.271 OA
ATOM     17  N   UNL     1       0.139  -7.105   2.110  0.00  0.00    -0.234 N 
ATOM     18  H   UNL     1       0.206  -6.741   3.006  0.00  0.00    +0.173 HD
BRANCH  15  19
ATOM     19  C   UNL     1       0.126  -4.785   1.251  0.00  0.00    +0.326 C 
BRANCH  19  20
ATOM     20  O   UNL     1       0.127  -4.130  -0.018  0.00  0.00    -0.483 OA
BRANCH  20  25
ATOM     21  C   UNL     1       0.080   1.503   0.013  0.00  0.00    +0.044 C 
ATOM     22  C   UNL     1       0.093  -0.004   0.004  0.00  0.00    -0.050 A 
ATOM     23  C   UNL     1       0.106  -0.688  -1.198  0.00  0.00    +0.007 A 
ATOM     24  C   UNL     1       0.117  -2.069  -1.208  0.00  0.00    +0.046 A 
ATOM     25  C   UNL     1       0.116  -2.771  -0.011  0.00  0.00    +0.121 A 
ATOM     26  C   UNL     1       0.104  -2.083   1.194  0.00  0.00    +0.046 A 
ATOM     27  C   UNL     1       0.098  -0.701   1.199  0.00  0.00    +0.007 A 
ENDBRANCH  20  25
ENDBRANCH  19  20
ENDBRANCH  15  19
ENDBRANCH   1  17
TORSDOF 6
