REMARK  Name = ZINC46406143
REMARK  5 active torsions:
REMARK  status: ('A' for Active; 'I' for Inactive)
REMARK    1  A    between atoms: C_1  and  C_2
REMARK    2  A    between atoms: C_2  and  C_9
REMARK    3  A    between atoms: C_12  and  N_15
REMARK    4  A    between atoms: N_15  and  S_16
REMARK    5  A    between atoms: S_16  and  C_19
REMARK                            x       y       z     vdW  Elec       q    Type
REMARK                         _______ _______ _______ _____ _____    ______ ____
ROOT
ATOM      1  C   UNL     1       0.657  -0.517  -1.255  0.00  0.00    -0.015 A 
ATOM      2  C   UNL     1       1.778  -1.322  -1.169  0.00  0.00    +0.008 A 
ATOM      3  C   UNL     1       2.381  -1.794  -2.319  0.00  0.00    +0.027 A 
ATOM      4  C   UNL     1       1.859  -1.459  -3.562  0.00  0.00    +0.074 A 
ATOM      5  C   UNL     1       0.733  -0.650  -3.644  0.00  0.00    +0.027 A 
ATOM      6  C   UNL     1       0.132  -0.186  -2.490  0.00  0.00    +0.008 A 
ENDROOT
BRANCH   1   8
ATOM      7  C   UNL     1      -0.019   1.526   0.010  0.00  0.00    +0.047 C 
ATOM      8  C   UNL     1       0.002  -0.004   0.002  0.00  0.00    +0.135 C 
ATOM      9  C   UNL     1      -1.403  -0.557   0.139  0.00  0.00    +0.248 C 
ATOM     10  O   UNL     1      -2.332  -0.392  -0.621  0.00  0.00    -0.273 OA
ATOM     11  N   UNL     1      -1.403  -1.272   1.282  0.00  0.00    -0.238 N 
ATOM     12  C   UNL     1      -0.206  -1.247   1.879  0.00  0.00    +0.307 C 
ATOM     13  O   UNL     1       0.040  -1.819   2.924  0.00  0.00    -0.252 OA
ATOM     14  N   UNL     1       0.695  -0.520   1.195  0.00  0.00    -0.282 N 
ATOM     15  H   UNL     1      -2.175  -1.745   1.629  0.00  0.00    +0.159 HD
ATOM     16  H   UNL     1       1.621  -0.365   1.440  0.00  0.00    +0.152 HD
ENDBRANCH   1   8
BRANCH   4  17
ATOM     17  N   UNL     1       2.467  -1.934  -4.727  0.00  0.00    -0.098 NA
BRANCH  17  18
ATOM     18  S   UNL     1       1.844  -1.533  -6.208  0.00  0.00    +0.094 S 
ATOM     19  O   UNL     1       0.567  -2.152  -6.292  0.00  0.00    -0.148 OA
ATOM     20  O   UNL     1       2.022  -0.131  -6.358  0.00  0.00    -0.148 OA
BRANCH  18  21
ATOM     21  C   UNL     1       2.858  -2.303  -7.425  0.00  0.00    +0.148 A 
ATOM     22  C   UNL     1       2.332  -3.285  -8.243  0.00  0.00    +0.070 A 
ATOM     23  C   UNL     1       3.129  -3.889  -9.200  0.00  0.00    +0.125 A 
ATOM     24  C   UNL     1       4.454  -3.511  -9.338  0.00  0.00    +0.041 A 
ATOM     25  C   UNL     1       4.980  -2.529  -8.520  0.00  0.00    +0.043 A 
ATOM     26  C   UNL     1       4.181  -1.921  -7.566  0.00  0.00    +0.150 A 
ATOM     27  F   UNL     1       4.695  -0.958  -6.770  0.00  0.00    -0.203 F 
ATOM     28  F   UNL     1       2.614  -4.849 -10.000  0.00  0.00    -0.205 F 
ENDBRANCH  18  21
ENDBRANCH  17  18
ENDBRANCH   4  17
TORSDOF 4
