REMARK  Name = ZINC08922185
REMARK  5 active torsions:
REMARK  status: ('A' for Active; 'I' for Inactive)
REMARK    1  A    between atoms: C_1  and  C_2
REMARK    2  A    between atoms: C_2  and  C_4
REMARK    3  A    between atoms: C_2  and  N_13
REMARK    4  A    between atoms: C_14  and  C_16
REMARK    5  A    between atoms: C_16  and  N_17
REMARK                            x       y       z     vdW  Elec       q    Type
REMARK                         _______ _______ _______ _____ _____    ______ ____
ROOT
ATOM      1  N   UNL     1       0.135   7.279  -1.632  0.00  0.00    -0.304 N 
ATOM      2  C   UNL     1       0.074   5.955  -1.391  0.00  0.00    +0.234 C 
ATOM      3  O   UNL     1       0.027   5.172  -2.316  0.00  0.00    -0.274 OA
ATOM      4  H   UNL     1       0.173   7.906  -0.892  0.00  0.00    +0.149 HD
ENDROOT
BRANCH   1   6
ATOM      5  C   UNL     1      -1.293   7.896  -3.519  0.00  0.00    +0.036 C 
ATOM      6  C   UNL     1       0.145   7.773  -3.011  0.00  0.00    +0.136 C 
BRANCH   6   7
ATOM      7  C   UNL     1       0.811   9.124  -3.056  0.00  0.00    +0.126 A 
ATOM      8  C   UNL     1       1.649   9.535  -4.017  0.00  0.00    +0.055 A 
ATOM      9  C   UNL     1       2.049  10.900  -3.657  0.00  0.00    +0.020 A 
ATOM     10  C   UNL     1       2.884  11.856  -4.232  0.00  0.00    +0.011 A 
ATOM     11  C   UNL     1       3.045  13.070  -3.625  0.00  0.00    +0.001 A 
ATOM     12  C   UNL     1       2.384  13.356  -2.439  0.00  0.00    +0.004 A 
ATOM     13  C   UNL     1       1.554  12.423  -1.855  0.00  0.00    +0.047 A 
ATOM     14  C   UNL     1       1.376  11.183  -2.456  0.00  0.00    +0.135 A 
ATOM     15  O   UNL     1       0.646  10.095  -2.140  0.00  0.00    -0.458 OA
ENDBRANCH   6   7
ENDBRANCH   1   6
BRANCH   2  16
ATOM     16  C   UNL     1       0.063   5.447   0.028  0.00  0.00    +0.222 C 
BRANCH  16  17
ATOM     17  N   UNL     1      -0.007   3.983   0.022  0.00  0.00    -0.285 N 
ATOM     18  C   UNL     1      -1.244   3.355   0.031  0.00  0.00    +0.059 A 
ATOM     19  C   UNL     1      -2.426   4.080   0.046  0.00  0.00    +0.027 A 
ATOM     20  C   UNL     1      -3.637   3.416   0.055  0.00  0.00    +0.002 A 
ATOM     21  C   UNL     1      -3.683   2.030   0.049  0.00  0.00    +0.001 A 
ATOM     22  C   UNL     1      -2.518   1.293   0.033  0.00  0.00    +0.015 A 
ATOM     23  C   UNL     1      -1.290   1.950   0.019  0.00  0.00    +0.063 A 
ATOM     24  C   UNL     1      -0.014   1.212   0.009  0.00  0.00    +0.262 A 
ATOM     25  O   UNL     1       0.002  -0.004   0.002  0.00  0.00    -0.267 OA
ATOM     26  N   UNL     1       1.135   1.920   0.002  0.00  0.00    -0.274 N 
ATOM     27  H   UNL     1       2.010   1.436  -0.009  0.00  0.00    +0.173 HD
ATOM     28  C   UNL     1       1.127   3.262   0.008  0.00  0.00    +0.330 A 
ATOM     29  O   UNL     1       2.191   3.851   0.001  0.00  0.00    -0.246 OA
ENDBRANCH  16  17
ENDBRANCH   2  16
TORSDOF 4
