REMARK  Name = ZINC46587247
REMARK  8 active torsions:
REMARK  status: ('A' for Active; 'I' for Inactive)
REMARK    1  A    between atoms: C_1  and  C_2
REMARK    2  A    between atoms: C_2  and  C_4
REMARK    3  A    between atoms: C_2  and  N_12
REMARK    4  A    between atoms: N_12  and  C_13
REMARK    5  A    between atoms: N_12  and  C_14
REMARK    6  A    between atoms: C_14  and  C_15
REMARK    7  A    between atoms: N_20  and  C_21
REMARK    8  A    between atoms: C_21  and  C_22
REMARK                            x       y       z     vdW  Elec       q    Type
REMARK                         _______ _______ _______ _____ _____    ______ ____
ROOT
ATOM      1  C   UNL     1       0.710  -1.947  -1.215  0.00  0.00    +0.019 C 
ENDROOT
BRANCH   1   2
ATOM      2  C   UNL     1       1.304  -2.434  -2.511  0.00  0.00    +0.204 C 
ATOM      3  O   UNL     1       1.675  -1.636  -3.345  0.00  0.00    -0.277 OA
ATOM      4  N   UNL     1       1.424  -3.756  -2.742  0.00  0.00    -0.242 N 
ATOM      5  C   UNL     1       1.956  -4.192  -3.901  0.00  0.00    +0.306 C 
ATOM      6  O   UNL     1       2.328  -3.392  -4.738  0.00  0.00    -0.252 OA
ATOM      7  N   UNL     1       2.076  -5.514  -4.133  0.00  0.00    -0.291 N 
ATOM      8  H   UNL     1       1.128  -4.394  -2.075  0.00  0.00    +0.159 HD
ATOM      9  H   UNL     1       1.780  -6.152  -3.465  0.00  0.00    +0.151 HD
BRANCH   7  10
ATOM     10  C   UNL     1       2.655  -5.988  -5.393  0.00  0.00    +0.219 C 
BRANCH  10  11
ATOM     11  C   UNL     1       2.675  -7.518  -5.401  0.00  0.00    +0.405 C 
ATOM     12  F   UNL     1       1.369  -8.002  -5.276  0.00  0.00    -0.169 F 
ATOM     13  F   UNL     1       3.228  -7.970  -6.604  0.00  0.00    -0.169 F 
ATOM     14  F   UNL     1       3.449  -7.979  -4.330  0.00  0.00    -0.169 F 
ENDBRANCH  10  11
ENDBRANCH   7  10
ENDBRANCH   1   2
BRANCH   1  15
ATOM     15  N   UNL     1       0.690  -0.478  -1.207  0.00  0.00    +0.388 N 
ATOM     16  C   UNL     1       2.068   0.031  -1.217  0.00  0.00    -0.095 C 
ATOM     17  H   UNL     1       0.202  -0.144  -2.024  0.00  0.00    -0.081 HD
BRANCH  15  19
ATOM     18  C   UNL     1      -0.019   1.526   0.010  0.00  0.00    -0.008 C 
ATOM     19  C   UNL     1       0.002  -0.004   0.002  0.00  0.00    -0.039 C 
BRANCH  19  20
ATOM     20  C   UNL     1      -1.412  -0.526   0.013  0.00  0.00    -0.043 A 
ATOM     21  C   UNL     1      -1.997  -0.959  -1.162  0.00  0.00    +0.005 A 
ATOM     22  C   UNL     1      -3.294  -1.437  -1.153  0.00  0.00    +0.020 A 
ATOM     23  C   UNL     1      -4.006  -1.484   0.032  0.00  0.00    +0.042 A 
ATOM     24  C   UNL     1      -3.421  -1.051   1.208  0.00  0.00    +0.040 A 
ATOM     25  C   UNL     1      -2.121  -0.576   1.199  0.00  0.00    +0.044 A 
ATOM     26 CL   UNL     1      -1.383  -0.038   2.676  0.00  0.00    -0.083 Cl
ATOM     27 CL   UNL     1      -5.635  -2.084   0.043  0.00  0.00    -0.083 Cl
ENDBRANCH  19  20
ENDBRANCH  15  19
ENDBRANCH   1  15
TORSDOF 6
