REMARK  Name = ZINC56384220
REMARK  5 active torsions:
REMARK  status: ('A' for Active; 'I' for Inactive)
REMARK    1  A    between atoms: C_1  and  C_2
REMARK    2  A    between atoms: C_2  and  C_4
REMARK    3  A    between atoms: C_2  and  N_12
REMARK    4  A    between atoms: N_12  and  C_13
REMARK    5  A    between atoms: N_16  and  C_17
REMARK                            x       y       z     vdW  Elec       q    Type
REMARK                         _______ _______ _______ _____ _____    ______ ____
ROOT
ATOM      1  N   UNL     1       0.799  -0.370   1.175  0.00  0.00    -0.282 N 
ATOM      2  C   UNL     1       2.127   0.217   1.370  0.00  0.00    +0.134 C 
ATOM      3  C   UNL     1       0.310  -1.244   2.076  0.00  0.00    +0.303 C 
ATOM      4  O   UNL     1      -0.792  -1.732   1.914  0.00  0.00    -0.253 OA
ATOM      5  N   UNL     1       1.042  -1.578   3.157  0.00  0.00    -0.292 N 
ATOM      6  H   UNL     1       1.921  -1.190   3.287  0.00  0.00    +0.151 HD
ENDROOT
BRANCH   5   7
ATOM      7  C   UNL     1       0.510  -2.529   4.137  0.00  0.00    +0.105 C 
ATOM      8  C   UNL     1       1.663  -3.198   4.915  0.00  0.00    +0.032 C 
ATOM      9  C   UNL     1       1.054  -3.375   6.322  0.00  0.00    +0.037 C 
ATOM     10  C   UNL     1       0.007  -2.288   6.441  0.00  0.00    -0.042 A 
ATOM     11  C   UNL     1      -0.307  -1.802   5.183  0.00  0.00    -0.024 A 
ATOM     12  C   UNL     1      -1.250  -0.797   5.047  0.00  0.00    +0.006 A 
ATOM     13  C   UNL     1      -1.879  -0.278   6.162  0.00  0.00    +0.000 A 
ATOM     14  C   UNL     1      -1.567  -0.762   7.418  0.00  0.00    +0.000 A 
ATOM     15  C   UNL     1      -0.622  -1.766   7.558  0.00  0.00    +0.004 A 
ENDBRANCH   5   7
BRANCH   1  17
ATOM     16  C   UNL     1      -0.158   1.514  -0.057  0.00  0.00    +0.033 C 
ATOM     17  C   UNL     1       0.004  -0.007  -0.000  0.00  0.00    +0.107 C 
BRANCH  17  18
ATOM     18  C   UNL     1       0.703  -0.484  -1.247  0.00  0.00    +0.011 A 
ATOM     19  C   UNL     1       1.377   0.417  -2.049  0.00  0.00    +0.046 A 
ATOM     20  C   UNL     1       2.019  -0.021  -3.195  0.00  0.00    +0.124 A 
ATOM     21  C   UNL     1       1.986  -1.363  -3.536  0.00  0.00    +0.041 A 
ATOM     22  C   UNL     1       1.312  -2.264  -2.735  0.00  0.00    +0.041 A 
ATOM     23  C   UNL     1       0.674  -1.826  -1.586  0.00  0.00    +0.128 A 
ATOM     24  F   UNL     1       0.019  -2.708  -0.799  0.00  0.00    -0.205 F 
ATOM     25  F   UNL     1       2.678   0.860  -3.979  0.00  0.00    -0.205 F 
ENDBRANCH  17  18
ENDBRANCH   1  17
TORSDOF 3
