REMARK  Name = ZINC05641746
REMARK  6 active torsions:
REMARK  status: ('A' for Active; 'I' for Inactive)
REMARK    1  A    between atoms: N_3  and  C1*_14
REMARK    2  A    between atoms: C_4  and  C_8
REMARK    3  A    between atoms: C2*_16  and  O2*_26
REMARK    4  A    between atoms: C3*_18  and  O3*_25
REMARK    5  A    between atoms: C4*_20  and  C5*_23
REMARK    6  A    between atoms: C5*_23  and  O5*_24
REMARK                            x       y       z     vdW  Elec       q    Type
REMARK                         _______ _______ _______ _____ _____    ______ ____
ROOT
ATOM      1  C   UNL     1       2.936   3.147  -0.780  0.00  0.00    +0.090 A 
ATOM      2  C   UNL     1       1.753   2.518  -0.967  0.00  0.00    +0.095 A 
ATOM      3  N   UNL     1       1.445   1.441  -0.192  0.00  0.00    -0.305 N 
ATOM      4  C   UNL     1       2.300   1.007   0.752  0.00  0.00    +0.139 A 
ATOM      5  N   UNL     1       3.451   1.592   0.951  0.00  0.00    -0.194 NA
ATOM      6  C   UNL     1       3.814   2.660   0.219  0.00  0.00    +0.273 A 
ATOM      7  O   UNL     1       4.890   3.205   0.414  0.00  0.00    -0.266 OA
ENDROOT
BRANCH   4   8
ATOM      8  C   UNL     1       1.924  -0.183   1.596  0.00  0.00    +0.169 C 
ATOM      9  S   UNL     1       2.124   0.229   3.353  0.00  0.00    -0.139 S 
ATOM     10  C   UNL     1       1.756  -1.330   4.205  0.00  0.00    +0.071 C 
ATOM     11  C   UNL     1       2.765  -2.398   3.797  0.00  0.00    +0.021 C 
ATOM     12  C   UNL     1       2.510  -2.868   2.370  0.00  0.00    +0.071 C 
ATOM     13  S   UNL     1       3.011  -1.582   1.193  0.00  0.00    -0.139 S 
ENDBRANCH   4   8
BRANCH   3  14
ATOM     14  C1* UNL     1       0.167   0.751  -0.384  0.00  0.00    +0.252 C 
ATOM     15  C2* UNL     1      -0.872   1.281   0.624  0.00  0.00    +0.195 C 
ATOM     16  C3* UNL     1      -1.974   1.910  -0.267  0.00  0.00    +0.178 C 
ATOM     17  C4* UNL     1      -1.215   2.161  -1.595  0.00  0.00    +0.177 C 
ATOM     18  O4* UNL     1      -0.339   1.018  -1.703  0.00  0.00    -0.346 OA
BRANCH  16  19
ATOM     19  O3* UNL     1      -3.057   0.997  -0.463  0.00  0.00    -0.386 OA
ATOM     20  H3* UNL     1      -3.728   1.311  -1.084  0.00  0.00    +0.210 HD
ENDBRANCH  16  19
BRANCH  15  21
ATOM     21  O2* UNL     1      -0.285   2.271   1.472  0.00  0.00    -0.385 OA
ATOM     22  H2* UNL     1      -0.895   2.639   2.127  0.00  0.00    +0.210 HD
ENDBRANCH  15  21
BRANCH  17  23
ATOM     23  C5* UNL     1      -2.191   2.205  -2.773  0.00  0.00    +0.190 C 
BRANCH  23  24
ATOM     24  O5* UNL     1      -1.468   2.449  -3.981  0.00  0.00    -0.392 OA
ATOM     25  H5* UNL     1      -2.024   2.490  -4.771  0.00  0.00    +0.210 HD
ENDBRANCH  23  24
ENDBRANCH  17  23
ENDBRANCH   3  14
TORSDOF 6
