REMARK  Name = ZINC03442073
REMARK  4 active torsions:
REMARK  status: ('A' for Active; 'I' for Inactive)
REMARK    1  A    between atoms: C_10  and  N_12
REMARK    2  A    between atoms: N_12  and  S_13
REMARK    3  A    between atoms: S_13  and  C_16
REMARK    4  A    between atoms: C_21  and  C_22
REMARK                            x       y       z     vdW  Elec       q    Type
REMARK                         _______ _______ _______ _____ _____    ______ ____
ROOT
ATOM      1  N   UNL     1       3.336   2.390   0.801  0.00  0.00    -0.183 NA
ATOM      2  H   UNL     1       3.072   2.384   1.734  0.00  0.00    +0.149 HD
ENDROOT
BRANCH   1  12
ATOM      3  C   UNL     1      -1.312   3.851   0.033  0.00  0.00    +0.000 A 
ATOM      4  C   UNL     1      -0.123   4.549   0.135  0.00  0.00    +0.000 A 
ATOM      5  C   UNL     1       1.077   3.873   0.055  0.00  0.00    +0.005 A 
ATOM      6  C   UNL     1       1.101   2.496  -0.129  0.00  0.00    -0.026 A 
ATOM      7  C   UNL     1      -0.084   1.801  -0.226  0.00  0.00    -0.043 A 
ATOM      8  C   UNL     1      -1.291   2.483  -0.141  0.00  0.00    +0.004 A 
ATOM      9  C   UNL     1      -0.134   0.308  -0.419  0.00  0.00    +0.035 C 
ATOM     10  C   UNL     1       1.213  -0.216  -0.912  0.00  0.00    +0.007 C 
ATOM     11  C   UNL     1       2.309   0.319   0.017  0.00  0.00    +0.025 C 
ATOM     12  C   UNL     1       2.446   1.823  -0.215  0.00  0.00    +0.107 C 
ENDBRANCH   1  12
BRANCH   1  13
ATOM     13  S   UNL     1       4.793   3.039   0.356  0.00  0.00    +0.060 S 
ATOM     14  O   UNL     1       4.532   3.913  -0.734  0.00  0.00    -0.153 OA
ATOM     15  O   UNL     1       5.423   3.479   1.551  0.00  0.00    -0.153 OA
BRANCH  13  16
ATOM     16  C   UNL     1       5.778   1.723  -0.279  0.00  0.00    +0.123 A 
ATOM     17  C   UNL     1       6.166   1.726  -1.603  0.00  0.00    +0.030 A 
ATOM     18  C   UNL     1       6.943   0.696  -2.101  0.00  0.00    +0.002 A 
ATOM     19  C   UNL     1       7.328  -0.349  -1.280  0.00  0.00    +0.001 A 
ATOM     20  C   UNL     1       6.943  -0.367   0.044  0.00  0.00    +0.021 A 
ATOM     21  C   UNL     1       6.162   0.672   0.556  0.00  0.00    +0.078 A 
BRANCH  21  22
ATOM     22  C   UNL     1       5.758   0.659   1.929  0.00  0.00    +0.101 C 
ATOM     23  N   UNL     1       5.437   0.649   3.019  0.00  0.00    -0.191 NA
ENDBRANCH  21  22
ENDBRANCH  13  16
ENDBRANCH   1  13
TORSDOF 4
