REMARK  Name = ZINC55119357
REMARK  10 active torsions:
REMARK  status: ('A' for Active; 'I' for Inactive)
REMARK    1  A    between atoms: C_1  and  C_2
REMARK    2  A    between atoms: C_2  and  C_3
REMARK    3  A    between atoms: C_2  and  C_4
REMARK    4  A    between atoms: C_4  and  N_5
REMARK    5  A    between atoms: N_5  and  C_6
REMARK    6  A    between atoms: C_6  and  C_7
REMARK    7  A    between atoms: N_10  and  C_12
REMARK    8  A    between atoms: C_13  and  C_15
REMARK    9  A    between atoms: C_17  and  N_22
REMARK   10  A    between atoms: C_20  and  O_21
REMARK                            x       y       z     vdW  Elec       q    Type
REMARK                         _______ _______ _______ _____ _____    ______ ____
ROOT
ATOM      1  N   UNL     1       0.181  -0.259   2.450  0.00  0.00    -0.293 N 
ATOM      2  C   UNL     1       0.418   0.881   3.129  0.00  0.00    +0.250 C 
ATOM      3  O   UNL     1       1.145   1.732   2.653  0.00  0.00    -0.270 OA
ENDROOT
BRANCH   2   4
ATOM      4  C   UNL     1      -0.204   1.097   4.449  0.00  0.00    +0.080 A 
ATOM      5  C   UNL     1      -1.594   1.057   4.585  0.00  0.00    +0.042 A 
ATOM      6  C   UNL     1      -2.171   1.261   5.826  0.00  0.00    +0.047 A 
ATOM      7  C   UNL     1      -1.370   1.504   6.937  0.00  0.00    +0.030 A 
ATOM      8  C   UNL     1       0.003   1.546   6.811  0.00  0.00    +0.048 A 
ATOM      9  C   UNL     1       0.596   1.337   5.574  0.00  0.00    +0.129 A 
BRANCH   6  10
ATOM     10  N   UNL     1      -3.567   1.222   5.964  0.00  0.00    -0.323 N 
ATOM     11  C   UNL     1      -4.455   0.891   4.981  0.00  0.00    +0.091 A 
ATOM     12  C   UNL     1      -5.700   0.967   5.495  0.00  0.00    +0.019 A 
ATOM     13  C   UNL     1      -5.577   1.359   6.843  0.00  0.00    +0.019 A 
ATOM     14  C   UNL     1      -4.262   1.502   7.105  0.00  0.00    +0.091 A 
ENDBRANCH   6  10
BRANCH   9  15
ATOM     15  O   UNL     1       1.947   1.372   5.452  0.00  0.00    -0.506 OA
ATOM     16  H   UNL     1       2.302   2.251   5.258  0.00  0.00    +0.292 HD
ENDBRANCH   9  15
ENDBRANCH   2   4
BRANCH   1  17
ATOM     17  C   UNL     1       0.873  -0.515   1.185  0.00  0.00    +0.111 C 
BRANCH  17  19
ATOM     18  C   UNL     1      -0.223   1.429   0.061  0.00  0.00    +0.009 C 
ATOM     19  C   UNL     1      -0.020  -0.087   0.019  0.00  0.00    +0.000 C 
ATOM     20  C   UNL     1       0.645  -0.476  -1.303  0.00  0.00    +0.009 C 
ENDBRANCH  17  19
ENDBRANCH   1  17
BRANCH   1  21
ATOM     21  C   UNL     1      -0.769  -1.241   2.978  0.00  0.00    +0.146 C 
BRANCH  21  22
ATOM     22  C   UNL     1      -0.041  -2.218   3.866  0.00  0.00    +0.007 A 
ATOM     23  C   UNL     1       0.556  -3.415   3.456  0.00  0.00    +0.139 A 
ATOM     24  N   UNL     1       1.088  -3.986   4.506  0.00  0.00    -0.180 NA
ATOM     25  N   UNL     1       0.846  -3.169   5.619  0.00  0.00    -0.274 N 
ATOM     26  C   UNL     1       0.157  -2.088   5.198  0.00  0.00    +0.113 A 
ATOM     27  C   UNL     1       1.272  -3.439   6.994  0.00  0.00    +0.172 C 
ENDBRANCH  21  22
ENDBRANCH   1  21
TORSDOF 7
