REMARK  Name = ZINC06720175
REMARK  5 active torsions:
REMARK  status: ('A' for Active; 'I' for Inactive)
REMARK    1  A    between atoms: C_4  and  C_7
REMARK    2  A    between atoms: N_16  and  C_28
REMARK    3  A    between atoms: C_17  and  N_27
REMARK    4  A    between atoms: C_18  and  C_19
REMARK    5  A    between atoms: C_19  and  C_21
REMARK                            x       y       z     vdW  Elec       q    Type
REMARK                         _______ _______ _______ _____ _____    ______ ____
ROOT
ATOM      1  C   UNL     1      -2.745   1.421   0.217  0.00  0.00    +0.091 C 
ATOM      2  C   UNL     1      -3.560   2.541   0.818  0.00  0.00    +0.024 C 
ATOM      3  C   UNL     1      -3.273   3.831   0.546  0.00  0.00    +0.024 C 
ATOM      4  C   UNL     1      -4.108   4.950   1.121  0.00  0.00    +0.052 C 
ATOM      5  C   UNL     1      -4.660   4.529   2.486  0.00  0.00    +0.014 C 
ATOM      6  C   UNL     1      -5.490   3.255   2.302  0.00  0.00    +0.080 C 
ATOM      7  C   UNL     1      -4.632   2.199   1.662  0.00  0.00    +0.162 C 
ATOM      8  O   UNL     1      -4.869   1.027   1.878  0.00  0.00    -0.292 OA
ATOM      9  N   UNL     1      -2.217   4.161  -0.263  0.00  0.00    -0.261 N 
ATOM     10  C   UNL     1      -1.206   3.260  -0.495  0.00  0.00    +0.100 C 
ATOM     11  C   UNL     1      -1.417   1.921  -0.270  0.00  0.00    +0.048 C 
ENDROOT
BRANCH   1  15
ATOM     12  C   UNL     1      -4.888  -0.284  -3.061  0.00  0.00    +0.000 A 
ATOM     13  C   UNL     1      -4.555  -1.067  -1.971  0.00  0.00    +0.000 A 
ATOM     14  C   UNL     1      -3.862  -0.515  -0.910  0.00  0.00    +0.004 A 
ATOM     15  C   UNL     1      -3.501   0.819  -0.939  0.00  0.00    -0.035 A 
ATOM     16  C   UNL     1      -3.838   1.603  -2.027  0.00  0.00    +0.004 A 
ATOM     17  C   UNL     1      -4.527   1.050  -3.090  0.00  0.00    +0.000 A 
ENDBRANCH   1  15
BRANCH   9  18
ATOM     18  C   UNL     1      -2.167   5.427  -0.858  0.00  0.00    +0.040 A 
ATOM     19  C   UNL     1      -1.412   6.439  -0.279  0.00  0.00    +0.024 A 
ATOM     20  C   UNL     1      -1.362   7.685  -0.871  0.00  0.00    +0.002 A 
ATOM     21  C   UNL     1      -2.071   7.930  -2.033  0.00  0.00    +0.000 A 
ATOM     22  C   UNL     1      -2.827   6.926  -2.610  0.00  0.00    +0.002 A 
ATOM     23  C   UNL     1      -2.877   5.675  -2.025  0.00  0.00    +0.024 A 
ENDBRANCH   9  18
BRANCH  10  24
ATOM     24  N   UNL     1       0.010   3.696  -0.951  0.00  0.00    -0.346 N 
ATOM     25  H   UNL     1       0.702   3.054  -1.175  0.00  0.00    +0.143 HD
ATOM     26  H   UNL     1       0.178   4.646  -1.050  0.00  0.00    +0.143 HD
ENDBRANCH  10  24
BRANCH  11  27
ATOM     27  C   UNL     1      -0.378   1.008  -0.503  0.00  0.00    +0.193 C 
ATOM     28  O   UNL     1       0.075   0.875  -1.627  0.00  0.00    -0.287 OA
BRANCH  27  29
ATOM     29  C   UNL     1       0.165   0.202   0.614  0.00  0.00    +0.022 A 
ATOM     30  C   UNL     1      -0.275   0.428   1.919  0.00  0.00    +0.012 A 
ATOM     31  C   UNL     1       0.231  -0.330   2.955  0.00  0.00    +0.001 A 
ATOM     32  C   UNL     1       1.181  -1.304   2.704  0.00  0.00    +0.000 A 
ATOM     33  C   UNL     1       1.625  -1.529   1.413  0.00  0.00    +0.001 A 
ATOM     34  C   UNL     1       1.123  -0.781   0.368  0.00  0.00    +0.012 A 
ENDBRANCH  27  29
ENDBRANCH  11  27
TORSDOF 5
