REMARK  Name = ZINC02395284
REMARK  6 active torsions:
REMARK  status: ('A' for Active; 'I' for Inactive)
REMARK    1  A    between atoms: C_1  and  O_2
REMARK    2  A    between atoms: O_2  and  C_3
REMARK    3  A    between atoms: C_7  and  C_10
REMARK    4  A    between atoms: C_8  and  O_9
REMARK    5  A    between atoms: C_18  and  O_20
REMARK    6  A    between atoms: O_20  and  C_21
REMARK                            x       y       z     vdW  Elec       q    Type
REMARK                         _______ _______ _______ _____ _____    ______ ____
ROOT
ATOM      1  C   UNL     1       2.375  -4.385   1.465  0.00  0.00    +0.168 A 
ATOM      2  N   UNL     1       2.905  -4.910   2.555  0.00  0.00    -0.227 NA
ATOM      3  C   UNL     1       2.513  -6.116   2.985  0.00  0.00    +0.078 A 
ATOM      4  C   UNL     1       3.053  -6.704   4.138  0.00  0.00    +0.028 A 
ATOM      5  C   UNL     1       2.619  -7.934   4.533  0.00  0.00    +0.002 A 
ATOM      6  C   UNL     1       1.647  -8.618   3.809  0.00  0.00    +0.001 A 
ATOM      7  C   UNL     1       1.101  -8.077   2.683  0.00  0.00    +0.015 A 
ATOM      8  C   UNL     1       1.523  -6.815   2.249  0.00  0.00    +0.062 A 
ATOM      9  C   UNL     1       0.991  -6.203   1.089  0.00  0.00    +0.232 A 
ATOM     10  N   UNL     1       1.439  -5.006   0.749  0.00  0.00    -0.192 NA
ENDROOT
BRANCH   1  15
ATOM     11  C   UNL     1       3.154  -1.415  -0.721  0.00  0.00    +0.162 A 
ATOM     12  C   UNL     1       3.704  -0.543   0.204  0.00  0.00    +0.049 A 
ATOM     13  C   UNL     1       3.821  -0.916   1.531  0.00  0.00    +0.004 A 
ATOM     14  C   UNL     1       3.392  -2.160   1.945  0.00  0.00    +0.015 A 
ATOM     15  C   UNL     1       2.836  -3.048   1.024  0.00  0.00    +0.064 A 
ATOM     16  C   UNL     1       2.712  -2.670  -0.316  0.00  0.00    +0.169 A 
BRANCH  11  18
ATOM     17  C   UNL     1       3.516   0.260  -2.370  0.00  0.00    +0.277 C 
ATOM     18  O   UNL     1       3.041  -1.043  -2.025  0.00  0.00    -0.491 OA
ENDBRANCH  11  18
BRANCH  16  19
ATOM     19  O   UNL     1       2.166  -3.526  -1.219  0.00  0.00    -0.503 OA
ATOM     20  H   UNL     1       2.800  -4.146  -1.605  0.00  0.00    +0.292 HD
ENDBRANCH  16  19
ENDBRANCH   1  15
BRANCH   9  21
ATOM     21  O   UNL     1       0.044  -6.825   0.350  0.00  0.00    -0.437 OA
BRANCH  21  22
ATOM     22  C   UNL     1      -0.524  -6.133  -0.672  0.00  0.00    +0.130 A 
ATOM     23  C   UNL     1      -0.509  -4.745  -0.665  0.00  0.00    +0.048 A 
ATOM     24  C   UNL     1      -1.087  -4.043  -1.704  0.00  0.00    +0.023 A 
ATOM     25  C   UNL     1      -1.681  -4.723  -2.753  0.00  0.00    +0.041 A 
ATOM     26  C   UNL     1      -1.697  -6.107  -2.763  0.00  0.00    +0.023 A 
ATOM     27  C   UNL     1      -1.115  -6.812  -1.728  0.00  0.00    +0.048 A 
ATOM     28 CL   UNL     1      -2.408  -3.839  -4.058  0.00  0.00    -0.084 Cl
ENDBRANCH  21  22
ENDBRANCH   9  21
TORSDOF 5
