REMARK  Name = ZINC64066784
REMARK  7 active torsions:
REMARK  status: ('A' for Active; 'I' for Inactive)
REMARK    1  A    between atoms: C_1  and  C_2
REMARK    2  A    between atoms: C_3  and  C_13
REMARK    3  A    between atoms: C_5  and  C_8
REMARK    4  A    between atoms: C_13  and  N_14
REMARK    5  A    between atoms: C_18  and  C_21
REMARK    6  A    between atoms: C_21  and  N_22
REMARK    7  A    between atoms: C_23  and  C_25
REMARK                            x       y       z     vdW  Elec       q    Type
REMARK                         _______ _______ _______ _____ _____    ______ ____
ROOT
ATOM      1  N   UNL     1       1.463   0.785  -4.324  0.00  0.00    +0.383 N 
ATOM      2  C   UNL     1       1.746  -0.605  -3.944  0.00  0.00    -0.078 C 
ATOM      3  C   UNL     1       1.981  -1.443  -5.203  0.00  0.00    -0.018 C 
ATOM      4  C   UNL     1       3.173  -0.870  -5.975  0.00  0.00    +0.001 C 
ATOM      5  C   UNL     1       2.899   0.601  -6.301  0.00  0.00    -0.011 C 
ATOM      6  C   UNL     1       2.629   1.363  -5.002  0.00  0.00    -0.073 C 
ATOM      7  H   UNL     1       0.668   0.807  -4.945  0.00  0.00    -0.081 HD
ENDROOT
BRANCH   1   8
ATOM      8  C   UNL     1       1.161   1.568  -3.118  0.00  0.00    -0.025 C 
BRANCH   8  11
ATOM      9  C   UNL     1      -0.013   1.086   0.008  0.00  0.00    +0.044 C 
ATOM     10  C   UNL     1      -0.753   1.593  -1.232  0.00  0.00    +0.160 C 
ATOM     11  C   UNL     1      -0.107   1.052  -2.488  0.00  0.00    +0.029 C 
ATOM     12  N   UNL     1      -0.819   0.083  -2.927  0.00  0.00    -0.256 NA
ATOM     13  C   UNL     1      -1.972  -0.124  -2.044  0.00  0.00    +0.273 C 
ATOM     14  O   UNL     1      -2.099   1.077  -1.258  0.00  0.00    -0.342 OA
BRANCH  13  15
ATOM     15  C   UNL     1      -3.218  -0.344  -2.862  0.00  0.00    +0.040 A 
ATOM     16  C   UNL     1      -3.382  -1.083  -3.987  0.00  0.00    +0.016 A 
ATOM     17  C   UNL     1      -4.631  -1.141  -4.574  0.00  0.00    +0.008 A 
ATOM     18  C   UNL     1      -5.657  -0.458  -4.009  0.00  0.00    +0.045 A 
ATOM     19  S   UNL     1      -4.864   0.295  -2.597  0.00  0.00    -0.097 S 
ENDBRANCH  13  15
ENDBRANCH   8  11
ENDBRANCH   1   8
BRANCH   5  20
ATOM     20  C   UNL     1       4.116   1.204  -7.005  0.00  0.00    +0.106 C 
BRANCH  20  21
ATOM     21  N   UNL     1       4.304   0.549  -8.302  0.00  0.00    -0.313 N 
ATOM     22  C   UNL     1       5.322   0.920  -9.103  0.00  0.00    +0.239 C 
ATOM     23  O   UNL     1       6.083   1.796  -8.750  0.00  0.00    -0.273 OA
ATOM     24  H   UNL     1       3.696  -0.152  -8.584  0.00  0.00    +0.149 HD
BRANCH  22  25
ATOM     25  C   UNL     1       5.516   0.246 -10.437  0.00  0.00    +0.190 C 
ATOM     26  C   UNL     1       5.798  -1.226 -10.241  0.00  0.00    +0.016 C 
ATOM     27  C   UNL     1       7.024  -1.446 -10.768  0.00  0.00    -0.004 A 
ATOM     28  C   UNL     1       7.853  -2.652 -10.889  0.00  0.00    +0.010 A 
ATOM     29  C   UNL     1       9.066  -2.557 -11.480  0.00  0.00    +0.001 A 
ATOM     30  C   UNL     1       9.550  -1.340 -11.979  0.00  0.00    +0.002 A 
ATOM     31  C   UNL     1       8.846  -0.190 -11.906  0.00  0.00    +0.026 A 
ATOM     32  C   UNL     1       7.558  -0.173 -11.304  0.00  0.00    +0.043 A 
ATOM     33  N   UNL     1       6.694   0.797 -11.115  0.00  0.00    -0.370 N 
ATOM     34  H   UNL     1       6.815   1.722 -11.379  0.00  0.00    +0.161 HD
ENDBRANCH  22  25
ENDBRANCH  20  21
ENDBRANCH   5  20
TORSDOF 6
