REMARK  Name = ZINC05545986
REMARK  6 active torsions:
REMARK  status: ('A' for Active; 'I' for Inactive)
REMARK    1  A    between atoms: C_1  and  C_2
REMARK    2  A    between atoms: C_5  and  S_8
REMARK    3  A    between atoms: S_8  and  N_11
REMARK    4  A    between atoms: N_11  and  C_12
REMARK    5  A    between atoms: C_17  and  C_22
REMARK    6  A    between atoms: C_19  and  C_21
REMARK                            x       y       z     vdW  Elec       q    Type
REMARK                         _______ _______ _______ _____ _____    ______ ____
ROOT
ATOM      1  S   UNL     1      -0.573  -0.266  -3.188  0.00  0.00    +0.059 S 
ATOM      2  O   UNL     1       0.262  -0.441  -4.324  0.00  0.00    -0.153 OA
ATOM      3  O   UNL     1      -0.697  -1.255  -2.175  0.00  0.00    -0.153 OA
ENDROOT
BRANCH   1   8
ATOM      4  C   UNL     1      -6.138   0.766  -5.279  0.00  0.00    +0.044 C 
ATOM      5  C   UNL     1      -4.748   0.508  -4.757  0.00  0.00    -0.050 A 
ATOM      6  C   UNL     1      -3.650   0.782  -5.550  0.00  0.00    +0.005 A 
ATOM      7  C   UNL     1      -2.375   0.545  -5.071  0.00  0.00    +0.029 A 
ATOM      8  C   UNL     1      -2.198   0.035  -3.798  0.00  0.00    +0.105 A 
ATOM      9  C   UNL     1      -3.297  -0.243  -3.007  0.00  0.00    +0.029 A 
ATOM     10  C   UNL     1      -4.572  -0.003  -3.484  0.00  0.00    +0.005 A 
ENDBRANCH   1   8
BRANCH   1  11
ATOM     11  N   UNL     1      -0.067   1.120  -2.437  0.00  0.00    -0.187 NA
ATOM     12  H   UNL     1       0.683   1.619  -2.795  0.00  0.00    +0.148 HD
BRANCH  11  13
ATOM     13  C   UNL     1      -0.753   1.593  -1.232  0.00  0.00    +0.080 C 
ATOM     14  C   UNL     1      -0.013   1.086   0.008  0.00  0.00    +0.020 C 
ATOM     15  C   UNL     1      -0.729   1.579   1.267  0.00  0.00    +0.002 C 
ATOM     16  C   UNL     1      -0.750   3.109   1.275  0.00  0.00    +0.003 C 
ATOM     17  C   UNL     1      -1.490   3.616   0.036  0.00  0.00    -0.010 C 
ATOM     18  C   UNL     1      -0.773   3.123  -1.223  0.00  0.00    +0.007 C 
ATOM     19  C   UNL     1      -1.513   3.629  -2.463  0.00  0.00    +0.009 C 
ATOM     20  C   UNL     1      -1.510   5.146   0.044  0.00  0.00    +0.008 C 
ENDBRANCH  11  13
ENDBRANCH   1  11
TORSDOF 3
