REMARK  Name = ZINC11902847
REMARK  9 active torsions:
REMARK  status: ('A' for Active; 'I' for Inactive)
REMARK    1  A    between atoms: C_1  and  C_2
REMARK    2  A    between atoms: C_2  and  C_3
REMARK    3  A    between atoms: C_2  and  O_4
REMARK    4  A    between atoms: O_4  and  C_5
REMARK    5  A    between atoms: C_8  and  N_11
REMARK    6  A    between atoms: C_12  and  C_14
REMARK    7  A    between atoms: C_14  and  S_15
REMARK    8  A    between atoms: S_15  and  C_16
REMARK    9  A    between atoms: C_22  and  N_24
REMARK                            x       y       z     vdW  Elec       q    Type
REMARK                         _______ _______ _______ _____ _____    ______ ____
ROOT
ATOM      1  N   UNL     1       1.734  -2.009   0.636  0.00  0.00    -0.285 N 
ATOM      2  C   UNL     1       0.649  -2.803   0.546  0.00  0.00    +0.227 C 
ATOM      3  O   UNL     1      -0.454  -2.311   0.429  0.00  0.00    -0.275 OA
ATOM      4  H   UNL     1       2.608  -2.399   0.797  0.00  0.00    +0.155 HD
ENDROOT
BRANCH   1   8
ATOM      5  C   UNL     1       1.338   2.122   0.228  0.00  0.00    +0.121 A 
ATOM      6  C   UNL     1       0.342   1.389   0.857  0.00  0.00    +0.047 A 
ATOM      7  C   UNL     1       0.473   0.021   0.992  0.00  0.00    +0.027 A 
ATOM      8  C   UNL     1       1.601  -0.621   0.499  0.00  0.00    +0.034 A 
ATOM      9  C   UNL     1       2.597   0.114  -0.130  0.00  0.00    +0.027 A 
ATOM     10  C   UNL     1       2.465   1.482  -0.265  0.00  0.00    +0.047 A 
BRANCH   5  11
ATOM     11  O   UNL     1       1.208   3.469   0.095  0.00  0.00    -0.489 OA
BRANCH  11  13
ATOM     12  C   UNL     1       0.033   4.316   2.029  0.00  0.00    +0.051 C 
ATOM     13  C   UNL     1      -0.026   4.048   0.524  0.00  0.00    +0.167 C 
ATOM     14  C   UNL     1      -0.258   5.364  -0.220  0.00  0.00    +0.051 C 
ENDBRANCH  11  13
ENDBRANCH   5  11
ENDBRANCH   1   8
BRANCH   2  15
ATOM     15  C   UNL     1       0.805  -4.301   0.590  0.00  0.00    +0.173 C 
BRANCH  15  16
ATOM     16  S   UNL     1      -0.822  -5.081   0.446  0.00  0.00    -0.078 S 
BRANCH  16  17
ATOM     17  C   UNL     1      -0.355  -6.779   0.525  0.00  0.00    +0.171 A 
ATOM     18  N   UNL     1      -1.317  -7.740   0.449  0.00  0.00    -0.302 N 
ATOM     19  H   UNL     1      -2.249  -7.486   0.354  0.00  0.00    +0.171 HD
ATOM     20  C   UNL     1      -0.978  -9.044   0.507  0.00  0.00    +0.254 A 
ATOM     21  O   UNL     1      -1.834  -9.912   0.441  0.00  0.00    -0.268 OA
ATOM     22  C   UNL     1       0.371  -9.386   0.645  0.00  0.00    +0.113 A 
ATOM     23  C   UNL     1       1.313  -8.369   0.718  0.00  0.00    +0.124 A 
ATOM     24  N   UNL     1       0.918  -7.092   0.649  0.00  0.00    -0.209 NA
BRANCH  23  25
ATOM     25  N   UNL     1       2.652  -8.673   0.855  0.00  0.00    -0.343 N 
ATOM     26  H   UNL     1       2.937  -9.600   0.900  0.00  0.00    +0.144 HD
ATOM     27  H   UNL     1       3.309  -7.961   0.905  0.00  0.00    +0.144 HD
ENDBRANCH  23  25
ENDBRANCH  16  17
ENDBRANCH  15  16
ENDBRANCH   2  15
TORSDOF 7
