REMARK  Name = ZINC00907969
REMARK  3 active torsions:
REMARK  status: ('A' for Active; 'I' for Inactive)
REMARK    1  A    between atoms: C_4  and  S_7
REMARK    2  A    between atoms: S_7  and  N_10
REMARK    3  A    between atoms: N_10  and  N_11
REMARK                            x       y       z     vdW  Elec       q    Type
REMARK                         _______ _______ _______ _____ _____    ______ ____
ROOT
ATOM      1  N   UNL     1      -4.767   0.258  -2.285  0.00  0.00    -0.245 N 
ATOM      2  C   UNL     1      -5.192   0.429  -0.980  0.00  0.00    +0.145 A 
ATOM      3  C   UNL     1      -4.275   0.570   0.102  0.00  0.00    +0.052 A 
ATOM      4  C   UNL     1      -2.823   0.558   0.030  0.00  0.00    -0.025 A 
ATOM      5  C   UNL     1      -2.157   0.709   1.197  0.00  0.00    -0.004 A 
ATOM      6  S   UNL     1      -3.416   0.874   2.437  0.00  0.00    -0.073 S 
ATOM      7  C   UNL     1      -4.832   0.740   1.395  0.00  0.00    +0.114 A 
ATOM      8  N   UNL     1      -6.130   0.772   1.626  0.00  0.00    -0.228 NA
ATOM      9  C   UNL     1      -6.928   0.635   0.574  0.00  0.00    +0.224 A 
ATOM     10  N   UNL     1      -6.482   0.473  -0.656  0.00  0.00    -0.219 NA
ATOM     11  C   UNL     1      -0.669   0.730   1.400  0.00  0.00    +0.043 C 
ATOM     12  C   UNL     1      -0.001   0.185   0.130  0.00  0.00    +0.005 C 
ATOM     13  C   UNL     1      -0.625   0.873  -1.089  0.00  0.00    +0.005 C 
ATOM     14  C   UNL     1      -2.061   0.385  -1.281  0.00  0.00    +0.037 C 
ATOM     15  H   UNL     1      -3.847   0.012  -2.467  0.00  0.00    +0.169 HD
ENDROOT
BRANCH   1  16
ATOM     16  N   UNL     1      -5.666   0.440  -3.344  0.00  0.00    -0.109 NA
ATOM     17  H   UNL     1      -6.499  -0.057  -3.364  0.00  0.00    +0.172 HD
BRANCH  16  18
ATOM     18  S   UNL     1      -5.308   1.505  -4.560  0.00  0.00    +0.074 S 
ATOM     19  O   UNL     1      -6.327   1.360  -5.540  0.00  0.00    -0.152 OA
ATOM     20  O   UNL     1      -5.020   2.750  -3.939  0.00  0.00    -0.152 OA
BRANCH  18  24
ATOM     21  C   UNL     1      -1.458   0.098  -6.481  0.00  0.00    +0.000 A 
ATOM     22  C   UNL     1      -2.674  -0.355  -6.957  0.00  0.00    +0.002 A 
ATOM     23  C   UNL     1      -3.850   0.074  -6.371  0.00  0.00    +0.028 A 
ATOM     24  C   UNL     1      -3.810   0.957  -5.308  0.00  0.00    +0.107 A 
ATOM     25  C   UNL     1      -2.594   1.415  -4.835  0.00  0.00    +0.028 A 
ATOM     26  C   UNL     1      -1.418   0.981  -5.418  0.00  0.00    +0.002 A 
ENDBRANCH  18  24
ENDBRANCH  16  18
ENDBRANCH   1  16
TORSDOF 3
