REMARK  Name = ZINC62241771
REMARK  9 active torsions:
REMARK  status: ('A' for Active; 'I' for Inactive)
REMARK    1  A    between atoms: C_1  and  C_2
REMARK    2  A    between atoms: C_2  and  C_3
REMARK    3  A    between atoms: C_2  and  N_12
REMARK    4  A    between atoms: N_8  and  C_9
REMARK    5  A    between atoms: N_12  and  C_13
REMARK    6  A    between atoms: C_16  and  N_19
REMARK    7  A    between atoms: N_19  and  C_20
REMARK    8  A    between atoms: C_21  and  O_23
REMARK    9  A    between atoms: O_23  and  C_24
REMARK                            x       y       z     vdW  Elec       q    Type
REMARK                         _______ _______ _______ _____ _____    ______ ____
ROOT
ATOM      1  N   UNL     1       0.692  -0.481  -1.205  0.00  0.00    -0.333 N 
ATOM      2  H   UNL     1       1.627  -0.734  -1.163  0.00  0.00    +0.147 HD
ENDROOT
BRANCH   1   3
ATOM      3  C   UNL     1      -0.017  -0.616  -2.404  0.00  0.00    +0.028 A 
ATOM      4  C   UNL     1      -1.354  -0.248  -2.465  0.00  0.00    +0.025 A 
ATOM      5  C   UNL     1      -2.053  -0.382  -3.649  0.00  0.00    +0.025 A 
ATOM      6  C   UNL     1      -1.419  -0.884  -4.777  0.00  0.00    +0.039 A 
ATOM      7  C   UNL     1      -0.082  -1.252  -4.716  0.00  0.00    +0.025 A 
ATOM      8  C   UNL     1       0.619  -1.114  -3.534  0.00  0.00    +0.025 A 
BRANCH   6   9
ATOM      9  N   UNL     1      -2.129  -1.020  -5.978  0.00  0.00    -0.240 N 
ATOM     10  C   UNL     1      -1.790  -0.178  -7.129  0.00  0.00    +0.142 C 
ATOM     11  C   UNL     1      -3.123  -1.924  -6.075  0.00  0.00    +0.407 C 
ATOM     12  O   UNL     1      -3.466  -2.557  -5.096  0.00  0.00    -0.226 OA
BRANCH  11  13
ATOM     13  O   UNL     1      -3.737  -2.127  -7.256  0.00  0.00    -0.453 OA
ATOM     14  C   UNL     1      -4.782  -3.101  -7.285  0.00  0.00    +0.282 C 
ENDBRANCH  11  13
ENDBRANCH   6   9
ENDBRANCH   1   3
BRANCH   1  16
ATOM     15  C   UNL     1       0.059   1.573  -0.038  0.00  0.00    +0.038 C 
ATOM     16  C   UNL     1       0.021   0.044  -0.013  0.00  0.00    +0.154 C 
BRANCH  16  17
ATOM     17  C   UNL     1       0.727  -0.456   1.221  0.00  0.00    +0.240 C 
ATOM     18  O   UNL     1       1.694  -1.179   1.115  0.00  0.00    -0.273 OA
ATOM     19  N   UNL     1       0.282  -0.100   2.442  0.00  0.00    -0.239 N 
ATOM     20  C   UNL     1       0.913  -0.547   3.546  0.00  0.00    +0.306 C 
ATOM     21  O   UNL     1       1.883  -1.272   3.440  0.00  0.00    -0.252 OA
ATOM     22  N   UNL     1       0.468  -0.190   4.768  0.00  0.00    -0.296 N 
ATOM     23  H   UNL     1      -0.492   0.479   2.527  0.00  0.00    +0.159 HD
ATOM     24  H   UNL     1      -0.306   0.388   4.852  0.00  0.00    +0.151 HD
BRANCH  22  25
ATOM     25  C   UNL     1       1.154  -0.676   5.968  0.00  0.00    +0.075 C 
ATOM     26  C   UNL     1       0.286  -1.173   7.125  0.00  0.00    +0.024 C 
ATOM     27  C   UNL     1       1.026   0.160   7.242  0.00  0.00    +0.024 C 
ENDBRANCH  22  25
ENDBRANCH  16  17
ENDBRANCH   1  16
TORSDOF 6
