REMARK  Name = ZINC55242518
REMARK  7 active torsions:
REMARK  status: ('A' for Active; 'I' for Inactive)
REMARK    1  A    between atoms: C_1  and  C_2
REMARK    2  A    between atoms: C_7  and  C_8
REMARK    3  A    between atoms: C_10  and  C_13
REMARK    4  A    between atoms: C_13  and  N_14
REMARK    5  A    between atoms: N_14  and  C_15
REMARK    6  A    between atoms: C_15  and  C_16
REMARK    7  A    between atoms: C_21  and  C_22
REMARK                            x       y       z     vdW  Elec       q    Type
REMARK                         _______ _______ _______ _____ _____    ______ ____
ROOT
ATOM      1  N   UNL     1       1.376  -6.217  -2.313  0.00  0.00    +0.386 N 
ATOM      2  H   UNL     1       1.849  -5.450  -2.766  0.00  0.00    -0.085 HD
ATOM      3  H   UNL     1       1.824  -6.415  -1.431  0.00  0.00    -0.085 HD
ENDROOT
BRANCH   1   4
ATOM      4  C   UNL     1      -0.029  -5.857  -2.079  0.00  0.00    -0.007 C 
BRANCH   4  14
ATOM      5  C   UNL     1      -0.439   0.848   1.125  0.00  0.00    +0.044 C 
ATOM      6  C   UNL     1      -0.330  -0.642   0.924  0.00  0.00    -0.045 A 
ATOM      7  C   UNL     1      -0.333  -1.162  -0.353  0.00  0.00    +0.031 A 
ATOM      8  C   UNL     1      -0.233  -2.534  -0.537  0.00  0.00    +0.066 A 
ATOM      9  C   UNL     1      -0.130  -3.383   0.578  0.00  0.00    +0.089 A 
ATOM     10  C   UNL     1      -0.130  -2.833   1.863  0.00  0.00    +0.033 A 
ATOM     11  C   UNL     1      -0.223  -1.480   2.024  0.00  0.00    -0.045 A 
ATOM     12  C   UNL     1      -0.216  -0.892   3.412  0.00  0.00    +0.044 C 
ATOM     13  N   UNL     1      -0.049  -4.652   0.103  0.00  0.00    -0.234 NA
ATOM     14  C   UNL     1      -0.094  -4.636  -1.197  0.00  0.00    +0.091 A 
ATOM     15  N   UNL     1      -0.207  -3.356  -1.645  0.00  0.00    -0.343 N 
ATOM     16  H   UNL     1      -0.260  -3.074  -2.572  0.00  0.00    +0.167 HD
ENDBRANCH   4  14
ENDBRANCH   1   4
BRANCH   1  17
ATOM     17  C   UNL     1       1.439  -7.407  -3.172  0.00  0.00    -0.042 C 
BRANCH  17  18
ATOM     18  C   UNL     1       2.879  -7.787  -3.400  0.00  0.00    -0.019 A 
ATOM     19  C   UNL     1       3.596  -7.553  -4.521  0.00  0.00    +0.107 A 
ATOM     20  N   UNL     1       4.840  -8.043  -4.330  0.00  0.00    -0.284 N 
ATOM     21  H   UNL     1       5.567  -8.014  -4.971  0.00  0.00    +0.188 HD
ATOM     22  N   UNL     1       4.897  -8.600  -3.046  0.00  0.00    -0.174 NA
ATOM     23  C   UNL     1       3.720  -8.442  -2.479  0.00  0.00    +0.094 A 
BRANCH  23  24
ATOM     24  C   UNL     1       3.343  -8.882  -1.113  0.00  0.00    +0.002 A 
ATOM     25  C   UNL     1       4.216  -8.673  -0.046  0.00  0.00    +0.013 A 
ATOM     26  C   UNL     1       3.861  -9.083   1.223  0.00  0.00    +0.039 A 
ATOM     27  C   UNL     1       2.641  -9.702   1.437  0.00  0.00    +0.123 A 
ATOM     28  C   UNL     1       1.770  -9.912   0.380  0.00  0.00    +0.039 A 
ATOM     29  C   UNL     1       2.114  -9.499  -0.891  0.00  0.00    +0.013 A 
ATOM     30  F   UNL     1       2.298 -10.103   2.681  0.00  0.00    -0.205 F 
ENDBRANCH  23  24
ENDBRANCH  17  18
ENDBRANCH   1  17
TORSDOF 5
