REMARK  Name = ZINC28994847
REMARK  10 active torsions:
REMARK  status: ('A' for Active; 'I' for Inactive)
REMARK    1  A    between atoms: C_1  and  C_2
REMARK    2  A    between atoms: C_2  and  C_4
REMARK    3  A    between atoms: C_2  and  N_14
REMARK    4  A    between atoms: C_15  and  C_17
REMARK    5  A    between atoms: C_17  and  C_18
REMARK    6  A    between atoms: C_18  and  N_19
REMARK    7  A    between atoms: N_19  and  C_20
REMARK    8  A    between atoms: C_23  and  S_29
REMARK    9  A    between atoms: C_25  and  N_26
REMARK   10  A    between atoms: S_29  and  N_32
REMARK                            x       y       z     vdW  Elec       q    Type
REMARK                         _______ _______ _______ _____ _____    ______ ____
ROOT
ATOM      1  C   UNL     1       4.272  -1.881   1.950  0.00  0.00    +0.111 C 
ENDROOT
BRANCH   1   2
ATOM      2  N   UNL     1       5.001  -2.125   3.197  0.00  0.00    -0.342 N 
ATOM      3  H   UNL     1       4.519  -2.385   3.997  0.00  0.00    +0.146 HD
BRANCH   2   4
ATOM      4  C   UNL     1       6.390  -1.983   3.233  0.00  0.00    +0.058 A 
ATOM      5  C   UNL     1       7.095  -1.730   2.063  0.00  0.00    +0.027 A 
ATOM      6  C   UNL     1       8.468  -1.590   2.103  0.00  0.00    +0.030 A 
ATOM      7  C   UNL     1       9.142  -1.701   3.306  0.00  0.00    +0.107 A 
ATOM      8  C   UNL     1       8.443  -1.953   4.472  0.00  0.00    +0.063 A 
ATOM      9  C   UNL     1       7.069  -2.088   4.441  0.00  0.00    +0.149 A 
BRANCH   9  10
ATOM     10  N   UNL     1       6.321  -2.352   5.690  0.00  0.00    +0.058 N 
ATOM     11  O   UNL     1       5.239  -1.843   5.866  0.00  0.00    -0.126 OA
ATOM     12  O   UNL     1       6.793  -3.077   6.535  0.00  0.00    -0.126 OA
ENDBRANCH   9  10
BRANCH   7  13
ATOM     13  S   UNL     1      10.894  -1.521   3.352  0.00  0.00    +0.056 S 
ATOM     14  O   UNL     1      11.342  -2.209   4.512  0.00  0.00    -0.153 OA
ATOM     15  O   UNL     1      11.368  -1.833   2.050  0.00  0.00    -0.153 OA
BRANCH  13  16
ATOM     16  N   UNL     1      11.215   0.085   3.601  0.00  0.00    -0.204 NA
ATOM     17  H   UNL     1      10.485   0.717   3.690  0.00  0.00    +0.144 HD
ATOM     18  H   UNL     1      12.133   0.392   3.658  0.00  0.00    +0.144 HD
ENDBRANCH  13  16
ENDBRANCH   7  13
ENDBRANCH   2   4
ENDBRANCH   1   2
BRANCH   1  19
ATOM     19  C   UNL     1       2.776  -2.104   2.181  0.00  0.00    +0.114 C 
BRANCH  19  21
ATOM     20  N   UNL     1       0.686  -1.990   0.863  0.00  0.00    -0.312 N 
ATOM     21  C   UNL     1       2.027  -1.853   0.898  0.00  0.00    +0.215 C 
ATOM     22  O   UNL     1       2.630  -1.528  -0.103  0.00  0.00    -0.276 OA
ATOM     23  H   UNL     1       0.204  -2.250   1.663  0.00  0.00    +0.149 HD
BRANCH  20  25
ATOM     24  C   UNL     1      -0.339  -0.251  -0.518  0.00  0.00    +0.028 C 
ATOM     25  C   UNL     1      -0.042  -1.746  -0.385  0.00  0.00    +0.076 C 
BRANCH  25  26
ATOM     26  C   UNL     1      -1.358  -2.527  -0.368  0.00  0.00    -0.010 C 
ATOM     27  C   UNL     1      -1.061  -4.022  -0.235  0.00  0.00    +0.012 C 
ATOM     28  C   UNL     1      -2.377  -4.804  -0.218  0.00  0.00    -0.010 C 
ATOM     29  C   UNL     1      -3.138  -4.549  -1.520  0.00  0.00    +0.007 C 
ATOM     30  C   UNL     1      -3.434  -3.054  -1.654  0.00  0.00    -0.010 C 
ATOM     31  C   UNL     1      -2.119  -2.273  -1.671  0.00  0.00    +0.012 C 
ATOM     32  C   UNL     1      -4.285  -2.595  -0.468  0.00  0.00    +0.007 C 
ATOM     33  C   UNL     1      -3.524  -2.849   0.835  0.00  0.00    -0.010 C 
ATOM     34  C   UNL     1      -3.228  -4.344   0.968  0.00  0.00    +0.007 C 
ATOM     35  C   UNL     1      -2.208  -2.068   0.818  0.00  0.00    +0.012 C 
ENDBRANCH  25  26
ENDBRANCH  20  25
ENDBRANCH  19  21
ENDBRANCH   1  19
TORSDOF 9
