REMARK  Name = ZINC05975380
REMARK  3 active torsions:
REMARK  status: ('A' for Active; 'I' for Inactive)
REMARK    1  A    between atoms: C_9  and  C_12
REMARK    2  A    between atoms: N_14  and  N_15
REMARK    3  A    between atoms: C_16  and  C_18
REMARK                            x       y       z     vdW  Elec       q    Type
REMARK                         _______ _______ _______ _____ _____    ______ ____
ROOT
ATOM      1  N   UNL     1       6.355  -4.522  -0.051  0.00  0.00    -0.234 N 
ATOM      2  C   UNL     1       6.593  -5.804  -0.392  0.00  0.00    +0.235 C 
ATOM      3  O   UNL     1       5.752  -6.437  -0.994  0.00  0.00    -0.274 OA
ATOM      4  H   UNL     1       7.028  -4.015   0.430  0.00  0.00    +0.173 HD
ENDROOT
BRANCH   2   5
ATOM      5  C   UNL     1       7.905  -6.450  -0.026  0.00  0.00    +0.050 C 
ATOM      6  C   UNL     1       8.073  -6.435   1.494  0.00  0.00    +0.020 C 
ATOM      7  C   UNL     1       9.405  -7.091   1.866  0.00  0.00    -0.008 C 
ATOM      8  C   UNL     1       9.418  -8.537   1.366  0.00  0.00    +0.007 C 
ATOM      9  C   UNL     1       9.249  -8.552  -0.155  0.00  0.00    -0.008 C 
ATOM     10  C   UNL     1       7.918  -7.896  -0.526  0.00  0.00    +0.020 C 
ATOM     11  C   UNL     1      10.398  -7.777  -0.803  0.00  0.00    +0.026 C 
ATOM     12  C   UNL     1      10.385  -6.332  -0.303  0.00  0.00    +0.047 C 
ATOM     13  C   UNL     1      10.554  -6.316   1.218  0.00  0.00    +0.026 C 
ATOM     14  C   UNL     1       9.054  -5.676  -0.675  0.00  0.00    +0.039 C 
ATOM     15 CL   UNL     1      11.739  -5.419  -1.067  0.00  0.00    -0.118 Cl
ENDBRANCH   2   5
BRANCH   1  18
ATOM     16  C   UNL     1       4.898  -2.639  -0.050  0.00  0.00    +0.273 C 
ATOM     17  O   UNL     1       5.739  -2.006   0.552  0.00  0.00    -0.270 OA
ATOM     18  N   UNL     1       5.136  -3.921  -0.391  0.00  0.00    -0.231 N 
ATOM     19  H   UNL     1       4.464  -4.428  -0.873  0.00  0.00    +0.173 HD
BRANCH  16  28
ATOM     20  C   UNL     1      -0.017   1.378   0.010  0.00  0.00    +0.004 A 
ATOM     21  C   UNL     1       1.170   2.088   0.002  0.00  0.00    +0.004 A 
ATOM     22  C   UNL     1       2.378   1.418  -0.012  0.00  0.00    +0.049 A 
ATOM     23  C   UNL     1       2.404   0.031  -0.019  0.00  0.00    +0.163 A 
ATOM     24  C   UNL     1       1.212  -0.683  -0.014  0.00  0.00    +0.162 A 
ATOM     25  C   UNL     1       0.002  -0.004   0.002  0.00  0.00    +0.049 A 
ATOM     26  O   UNL     1       1.214  -2.043  -0.029  0.00  0.00    -0.484 OA
ATOM     27  C   UNL     1       2.441  -2.689   0.331  0.00  0.00    +0.283 C 
ATOM     28  C   UNL     1       3.587  -1.993  -0.416  0.00  0.00    +0.297 C 
ATOM     29  O   UNL     1       3.602  -0.615  -0.029  0.00  0.00    -0.472 OA
ENDBRANCH  16  28
ENDBRANCH   1  18
TORSDOF 3
