REMARK  Name = ZINC00958237
REMARK  7 active torsions:
REMARK  status: ('A' for Active; 'I' for Inactive)
REMARK    1  A    between atoms: C_1  and  C_2
REMARK    2  A    between atoms: C_3  and  C_35
REMARK    3  A    between atoms: N_9  and  C_12
REMARK    4  A    between atoms: C_12  and  C_13
REMARK    5  A    between atoms: N_15  and  N_16
REMARK    6  A    between atoms: N_24  and  C_27
REMARK    7  A    between atoms: C_27  and  C_28
REMARK                            x       y       z     vdW  Elec       q    Type
REMARK                         _______ _______ _______ _____ _____    ______ ____
ROOT
ATOM      1  N   UNL     1      -2.923   0.074   7.180  0.00  0.00    -0.174 NA
ATOM      2  C   UNL     1      -3.158   0.502   8.397  0.00  0.00    +0.153 C 
ATOM      3  C   UNL     1      -4.475   0.703   9.044  0.00  0.00    +0.028 A 
ATOM      4  C   UNL     1      -5.785   0.520   8.614  0.00  0.00    +0.012 A 
ATOM      5  C   UNL     1      -6.831   0.801   9.470  0.00  0.00    +0.001 A 
ATOM      6  C   UNL     1      -6.576   1.263  10.750  0.00  0.00    +0.002 A 
ATOM      7  C   UNL     1      -5.279   1.447  11.186  0.00  0.00    +0.024 A 
ATOM      8  C   UNL     1      -4.212   1.169  10.338  0.00  0.00    +0.046 A 
ATOM      9  N   UNL     1      -2.837   1.266  10.523  0.00  0.00    -0.261 N 
ATOM     10  C   UNL     1      -2.166   0.883   9.423  0.00  0.00    +0.272 C 
ATOM     11  O   UNL     1      -0.956   0.857   9.295  0.00  0.00    -0.268 OA
ENDROOT
BRANCH   1  14
ATOM     12  C   UNL     1      -1.363  -0.503   5.477  0.00  0.00    +0.252 C 
ATOM     13  O   UNL     1      -2.287  -0.780   4.743  0.00  0.00    -0.272 OA
ATOM     14  N   UNL     1      -1.604  -0.064   6.728  0.00  0.00    -0.205 N 
ATOM     15  H   UNL     1      -0.864   0.158   7.316  0.00  0.00    +0.177 HD
BRANCH  12  16
ATOM     16  C   UNL     1       0.056  -0.652   4.991  0.00  0.00    +0.223 C 
BRANCH  16  25
ATOM     17  C   UNL     1      -0.018   1.503   0.010  0.00  0.00    +0.045 C 
ATOM     18  C   UNL     1       0.002  -0.004   0.002  0.00  0.00    -0.026 A 
ATOM     19  C   UNL     1       0.006  -0.677  -1.160  0.00  0.00    -0.008 A 
ATOM     20  S   UNL     1       0.032  -2.385  -0.648  0.00  0.00    -0.073 S 
ATOM     21  C   UNL     1       0.037  -2.144   1.110  0.00  0.00    +0.116 A 
ATOM     22  C   UNL     1       0.024  -0.745   1.250  0.00  0.00    +0.075 A 
ATOM     23  C   UNL     1       0.029  -0.257   2.597  0.00  0.00    +0.263 A 
ATOM     24  O   UNL     1       0.014   0.942   2.821  0.00  0.00    -0.267 OA
ATOM     25  N   UNL     1       0.051  -1.142   3.611  0.00  0.00    -0.290 N 
ATOM     26  C   UNL     1       0.068  -2.480   3.380  0.00  0.00    +0.203 A 
ATOM     27  N   UNL     1       0.053  -2.956   2.163  0.00  0.00    -0.230 NA
ATOM     28  C   UNL     1      -0.009  -0.122  -2.561  0.00  0.00    +0.052 C 
ENDBRANCH  16  25
ENDBRANCH  12  16
ENDBRANCH   1  14
BRANCH   9  29
ATOM     29  C   UNL     1      -2.201   1.721  11.761  0.00  0.00    +0.149 C 
BRANCH  29  30
ATOM     30  C   UNL     1      -1.952   0.539  12.662  0.00  0.00    -0.030 A 
ATOM     31  C   UNL     1      -2.919   0.146  13.569  0.00  0.00    +0.008 A 
ATOM     32  C   UNL     1      -2.693  -0.938  14.396  0.00  0.00    +0.038 A 
ATOM     33  C   UNL     1      -1.497  -1.631  14.315  0.00  0.00    +0.123 A 
ATOM     34  C   UNL     1      -0.530  -1.238  13.406  0.00  0.00    +0.038 A 
ATOM     35  C   UNL     1      -0.760  -0.156  12.577  0.00  0.00    +0.008 A 
ATOM     36  F   UNL     1      -1.275  -2.691  15.123  0.00  0.00    -0.205 F 
ENDBRANCH  29  30
ENDBRANCH   9  29
TORSDOF 5
