REMARK  Name = ZINC45818670
REMARK  10 active torsions:
REMARK  status: ('A' for Active; 'I' for Inactive)
REMARK    1  A    between atoms: C_1  and  C_2
REMARK    2  A    between atoms: C_5  and  N_8
REMARK    3  A    between atoms: C_9  and  C_11
REMARK    4  A    between atoms: C_11  and  S_12
REMARK    5  A    between atoms: S_12  and  C_13
REMARK    6  A    between atoms: C_13  and  C_15
REMARK    7  A    between atoms: C_13  and  C_16
REMARK    8  A    between atoms: N_18  and  C_19
REMARK    9  A    between atoms: C_19  and  C_20
REMARK   10  A    between atoms: C_23  and  N_26
REMARK                            x       y       z     vdW  Elec       q    Type
REMARK                         _______ _______ _______ _____ _____    ______ ____
ROOT
ATOM      1  C   UNL     1       0.800  -9.410   4.013  0.00  0.00    +0.226 C 
ATOM      2  O   UNL     1       0.441  -8.848   5.026  0.00  0.00    -0.275 OA
ATOM      3  N   UNL     1       1.436 -10.596   4.089  0.00  0.00    -0.310 N 
ATOM      4  H   UNL     1       1.723 -11.045   3.279  0.00  0.00    +0.149 HD
ENDROOT
BRANCH   1   5
ATOM      5  C   UNL     1       0.535  -8.782   2.669  0.00  0.00    +0.129 C 
ATOM      6  C   UNL     1      -0.762  -9.349   2.088  0.00  0.00    +0.029 C 
BRANCH   5   7
ATOM      7  S   UNL     1       0.376  -6.986   2.861  0.00  0.00    -0.139 S 
BRANCH   7   8
ATOM      8  C   UNL     1       0.216  -6.375   1.161  0.00  0.00    +0.165 C 
BRANCH   8  10
ATOM      9  N   UNL     1      -0.059  -4.197   0.019  0.00  0.00    -0.285 N 
ATOM     10  C   UNL     1       0.075  -4.874   1.177  0.00  0.00    +0.227 C 
ATOM     11  O   UNL     1       0.082  -4.276   2.232  0.00  0.00    -0.275 OA
ATOM     12  H   UNL     1      -0.139  -4.680  -0.818  0.00  0.00    +0.155 HD
BRANCH   9  17
ATOM     13  C   UNL     1      -0.154   1.475   0.044  0.00  0.00    +0.044 C 
ATOM     14  C   UNL     1      -0.129  -0.032   0.037  0.00  0.00    -0.050 A 
ATOM     15  C   UNL     1       0.643  -0.713   0.960  0.00  0.00    +0.005 A 
ATOM     16  C   UNL     1       0.669  -2.094   0.957  0.00  0.00    +0.023 A 
ATOM     17  C   UNL     1      -0.083  -2.798   0.026  0.00  0.00    +0.033 A 
ATOM     18  C   UNL     1      -0.858  -2.111  -0.899  0.00  0.00    +0.023 A 
ATOM     19  C   UNL     1      -0.883  -0.731  -0.888  0.00  0.00    +0.005 A 
ENDBRANCH   9  17
ENDBRANCH   8  10
ENDBRANCH   7   8
ENDBRANCH   5   7
ENDBRANCH   1   5
BRANCH   3  20
ATOM     20  C   UNL     1       1.694 -11.206   5.396  0.00  0.00    +0.139 C 
BRANCH  20  21
ATOM     21  C   UNL     1       2.413 -12.517   5.205  0.00  0.00    -0.030 A 
ATOM     22  C   UNL     1       1.688 -13.685   5.054  0.00  0.00    +0.007 A 
ATOM     23  C   UNL     1       2.343 -14.888   4.880  0.00  0.00    +0.023 A 
ATOM     24  C   UNL     1       3.731 -14.924   4.855  0.00  0.00    +0.035 A 
ATOM     25  C   UNL     1       4.456 -13.749   5.007  0.00  0.00    +0.023 A 
ATOM     26  C   UNL     1       3.795 -12.548   5.176  0.00  0.00    +0.007 A 
BRANCH  24  27
ATOM     27  N   UNL     1       4.399 -16.141   4.678  0.00  0.00    -0.270 N 
ATOM     28  C   UNL     1       3.875 -17.086   3.873  0.00  0.00    +0.301 C 
ATOM     29  O   UNL     1       2.783 -16.915   3.365  0.00  0.00    -0.253 OA
ATOM     30  N   UNL     1       4.561 -18.220   3.629  0.00  0.00    -0.313 N 
ATOM     31  H   UNL     1       5.238 -16.305   5.136  0.00  0.00    +0.156 HD
ATOM     32  H   UNL     1       5.432 -18.357   4.034  0.00  0.00    +0.146 HD
ATOM     33  H   UNL     1       4.184 -18.900   3.049  0.00  0.00    +0.146 HD
ENDBRANCH  24  27
ENDBRANCH  20  21
ENDBRANCH   3  20
TORSDOF 8
