REMARK  Name = ZINC34747919
REMARK  6 active torsions:
REMARK  status: ('A' for Active; 'I' for Inactive)
REMARK    1  A    between atoms: C_1  and  C_2
REMARK    2  A    between atoms: C_5  and  C_32
REMARK    3  A    between atoms: C_6  and  C_8
REMARK    4  A    between atoms: C_8  and  N_9
REMARK    5  A    between atoms: N_27  and  C_28
REMARK    6  A    between atoms: C_28  and  C_29
REMARK                            x       y       z     vdW  Elec       q    Type
REMARK                         _______ _______ _______ _____ _____    ______ ____
ROOT
ATOM      1  N   UNL     1       1.507  -3.122   2.694  0.00  0.00    +0.384 N 
ATOM      2  C   UNL     1       2.444  -2.006   2.877  0.00  0.00    -0.059 C 
ATOM      3  C   UNL     1       3.852  -2.559   3.123  0.00  0.00    +0.089 C 
ATOM      4  N   UNL     1       3.795  -3.495   4.255  0.00  0.00    -0.304 N 
ATOM      5  C   UNL     1       2.770  -4.551   4.231  0.00  0.00    +0.089 C 
ATOM      6  C   UNL     1       1.413  -3.905   3.932  0.00  0.00    -0.059 C 
ATOM      7  C   UNL     1       4.672  -3.388   5.306  0.00  0.00    +0.202 A 
ATOM      8  N   UNL     1       4.359  -2.630   6.337  0.00  0.00    -0.208 NA
ATOM      9  C   UNL     1       5.190  -2.509   7.367  0.00  0.00    +0.117 A 
ATOM     10  C   UNL     1       6.425  -3.171   7.409  0.00  0.00    +0.076 A 
ATOM     11  C   UNL     1       7.240  -2.941   8.614  0.00  0.00    -0.023 A 
ATOM     12  C   UNL     1       6.724  -2.127   9.549  0.00  0.00    -0.004 A 
ATOM     13  S   UNL     1       5.149  -1.618   8.900  0.00  0.00    -0.073 S 
ATOM     14  C   UNL     1       7.640  -1.972  10.734  0.00  0.00    +0.043 C 
ATOM     15  C   UNL     1       8.634  -3.148  10.613  0.00  0.00    +0.010 C 
ATOM     16  C   UNL     1       8.611  -3.422   9.097  0.00  0.00    +0.037 C 
ATOM     17  C   UNL     1       6.739  -3.987   6.277  0.00  0.00    +0.264 A 
ATOM     18  O   UNL     1       7.792  -4.600   6.229  0.00  0.00    -0.267 OA
ATOM     19  N   UNL     1       5.851  -4.071   5.269  0.00  0.00    -0.271 N 
ATOM     20  H   UNL     1       1.835  -3.715   1.946  0.00  0.00    -0.081 HD
ENDROOT
BRANCH   1  21
ATOM     21  C   UNL     1       0.180  -2.593   2.350  0.00  0.00    -0.043 C 
BRANCH  21  27
ATOM     22  C   UNL     1       0.499   1.630  -0.317  0.00  0.00    +0.044 C 
ATOM     23  C   UNL     1       0.401   0.127  -0.259  0.00  0.00    -0.050 A 
ATOM     24  C   UNL     1       0.373  -0.610  -1.429  0.00  0.00    +0.003 A 
ATOM     25  C   UNL     1       0.283  -1.988  -1.376  0.00  0.00    +0.004 A 
ATOM     26  C   UNL     1       0.221  -2.630  -0.153  0.00  0.00    -0.049 A 
ATOM     27  C   UNL     1       0.249  -1.893   1.017  0.00  0.00    -0.061 A 
ATOM     28  C   UNL     1       0.344  -0.515   0.963  0.00  0.00    +0.005 A 
ATOM     29  C   UNL     1       0.121  -4.132  -0.095  0.00  0.00    +0.044 C 
ENDBRANCH  21  27
ENDBRANCH   1  21
BRANCH  19  30
ATOM     30  C   UNL     1       6.160  -4.908   4.107  0.00  0.00    +0.223 C 
BRANCH  30  31
ATOM     31  C   UNL     1       6.965  -4.111   3.113  0.00  0.00    +0.230 C 
ATOM     32  O   UNL     1       7.252  -2.957   3.352  0.00  0.00    -0.274 OA
ATOM     33  N   UNL     1       7.366  -4.680   1.959  0.00  0.00    -0.328 N 
ATOM     34  H   UNL     1       7.137  -5.603   1.768  0.00  0.00    +0.145 HD
ATOM     35  H   UNL     1       7.884  -4.166   1.319  0.00  0.00    +0.145 HD
ENDBRANCH  30  31
ENDBRANCH  19  30
TORSDOF 4
