REMARK  Name = ZINC54809905
REMARK  11 active torsions:
REMARK  status: ('A' for Active; 'I' for Inactive)
REMARK    1  A    between atoms: C_1  and  C_2
REMARK    2  A    between atoms: C_2  and  N_3
REMARK    3  A    between atoms: N_3  and  C_4
REMARK    4  A    between atoms: N_3  and  C_6
REMARK    5  A    between atoms: C_4  and  C_5
REMARK    6  A    between atoms: C_6  and  C_8
REMARK    7  A    between atoms: C_6  and  C_20
REMARK    8  A    between atoms: C_8  and  N_9
REMARK    9  A    between atoms: N_12  and  C_13
REMARK   10  A    between atoms: C_13  and  C_14
REMARK   11  A    between atoms: N_17  and  C_19
REMARK                            x       y       z     vdW  Elec       q    Type
REMARK                         _______ _______ _______ _____ _____    ______ ____
ROOT
ATOM      1  C   UNL     1       2.412   0.067   1.583  0.00  0.00    -0.019 C 
ENDROOT
BRANCH   1   2
ATOM      2  C   UNL     1       2.310   1.563   1.732  0.00  0.00    -0.041 A 
ATOM      3  C   UNL     1       1.099   2.144   2.057  0.00  0.00    +0.003 A 
ATOM      4  C   UNL     1       1.005   3.517   2.194  0.00  0.00    +0.000 A 
ATOM      5  C   UNL     1       2.123   4.309   2.008  0.00  0.00    +0.001 A 
ATOM      6  C   UNL     1       3.334   3.729   1.684  0.00  0.00    +0.020 A 
ATOM      7  C   UNL     1       3.430   2.355   1.552  0.00  0.00    +0.043 A 
ATOM      8 CL   UNL     1       4.954   1.625   1.151  0.00  0.00    -0.083 Cl
ENDBRANCH   1   2
BRANCH   1   9
ATOM      9  N   UNL     1       1.561  -0.372   0.469  0.00  0.00    +0.385 N 
ATOM     10  H   UNL     1       1.821  -1.308   0.196  0.00  0.00    -0.081 HD
BRANCH   9  12
ATOM     11  C   UNL     1      -0.607  -1.470   0.167  0.00  0.00    -0.017 C 
ATOM     12  C   UNL     1       0.155  -0.359   0.892  0.00  0.00    -0.081 C 
ENDBRANCH   9  12
BRANCH   9  13
ATOM     13  C   UNL     1       1.739   0.537  -0.671  0.00  0.00    -0.081 C 
ATOM     14  C   UNL     1       3.123   0.321  -1.286  0.00  0.00    -0.017 C 
ENDBRANCH   9  13
ENDBRANCH   1   9
BRANCH   1  15
ATOM     15  C   UNL     1       1.949  -0.608   2.875  0.00  0.00    +0.095 C 
BRANCH  15  16
ATOM     16  N   UNL     1       1.864  -2.055   2.667  0.00  0.00    -0.301 N 
ATOM     17  C   UNL     1       1.605  -2.872   3.708  0.00  0.00    +0.300 C 
ATOM     18  O   UNL     1       1.443  -2.407   4.819  0.00  0.00    -0.253 OA
ATOM     19  N   UNL     1       1.527  -4.204   3.516  0.00  0.00    -0.295 N 
ATOM     20  H   UNL     1       1.994  -2.426   1.780  0.00  0.00    +0.150 HD
ATOM     21  H   UNL     1       1.657  -4.574   2.629  0.00  0.00    +0.151 HD
BRANCH  19  22
ATOM     22  C   UNL     1       1.246  -5.091   4.647  0.00  0.00    +0.144 C 
BRANCH  22  23
ATOM     23  C   UNL     1       1.211  -6.520   4.168  0.00  0.00    +0.007 A 
ATOM     24  C   UNL     1       0.085  -7.204   3.699  0.00  0.00    +0.139 A 
ATOM     25  N   UNL     1       0.449  -8.418   3.377  0.00  0.00    -0.180 NA
ATOM     26  N   UNL     1       1.821  -8.546   3.630  0.00  0.00    -0.274 N 
ATOM     27  C   UNL     1       2.266  -7.366   4.110  0.00  0.00    +0.113 A 
ATOM     28  C   UNL     1       2.630  -9.746   3.408  0.00  0.00    +0.172 C 
ENDBRANCH  22  23
ENDBRANCH  19  22
ENDBRANCH  15  16
ENDBRANCH   1  15
TORSDOF 8
