REMARK  Name = ZINC09910325
REMARK  6 active torsions:
REMARK  status: ('A' for Active; 'I' for Inactive)
REMARK    1  A    between atoms: C_1  and  C_2
REMARK    2  A    between atoms: C_10  and  C_11
REMARK    3  A    between atoms: C_11  and  C_13
REMARK    4  A    between atoms: C_13  and  N_14
REMARK    5  A    between atoms: C_17  and  C_21
REMARK    6  A    between atoms: C_17  and  C_22
REMARK                            x       y       z     vdW  Elec       q    Type
REMARK                         _______ _______ _______ _____ _____    ______ ____
ROOT
ATOM      1  N   UNL     1       1.496   2.771  -1.137  0.00  0.00    -0.216 N 
ATOM      2  C   UNL     1       1.393   2.055  -0.000  0.00  0.00    +0.254 C 
ATOM      3  O   UNL     1       2.251   1.889   0.840  0.00  0.00    -0.272 OA
ATOM      4  C   UNL     1      -0.018   1.503   0.010  0.00  0.00    +0.168 C 
ATOM      5  N   UNL     1      -0.602   2.020  -1.239  0.00  0.00    -0.279 N 
ATOM      6  C   UNL     1       0.357   2.748  -1.839  0.00  0.00    +0.310 C 
ATOM      7  O   UNL     1       0.206   3.320  -2.901  0.00  0.00    -0.252 OA
ATOM      8  C   UNL     1      -0.791   2.022   1.224  0.00  0.00    +0.050 C 
ATOM      9  H   UNL     1      -1.502   1.866  -1.566  0.00  0.00    +0.152 HD
ENDROOT
BRANCH   4  10
ATOM     10  C   UNL     1       0.002  -0.004   0.002  0.00  0.00    +0.138 A 
ATOM     11  C   UNL     1      -0.947  -0.781  -0.538  0.00  0.00    +0.056 A 
ATOM     12  C   UNL     1      -0.515  -2.167  -0.318  0.00  0.00    +0.020 A 
ATOM     13  C   UNL     1      -1.047  -3.416  -0.635  0.00  0.00    +0.011 A 
ATOM     14  C   UNL     1      -0.376  -4.550  -0.271  0.00  0.00    +0.001 A 
ATOM     15  C   UNL     1       0.829  -4.466   0.411  0.00  0.00    +0.004 A 
ATOM     16  C   UNL     1       1.370  -3.240   0.733  0.00  0.00    +0.047 A 
ATOM     17  C   UNL     1       0.705  -2.074   0.373  0.00  0.00    +0.135 A 
ATOM     18  O   UNL     1       0.972  -0.764   0.540  0.00  0.00    -0.457 OA
ENDBRANCH   4  10
BRANCH   1  19
ATOM     19  C   UNL     1       2.705   3.486  -1.554  0.00  0.00    +0.198 C 
BRANCH  19  20
ATOM     20  C   UNL     1       3.567   2.572  -2.386  0.00  0.00    +0.188 C 
ATOM     21  O   UNL     1       3.207   1.435  -2.609  0.00  0.00    -0.290 OA
BRANCH  20  31
ATOM     22  C   UNL     1       5.459   0.936  -4.058  0.00  0.00    +0.045 C 
ATOM     23  C   UNL     1       5.710   2.370  -3.669  0.00  0.00    -0.025 A 
ATOM     24  C   UNL     1       6.881   3.019  -4.094  0.00  0.00    -0.007 A 
ATOM     25  C   UNL     1       7.937   2.498  -4.888  0.00  0.00    +0.009 A 
ATOM     26  C   UNL     1       9.010   3.265  -5.207  0.00  0.00    +0.001 A 
ATOM     27  C   UNL     1       9.120   4.581  -4.774  0.00  0.00    +0.001 A 
ATOM     28  C   UNL     1       8.117   5.129  -4.000  0.00  0.00    +0.015 A 
ATOM     29  C   UNL     1       7.020   4.362  -3.667  0.00  0.00    +0.020 A 
ATOM     30  S   UNL     1       5.545   4.652  -2.724  0.00  0.00    -0.085 S 
ATOM     31  C   UNL     1       4.800   3.041  -2.908  0.00  0.00    +0.060 A 
ENDBRANCH  20  31
ENDBRANCH  19  20
ENDBRANCH   1  19
TORSDOF 4
