REMARK  Name = ZINC60443137
REMARK  5 active torsions:
REMARK  status: ('A' for Active; 'I' for Inactive)
REMARK    1  A    between atoms: C_1  and  C_2
REMARK    2  A    between atoms: C_2  and  C_9
REMARK    3  A    between atoms: C_13  and  N_15
REMARK    4  A    between atoms: N_15  and  S_16
REMARK    5  A    between atoms: S_16  and  C_19
REMARK                            x       y       z     vdW  Elec       q    Type
REMARK                         _______ _______ _______ _____ _____    ______ ____
ROOT
ATOM      1  C   UNL     1      -1.401  -0.551  -0.040  0.00  0.00    -0.014 A 
ATOM      2  C   UNL     1      -1.853  -1.374   0.976  0.00  0.00    +0.006 A 
ATOM      3  C   UNL     1      -3.139  -1.879   0.942  0.00  0.00    +0.002 A 
ATOM      4  C   UNL     1      -3.979  -1.563  -0.109  0.00  0.00    +0.027 A 
ATOM      5  C   UNL     1      -3.529  -0.737  -1.131  0.00  0.00    +0.075 A 
ATOM      6  C   UNL     1      -2.237  -0.227  -1.090  0.00  0.00    +0.033 A 
ENDROOT
BRANCH   1   8
ATOM      7  C   UNL     1      -0.019   1.526   0.010  0.00  0.00    +0.047 C 
ATOM      8  C   UNL     1       0.002  -0.004   0.002  0.00  0.00    +0.135 C 
ATOM      9  C   UNL     1       0.815  -0.520  -1.169  0.00  0.00    +0.248 C 
ATOM     10  O   UNL     1       0.595  -0.342  -2.348  0.00  0.00    -0.273 OA
ATOM     11  N   UNL     1       1.833  -1.217  -0.627  0.00  0.00    -0.238 N 
ATOM     12  C   UNL     1       1.777  -1.214   0.710  0.00  0.00    +0.307 C 
ATOM     13  O   UNL     1       2.586  -1.776   1.421  0.00  0.00    -0.252 OA
ATOM     14  N   UNL     1       0.724  -0.519   1.178  0.00  0.00    -0.282 N 
ATOM     15  H   UNL     1       2.520  -1.667  -1.143  0.00  0.00    +0.159 HD
ATOM     16  H   UNL     1       0.487  -0.383   2.109  0.00  0.00    +0.152 HD
ENDBRANCH   1   8
BRANCH   5  17
ATOM     17  N   UNL     1      -4.375  -0.415  -2.195  0.00  0.00    -0.098 NA
BRANCH  17  18
ATOM     18  S   UNL     1      -5.917  -1.019  -2.238  0.00  0.00    +0.097 S 
ATOM     19  O   UNL     1      -5.797  -2.426  -2.399  0.00  0.00    -0.148 OA
ATOM     20  O   UNL     1      -6.613  -0.433  -1.147  0.00  0.00    -0.148 OA
BRANCH  18  21
ATOM     21  C   UNL     1      -6.674  -0.407  -3.707  0.00  0.00    +0.180 A 
ATOM     22  C   UNL     1      -7.360   0.796  -3.682  0.00  0.00    +0.156 A 
ATOM     23  C   UNL     1      -7.955   1.276  -4.836  0.00  0.00    +0.078 A 
ATOM     24  C   UNL     1      -7.865   0.555  -6.014  0.00  0.00    +0.129 A 
ATOM     25  C   UNL     1      -7.178  -0.647  -6.038  0.00  0.00    +0.078 A 
ATOM     26  C   UNL     1      -6.579  -1.126  -4.886  0.00  0.00    +0.156 A 
ATOM     27  F   UNL     1      -5.905  -2.296  -4.911  0.00  0.00    -0.203 F 
ATOM     28  F   UNL     1      -8.446   1.024  -7.139  0.00  0.00    -0.205 F 
ATOM     29  F   UNL     1      -7.448   1.500  -2.533  0.00  0.00    -0.203 F 
ENDBRANCH  18  21
ENDBRANCH  17  18
ENDBRANCH   5  17
TORSDOF 4
