REMARK  Name = ZINC09340766
REMARK  5 active torsions:
REMARK  status: ('A' for Active; 'I' for Inactive)
REMARK    1  A    between atoms: C_1  and  C_2
REMARK    2  A    between atoms: C_9  and  C_28
REMARK    3  A    between atoms: C_10  and  C_16
REMARK    4  A    between atoms: C_16  and  C_17
REMARK    5  A    between atoms: C_17  and  C_18
REMARK                            x       y       z     vdW  Elec       q    Type
REMARK                         _______ _______ _______ _____ _____    ______ ____
ROOT
ATOM      1  C   UNL     1      -5.688   0.547   0.059  0.00  0.00    +0.047 C 
ATOM      2  C   UNL     1      -5.108   1.938   0.060  0.00  0.00    -0.005 A 
ATOM      3  C   UNL     1      -5.786   3.092   0.070  0.00  0.00    +0.199 A 
ATOM      4  O   UNL     1      -4.935   4.134   0.067  0.00  0.00    -0.463 OA
ATOM      5  C   UNL     1      -3.655   3.710   0.053  0.00  0.00    +0.139 A 
ATOM      6  C   UNL     1      -3.684   2.300   0.048  0.00  0.00    +0.024 A 
ATOM      7  C   UNL     1      -2.502   1.572   0.035  0.00  0.00    +0.023 A 
ATOM      8  C   UNL     1      -1.283   2.249   0.020  0.00  0.00    +0.022 A 
ATOM      9  C   UNL     1      -0.016   1.512   0.011  0.00  0.00    -0.030 A 
ATOM     10  C   UNL     1       1.140   2.223   0.003  0.00  0.00    +0.041 A 
ATOM     11  C   UNL     1       1.097   3.633   0.009  0.00  0.00    +0.341 A 
ATOM     12  O   UNL     1       2.142   4.259   0.001  0.00  0.00    -0.245 OA
ATOM     13  O   UNL     1      -0.065   4.304   0.022  0.00  0.00    -0.422 OA
ATOM     14  C   UNL     1      -1.254   3.659   0.031  0.00  0.00    +0.143 A 
ATOM     15  C   UNL     1      -2.438   4.376   0.045  0.00  0.00    +0.093 A 
ATOM     16  C   UNL     1       0.003   0.005   0.004  0.00  0.00    +0.045 C 
ENDROOT
BRANCH  10  17
ATOM     17  C   UNL     1       2.467   1.508  -0.013  0.00  0.00    +0.052 C 
BRANCH  17  18
ATOM     18  C   UNL     1       2.902   1.272  -1.460  0.00  0.00    +0.101 C 
BRANCH  18  19
ATOM     19  C   UNL     1       4.229   0.557  -1.476  0.00  0.00    +0.219 C 
ATOM     20  O   UNL     1       4.772   0.265  -0.431  0.00  0.00    -0.275 OA
ATOM     21  N   UNL     1       4.811   0.242  -2.650  0.00  0.00    -0.270 N 
ATOM     22  C   UNL     1       6.086  -0.323  -2.666  0.00  0.00    +0.125 A 
ATOM     23  C   UNL     1       6.724  -0.548  -3.881  0.00  0.00    +0.045 A 
ATOM     24  C   UNL     1       7.990  -1.104  -3.884  0.00  0.00    +0.025 A 
ATOM     25  C   UNL     1       8.574  -1.429  -2.665  0.00  0.00    +0.059 A 
ATOM     26  C   UNL     1       7.879  -1.183  -1.496  0.00  0.00    +0.132 A 
ATOM     27  N   UNL     1       6.675  -0.646  -1.526  0.00  0.00    -0.239 NA
ATOM     28 CL   UNL     1      10.159  -2.135  -2.612  0.00  0.00    -0.082 Cl
ATOM     29  H   UNL     1       4.343   0.408  -3.483  0.00  0.00    +0.156 HD
ENDBRANCH  18  19
ENDBRANCH  17  18
ENDBRANCH  10  17
TORSDOF 3
