REMARK  Name = ZINC67574028
REMARK  8 active torsions:
REMARK  status: ('A' for Active; 'I' for Inactive)
REMARK    1  A    between atoms: C_1  and  C_2
REMARK    2  A    between atoms: C_9  and  C_11
REMARK    3  A    between atoms: C_11  and  C_13
REMARK    4  A    between atoms: C_11  and  N_14
REMARK    5  A    between atoms: C_20  and  C_23
REMARK    6  A    between atoms: C_23  and  C_24
REMARK    7  A    between atoms: C_23  and  C_25
REMARK    8  A    between atoms: C_23  and  C_26
REMARK                            x       y       z     vdW  Elec       q    Type
REMARK                         _______ _______ _______ _____ _____    ______ ____
ROOT
ATOM      1  N   UNL     1       2.939   1.056   3.617  0.00  0.00    -0.288 N 
ATOM      2  C   UNL     1       3.425   1.001   4.873  0.00  0.00    +0.306 C 
ATOM      3  O   UNL     1       3.426  -0.053   5.479  0.00  0.00    -0.252 OA
ATOM      4  N   UNL     1       3.910   2.115   5.457  0.00  0.00    -0.251 N 
ATOM      5  C   UNL     1       4.413   2.058   6.757  0.00  0.00    +0.169 A 
ATOM      6  C   UNL     1       4.481   0.906   7.573  0.00  0.00    +0.092 A 
ATOM      7  C   UNL     1       5.027   1.260   8.750  0.00  0.00    +0.144 A 
ATOM      8  O   UNL     1       5.301   2.573   8.706  0.00  0.00    -0.357 OA
ATOM      9  N   UNL     1       4.910   3.060   7.435  0.00  0.00    -0.063 NA
ATOM     10  H   UNL     1       2.938   1.897   3.134  0.00  0.00    +0.151 HD
ATOM     11  H   UNL     1       3.909   2.956   4.974  0.00  0.00    +0.158 HD
ENDROOT
BRANCH   7  12
ATOM     12  C   UNL     1       5.286   0.342   9.916  0.00  0.00    +0.023 C 
ATOM     13  C   UNL     1       6.239  -0.775   9.484  0.00  0.00    +0.019 C 
ATOM     14  C   UNL     1       5.917   1.136  11.061  0.00  0.00    +0.019 C 
ATOM     15  C   UNL     1       3.965  -0.269  10.387  0.00  0.00    +0.019 C 
ENDBRANCH   7  12
BRANCH   1  16
ATOM     16  C   UNL     1       2.412  -0.154   2.982  0.00  0.00    +0.157 C 
ATOM     17  C   UNL     1       3.561  -0.939   2.346  0.00  0.00    +0.038 C 
BRANCH  16  25
ATOM     18  C   UNL     1      -0.233   1.128  -0.005  0.00  0.00    +0.028 C 
ATOM     19  C   UNL     1      -0.365  -0.356   0.344  0.00  0.00    +0.073 C 
ATOM     20  C   UNL     1      -1.805  -0.657   0.772  0.00  0.00    +0.022 C 
ATOM     21  C   UNL     1      -1.899  -2.107   1.252  0.00  0.00    +0.003 C 
ATOM     22  C   UNL     1      -0.984  -2.305   2.463  0.00  0.00    +0.019 C 
ATOM     23  C   UNL     1       0.466  -2.023   2.054  0.00  0.00    +0.108 C 
ATOM     24  N   UNL     1       0.539  -0.683   1.455  0.00  0.00    -0.297 N 
ATOM     25  C   UNL     1       1.416   0.230   1.918  0.00  0.00    +0.236 C 
ATOM     26  O   UNL     1       1.404   1.360   1.478  0.00  0.00    -0.274 OA
ENDBRANCH  16  25
ENDBRANCH   1  16
TORSDOF 3
