REMARK  Name = ZINC61595203
REMARK  11 active torsions:
REMARK  status: ('A' for Active; 'I' for Inactive)
REMARK    1  A    between atoms: C_1  and  C_2
REMARK    2  A    between atoms: C_2  and  C_3
REMARK    3  A    between atoms: C_3  and  C_5
REMARK    4  A    between atoms: C_3  and  N_24
REMARK    5  A    between atoms: C_5  and  C_7
REMARK    6  A    between atoms: C_5  and  S_13
REMARK    7  A    between atoms: C_8  and  C_12
REMARK    8  A    between atoms: S_13  and  C_14
REMARK    9  A    between atoms: N_20  and  C_21
REMARK   10  A    between atoms: C_21  and  C_22
REMARK   11  A    between atoms: C_21  and  C_23
REMARK                            x       y       z     vdW  Elec       q    Type
REMARK                         _______ _______ _______ _____ _____    ______ ____
ROOT
ATOM      1  C   UNL     1       0.792  -2.040   1.372  0.00  0.00    +0.077 C 
ENDROOT
BRANCH   1   2
ATOM      2  C   UNL     1       1.481  -2.481   2.638  0.00  0.00    +0.004 A 
ATOM      3  C   UNL     1       0.937  -2.959   3.783  0.00  0.00    -0.039 A 
ATOM      4  C   UNL     1       1.773  -3.306   4.828  0.00  0.00    +0.011 A 
ATOM      5  C   UNL     1       3.111  -3.158   4.676  0.00  0.00    +0.046 A 
ATOM      6  S   UNL     1       3.225  -2.516   3.014  0.00  0.00    -0.100 S 
ATOM      7  C   UNL     1      -0.557  -3.110   3.916  0.00  0.00    +0.044 C 
ENDBRANCH   1   2
BRANCH   1   8
ATOM      8  C   UNL     1       0.809  -0.512   1.288  0.00  0.00    -0.057 C 
BRANCH   8   9
ATOM      9  N   UNL     1       0.221  -0.085   0.011  0.00  0.00    +0.381 N 
ATOM     10  H   UNL     1       0.232   0.922  -0.044  0.00  0.00    -0.090 HD
ATOM     11  H   UNL     1       0.758  -0.470  -0.752  0.00  0.00    -0.090 HD
ATOM     12  H   UNL     1      -0.731  -0.415  -0.048  0.00  0.00    -0.090 HD
ENDBRANCH   8   9
BRANCH   8  14
ATOM     13  C   UNL     1       0.110   1.597   2.431  0.00  0.00    +0.002 C 
ATOM     14  C   UNL     1      -0.005   0.071   2.444  0.00  0.00    -0.018 C 
ENDBRANCH   8  14
ENDBRANCH   1   8
BRANCH   1  15
ATOM     15  S   UNL     1       1.659  -2.734  -0.062  0.00  0.00    -0.079 S 
BRANCH  15  16
ATOM     16  C   UNL     1       1.351  -4.465   0.051  0.00  0.00    +0.193 A 
ATOM     17  N   UNL     1       0.710  -5.061   1.014  0.00  0.00    -0.145 NA
ATOM     18  N   UNL     1       0.681  -6.434   0.732  0.00  0.00    -0.226 N 
ATOM     19  H   UNL     1       0.269  -7.123   1.276  0.00  0.00    +0.194 HD
ATOM     20  C   UNL     1       1.332  -6.620  -0.435  0.00  0.00    +0.345 A 
ATOM     21  O   UNL     1       1.509  -7.685  -0.998  0.00  0.00    -0.245 OA
ATOM     22  N   UNL     1       1.744  -5.412  -0.868  0.00  0.00    -0.268 N 
BRANCH  22  23
ATOM     23  C   UNL     1       2.488  -5.152  -2.103  0.00  0.00    +0.088 C 
ATOM     24  C   UNL     1       3.812  -5.916  -2.072  0.00  0.00    +0.031 C 
ATOM     25  C   UNL     1       1.660  -5.614  -3.304  0.00  0.00    +0.031 C 
ENDBRANCH  22  23
ENDBRANCH  15  16
ENDBRANCH   1  15
TORSDOF 7
