REMARK  Name = ZINC04125407
REMARK  6 active torsions:
REMARK  status: ('A' for Active; 'I' for Inactive)
REMARK    1  A    between atoms: C_1  and  N_2
REMARK    2  A    between atoms: N_2  and  C_3
REMARK    3  A    between atoms: N_2  and  C_4
REMARK    4  A    between atoms: C_7  and  C_10
REMARK    5  A    between atoms: C_15  and  C_18
REMARK    6  A    between atoms: C_24  and  O_26
REMARK                            x       y       z     vdW  Elec       q    Type
REMARK                         _______ _______ _______ _____ _____    ______ ____
ROOT
ATOM      1  C   UNL     1      -0.006  -2.813  -4.924  0.00  0.00    +0.224 C 
ATOM      2  N   UNL     1       0.655  -1.985  -5.952  0.00  0.00    -0.313 N 
ATOM      3  C   UNL     1       2.023  -2.059  -6.000  0.00  0.00    +0.080 A 
ATOM      4  C   UNL     1       2.736  -3.169  -5.526  0.00  0.00    +0.072 A 
ATOM      5  C   UNL     1       4.176  -3.073  -5.643  0.00  0.00    +0.003 A 
ATOM      6  C   UNL     1       4.708  -1.949  -6.194  0.00  0.00    +0.056 A 
ATOM      7  S   UNL     1       3.271  -0.962  -6.582  0.00  0.00    -0.081 S 
ATOM      8  C   UNL     1       1.942  -4.296  -4.977  0.00  0.00    +0.220 C 
ATOM      9  N   UNL     1       0.675  -4.089  -4.746  0.00  0.00    -0.223 NA
ATOM     10  H   UNL     1       0.150  -1.422  -6.559  0.00  0.00    +0.149 HD
ENDROOT
BRANCH   1  14
ATOM     11  C   UNL     1       0.000  -0.696  -1.211  0.00  0.00    +0.029 A 
ATOM     12  C   UNL     1       0.013  -2.085  -1.221  0.00  0.00    +0.023 A 
ATOM     13  C   UNL     1       0.010  -2.766  -2.422  0.00  0.00    +0.009 A 
ATOM     14  C   UNL     1      -0.005  -2.066  -3.615  0.00  0.00    -0.005 A 
ATOM     15  C   UNL     1      -0.018  -0.684  -3.609  0.00  0.00    +0.009 A 
ATOM     16  C   UNL     1      -0.021   0.004  -2.411  0.00  0.00    +0.023 A 
BRANCH  11  18
ATOM     17  C   UNL     1      -0.018   1.461   0.010  0.00  0.00    +0.129 C 
ATOM     18  N   UNL     1       0.002  -0.004   0.002  0.00  0.00    -0.336 N 
ATOM     19  C   UNL     1       0.024  -0.743   1.267  0.00  0.00    +0.129 C 
ENDBRANCH  11  18
ENDBRANCH   1  14
BRANCH   5  20
ATOM     20  C   UNL     1       5.050  -4.173  -5.173  0.00  0.00    -0.017 A 
ATOM     21  C   UNL     1       4.876  -4.709  -3.897  0.00  0.00    +0.008 A 
ATOM     22  C   UNL     1       5.693  -5.733  -3.465  0.00  0.00    +0.001 A 
ATOM     23  C   UNL     1       6.684  -6.229  -4.293  0.00  0.00    +0.000 A 
ATOM     24  C   UNL     1       6.861  -5.702  -5.560  0.00  0.00    +0.001 A 
ATOM     25  C   UNL     1       6.046  -4.681  -6.006  0.00  0.00    +0.008 A 
ENDBRANCH   5  20
BRANCH   8  26
ATOM     26  O   UNL     1       2.512  -5.498  -4.726  0.00  0.00    -0.492 OA
ATOM     27  H   UNL     1       1.901  -6.157  -4.370  0.00  0.00    +0.294 HD
ENDBRANCH   8  26
TORSDOF 4
