REMARK  Name = ZINC02127335
REMARK  7 active torsions:
REMARK  status: ('A' for Active; 'I' for Inactive)
REMARK    1  A    between atoms: C_1  and  C_2
REMARK    2  A    between atoms: C_7  and  C_8
REMARK    3  A    between atoms: C_17  and  C_19
REMARK    4  A    between atoms: C_19  and  C_20
REMARK    5  A    between atoms: C_20  and  C_21
REMARK    6  A    between atoms: N_25  and  C_28
REMARK    7  A    between atoms: C_28  and  C_29
REMARK                            x       y       z     vdW  Elec       q    Type
REMARK                         _______ _______ _______ _____ _____    ______ ____
ROOT
ATOM      1  C   UNL     1       3.807  -0.597  -0.029  0.00  0.00    +0.044 C 
ATOM      2  C   UNL     1       2.479   0.115  -0.017  0.00  0.00    -0.046 A 
ATOM      3  C   UNL     1       1.305  -0.617  -0.019  0.00  0.00    +0.004 A 
ATOM      4  C   UNL     1       0.086   0.036  -0.007  0.00  0.00    +0.005 A 
ATOM      5  C   UNL     1       0.041   1.412   0.006  0.00  0.00    -0.027 A 
ATOM      6  C   UNL     1       1.215   2.160   0.009  0.00  0.00    +0.039 A 
ATOM      7  C   UNL     1       2.439   1.494  -0.003  0.00  0.00    -0.026 A 
ATOM      8  C   UNL     1       3.723   2.282   0.001  0.00  0.00    +0.046 C 
ATOM      9  N   UNL     1       0.919   3.525   0.021  0.00  0.00    -0.286 N 
ATOM     10  C   UNL     1      -0.408   3.756   0.027  0.00  0.00    +0.211 C 
ATOM     11  O   UNL     1      -0.954   4.839   0.036  0.00  0.00    -0.277 OA
ATOM     12  C   UNL     1      -1.081   2.411   0.015  0.00  0.00    +0.050 C 
ATOM     13  C   UNL     1      -1.989   2.247  -1.209  0.00  0.00    +0.088 C 
ATOM     14  C   UNL     1      -3.418   2.559  -0.683  0.00  0.00    +0.073 C 
ATOM     15  C   UNL     1      -3.222   2.907   0.808  0.00  0.00    -0.057 C 
ATOM     16  C   UNL     1      -3.802   3.811  -1.439  0.00  0.00    +0.224 C 
ATOM     17  O   UNL     1      -4.857   4.398  -1.331  0.00  0.00    -0.275 OA
ATOM     18  N   UNL     1      -2.795   4.170  -2.244  0.00  0.00    -0.237 N 
ATOM     19  C   UNL     1      -1.728   3.364  -2.193  0.00  0.00    +0.225 C 
ATOM     20  O   UNL     1      -0.711   3.508  -2.836  0.00  0.00    -0.275 OA
ATOM     21  H   UNL     1       1.591   4.224   0.026  0.00  0.00    +0.155 HD
ATOM     22  N   UNL     1      -1.960   2.253   1.161  0.00  0.00    +0.394 N 
ATOM     23  H   UNL     1      -1.548   2.700   1.988  0.00  0.00    -0.083 HD
ATOM     24  H   UNL     1      -2.118   1.257   1.353  0.00  0.00    -0.083 HD
ENDROOT
BRANCH  15  25
ATOM     25  C   UNL     1      -4.387   2.364   1.639  0.00  0.00    -0.004 C 
BRANCH  25  26
ATOM     26  C   UNL     1      -4.237   2.826   3.090  0.00  0.00    +0.123 C 
BRANCH  26  27
ATOM     27  C   UNL     1      -5.384   2.291   3.908  0.00  0.00    +0.356 C 
ATOM     28  O   UNL     1      -6.234   1.610   3.385  0.00  0.00    -0.246 OA
ATOM     29  O   UNL     1      -5.461   2.571   5.219  0.00  0.00    -0.246 OA
ENDBRANCH  26  27
ENDBRANCH  25  26
ENDBRANCH  15  25
BRANCH  18  30
ATOM     30  C   UNL     1      -2.857   5.350  -3.110  0.00  0.00    +0.153 C 
BRANCH  30  31
ATOM     31  C   UNL     1      -3.326   4.942  -4.483  0.00  0.00    -0.011 A 
ATOM     32  C   UNL     1      -3.734   3.642  -4.716  0.00  0.00    +0.006 A 
ATOM     33  C   UNL     1      -4.164   3.267  -5.975  0.00  0.00    +0.000 A 
ATOM     34  C   UNL     1      -4.188   4.192  -7.002  0.00  0.00    +0.001 A 
ATOM     35  C   UNL     1      -3.781   5.493  -6.770  0.00  0.00    +0.020 A 
ATOM     36  C   UNL     1      -3.354   5.870  -5.509  0.00  0.00    +0.046 A 
ATOM     37 CL   UNL     1      -2.850   7.504  -5.215  0.00  0.00    -0.083 Cl
ENDBRANCH  30  31
ENDBRANCH  18  30
TORSDOF 5
