REMARK  Name = ZINC32216741
REMARK  5 active torsions:
REMARK  status: ('A' for Active; 'I' for Inactive)
REMARK    1  A    between atoms: C_1  and  C_2
REMARK    2  A    between atoms: C_7  and  O_8
REMARK    3  A    between atoms: O_8  and  C_9
REMARK    4  A    between atoms: C_12  and  N_15
REMARK    5  A    between atoms: C_17  and  C_22
REMARK                            x       y       z     vdW  Elec       q    Type
REMARK                         _______ _______ _______ _____ _____    ______ ____
ROOT
ATOM      1  C   UNL     1      -5.009   0.443   0.054  0.00  0.00    +0.129 A 
ATOM      2  C   UNL     1      -3.922  -0.410  -0.070  0.00  0.00    +0.048 A 
ATOM      3  C   UNL     1      -2.640   0.103  -0.079  0.00  0.00    +0.027 A 
ATOM      4  C   UNL     1      -2.439   1.472   0.037  0.00  0.00    +0.036 A 
ATOM      5  C   UNL     1      -3.527   2.324   0.168  0.00  0.00    +0.027 A 
ATOM      6  C   UNL     1      -4.809   1.811   0.170  0.00  0.00    +0.048 A 
ENDROOT
BRANCH   4   7
ATOM      7  N   UNL     1      -1.138   1.992   0.029  0.00  0.00    -0.271 N 
ATOM      8  C   UNL     1      -0.819   3.425   0.026  0.00  0.00    +0.129 C 
ATOM      9  C   UNL     1       0.664   3.519   0.446  0.00  0.00    +0.128 C 
ATOM     10  C   UNL     1       1.202   2.134   0.020  0.00  0.00    +0.112 C 
ATOM     11  C   UNL     1      -0.021   1.244   0.026  0.00  0.00    +0.221 C 
ATOM     12  O   UNL     1       0.002   0.031   0.022  0.00  0.00    -0.275 OA
BRANCH   9  13
ATOM     13  C   UNL     1       1.368   4.624  -0.300  0.00  0.00    +0.361 C 
ATOM     14  O   UNL     1       0.739   5.363  -1.019  0.00  0.00    -0.246 OA
ATOM     15  O   UNL     1       2.693   4.786  -0.166  0.00  0.00    -0.246 OA
ENDBRANCH   9  13
ENDBRANCH   4   7
BRANCH   1  16
ATOM     16  O   UNL     1      -6.271  -0.062   0.062  0.00  0.00    -0.456 OA
BRANCH  16  23
ATOM     17  C   UNL     1      -8.960  -0.921   0.178  0.00  0.00    +0.047 C 
ATOM     18  C   UNL     1      -8.352  -0.319  -1.063  0.00  0.00    -0.008 A 
ATOM     19  C   UNL     1      -9.117  -0.164  -2.203  0.00  0.00    +0.007 A 
ATOM     20  C   UNL     1      -8.557   0.383  -3.343  0.00  0.00    +0.000 A 
ATOM     21  C   UNL     1      -7.233   0.782  -3.344  0.00  0.00    +0.004 A 
ATOM     22  C   UNL     1      -6.466   0.634  -2.205  0.00  0.00    +0.046 A 
ATOM     23  C   UNL     1      -7.024   0.085  -1.059  0.00  0.00    +0.131 A 
ENDBRANCH  16  23
ENDBRANCH   1  16
TORSDOF 4
