REMARK  Name = ZINC47461194
REMARK  5 active torsions:
REMARK  status: ('A' for Active; 'I' for Inactive)
REMARK    1  A    between atoms: C_1  and  C_2
REMARK    2  A    between atoms: C_2  and  C_19
REMARK    3  A    between atoms: N_5  and  C_9
REMARK    4  A    between atoms: C_9  and  C_10
REMARK    5  A    between atoms: C_14  and  C_16
REMARK                            x       y       z     vdW  Elec       q    Type
REMARK                         _______ _______ _______ _____ _____    ______ ____
ROOT
ATOM      1  C   UNL     1       2.853  -1.896  -1.443  0.00  0.00    +0.153 C 
ENDROOT
BRANCH   1   6
ATOM      2  C   UNL     1      -0.019   1.526   0.010  0.00  0.00    +0.041 C 
ATOM      3  C   UNL     1       0.002  -0.004   0.002  0.00  0.00    +0.107 C 
ATOM      4  C   UNL     1       0.799  -0.520  -1.180  0.00  0.00    +0.246 C 
ATOM      5  O   UNL     1       0.564  -0.342  -2.356  0.00  0.00    -0.273 OA
ATOM      6  N   UNL     1       1.824  -1.217  -0.651  0.00  0.00    -0.220 N 
ATOM      7  C   UNL     1       1.786  -1.214   0.686  0.00  0.00    +0.310 C 
ATOM      8  O   UNL     1       2.604  -1.776   1.387  0.00  0.00    -0.252 OA
ATOM      9  N   UNL     1       0.740  -0.519   1.169  0.00  0.00    -0.285 N 
ATOM     10  C   UNL     1      -1.423  -0.560  -0.022  0.00  0.00    +0.041 C 
ATOM     11  H   UNL     1       0.515  -0.383   2.102  0.00  0.00    +0.151 HD
ENDBRANCH   1   6
BRANCH   1  12
ATOM     12  C   UNL     1       3.998  -0.950  -1.696  0.00  0.00    -0.029 A 
ATOM     13  C   UNL     1       3.989  -0.140  -2.818  0.00  0.00    +0.005 A 
ATOM     14  C   UNL     1       5.036   0.732  -3.057  0.00  0.00    +0.001 A 
ATOM     15  C   UNL     1       6.097   0.798  -2.178  0.00  0.00    +0.013 A 
ATOM     16  C   UNL     1       6.113  -0.016  -1.045  0.00  0.00    +0.037 A 
ATOM     17  C   UNL     1       5.050  -0.889  -0.806  0.00  0.00    +0.018 A 
BRANCH  16  18
ATOM     18  C   UNL     1       7.247   0.050  -0.098  0.00  0.00    +0.242 C 
ATOM     19  O   UNL     1       7.257  -0.661   0.888  0.00  0.00    -0.270 OA
ATOM     20  N   UNL     1       8.269   0.897  -0.329  0.00  0.00    -0.325 N 
ATOM     21  H   UNL     1       8.260   1.464  -1.116  0.00  0.00    +0.145 HD
ATOM     22  H   UNL     1       9.013   0.940   0.292  0.00  0.00    +0.145 HD
ENDBRANCH  16  18
ENDBRANCH   1  12
TORSDOF 3
