REMARK  Name = ZINC12706304
REMARK  9 active torsions:
REMARK  status: ('A' for Active; 'I' for Inactive)
REMARK    1  A    between atoms: C_3  and  N_8
REMARK    2  A    between atoms: N_8  and  C_9
REMARK    3  A    between atoms: C_9  and  C_11
REMARK    4  A    between atoms: C_9  and  C_16
REMARK    5  A    between atoms: N_18  and  C_19
REMARK    6  A    between atoms: C_19  and  C_20
REMARK    7  A    between atoms: C_26  and  C_28
REMARK    8  A    between atoms: C_29  and  N_36
REMARK    9  A    between atoms: C_30  and  C_33
REMARK                            x       y       z     vdW  Elec       q    Type
REMARK                         _______ _______ _______ _____ _____    ______ ____
ROOT
ATOM      1  N   UNL     1      -3.356   1.921   0.117  0.00  0.00    -0.248 N 
ATOM      2  C   UNL     1      -4.181   0.857   0.052  0.00  0.00    +0.262 C 
ATOM      3  O   UNL     1      -4.962   0.748  -0.875  0.00  0.00    -0.269 OA
ENDROOT
BRANCH   1   6
ATOM      4  C   UNL     1      -4.578   4.853  -1.736  0.00  0.00    +0.005 A 
ATOM      5  C   UNL     1      -4.490   3.851  -0.788  0.00  0.00    +0.024 A 
ATOM      6  C   UNL     1      -3.447   2.935  -0.842  0.00  0.00    +0.041 A 
ATOM      7  C   UNL     1      -2.493   3.031  -1.846  0.00  0.00    +0.062 A 
ATOM      8  C   UNL     1      -2.589   4.032  -2.795  0.00  0.00    +0.125 A 
ATOM      9  C   UNL     1      -3.630   4.944  -2.738  0.00  0.00    +0.038 A 
ATOM     10  F   UNL     1      -1.664   4.125  -3.776  0.00  0.00    -0.205 F 
ENDBRANCH   1   6
BRANCH   2  11
ATOM     11  C   UNL     1      -4.136  -0.169   1.096  0.00  0.00    +0.116 A 
ATOM     12  C   UNL     1      -4.984  -1.258   1.304  0.00  0.00    +0.076 A 
ATOM     13  C   UNL     1      -4.616  -2.018   2.414  0.00  0.00    +0.155 A 
ATOM     14  N   UNL     1      -3.566  -1.658   3.120  0.00  0.00    -0.203 NA
ATOM     15  S   UNL     1      -2.981  -0.364   2.437  0.00  0.00    +0.019 S 
BRANCH  13  16
ATOM     16  C   UNL     1      -5.395  -3.211   2.792  0.00  0.00    +0.262 C 
ATOM     17  O   UNL     1      -6.364  -3.538   2.135  0.00  0.00    -0.269 OA
ATOM     18  N   UNL     1      -5.032  -3.940   3.866  0.00  0.00    -0.324 N 
ATOM     19  H   UNL     1      -4.259  -3.679   4.391  0.00  0.00    +0.145 HD
ATOM     20  H   UNL     1      -5.545  -4.725   4.115  0.00  0.00    +0.145 HD
ENDBRANCH  13  16
BRANCH  12  21
ATOM     21  N   UNL     1      -6.074  -1.552   0.495  0.00  0.00    -0.355 N 
ATOM     22  H   UNL     1      -6.281  -0.986  -0.265  0.00  0.00    +0.142 HD
ATOM     23  H   UNL     1      -6.628  -2.324   0.690  0.00  0.00    +0.142 HD
ENDBRANCH  12  21
ENDBRANCH   2  11
BRANCH   1  24
ATOM     24  C   UNL     1      -2.365   2.015   1.191  0.00  0.00    +0.233 C 
BRANCH  24  25
ATOM     25  C   UNL     1      -1.087   1.344   0.756  0.00  0.00    +0.135 A 
ATOM     26  C   UNL     1      -0.297   0.579   1.530  0.00  0.00    +0.047 A 
ATOM     27  C   UNL     1       0.783   0.155   0.722  0.00  0.00    +0.041 A 
ATOM     28  C   UNL     1       0.592   0.694  -0.496  0.00  0.00    +0.195 A 
ATOM     29  O   UNL     1      -0.542   1.413  -0.470  0.00  0.00    -0.465 OA
ENDBRANCH  24  25
BRANCH  24  30
ATOM     30  C   UNL     1      -2.091   3.465   1.496  0.00  0.00    +0.242 C 
ATOM     31  O   UNL     1      -2.668   4.334   0.877  0.00  0.00    -0.273 OA
ATOM     32  N   UNL     1      -1.206   3.796   2.457  0.00  0.00    -0.311 N 
ATOM     33  H   UNL     1      -0.744   3.101   2.952  0.00  0.00    +0.149 HD
BRANCH  32  34
ATOM     34  C   UNL     1      -0.935   5.206   2.750  0.00  0.00    +0.135 C 
BRANCH  34  35
ATOM     35  C   UNL     1       0.105   5.304   3.868  0.00  0.00    +0.135 C 
ATOM     36  C   UNL     1       0.396   6.784   4.184  0.00  0.00    +0.035 C 
ATOM     37  C   UNL     1       0.043   6.929   5.684  0.00  0.00    +0.031 C 
ATOM     38  C   UNL     1       0.118   5.462   6.178  0.00  0.00    +0.160 C 
ATOM     39  O   UNL     1      -0.410   4.705   5.068  0.00  0.00    -0.375 OA
ENDBRANCH  34  35
ENDBRANCH  32  34
ENDBRANCH  24  30
ENDBRANCH   1  24
TORSDOF 9
