REMARK  Name = ZINC39690763
REMARK  9 active torsions:
REMARK  status: ('A' for Active; 'I' for Inactive)
REMARK    1  A    between atoms: C_1  and  C_2
REMARK    2  A    between atoms: C_2  and  C_3
REMARK    3  A    between atoms: C_2  and  C_4
REMARK    4  A    between atoms: C_4  and  C_6
REMARK    5  A    between atoms: C_4  and  O_30
REMARK    6  A    between atoms: C_10  and  C_19
REMARK    7  A    between atoms: N_21  and  C_22
REMARK    8  A    between atoms: C_22  and  C_23
REMARK    9  A    between atoms: O_30  and  C_31
REMARK                            x       y       z     vdW  Elec       q    Type
REMARK                         _______ _______ _______ _____ _____    ______ ____
ROOT
ATOM      1  C   UNL     1      -1.856  -0.033  -1.018  0.00  0.00    +0.257 C 
ATOM      2  O   UNL     1      -2.295  -0.685  -1.942  0.00  0.00    -0.272 OA
ATOM      3  N   UNL     1      -2.056   1.300  -0.980  0.00  0.00    -0.297 N 
ATOM      4  C   UNL     1      -1.516   2.271   0.000  0.00  0.00    +0.121 C 
ATOM      5  C   UNL     1      -1.157   3.516  -0.841  0.00  0.00    +0.100 C 
ATOM      6  C   UNL     1      -2.048   3.415  -2.091  0.00  0.00    -0.004 C 
ATOM      7  C   UNL     1      -2.861   2.125  -1.912  0.00  0.00    +0.115 C 
ATOM      8  C   UNL     1      -1.187   3.318  -3.347  0.00  0.00    -0.010 C 
ATOM      9  C   UNL     1      -2.093   3.276  -4.580  0.00  0.00    -0.082 C 
ATOM     10  N   UNL     1      -2.921   4.487  -4.622  0.00  0.00    +0.379 N 
ATOM     11  C   UNL     1      -3.813   4.526  -3.457  0.00  0.00    -0.082 C 
ATOM     12  C   UNL     1      -2.979   4.620  -2.176  0.00  0.00    -0.010 C 
ATOM     13  H   UNL     1      -2.325   5.301  -4.615  0.00  0.00    -0.086 HD
ATOM     14  H   UNL     1      -3.474   4.486  -5.467  0.00  0.00    -0.086 HD
ENDROOT
BRANCH   5  15
ATOM     15  C   UNL     1       0.299   3.486  -1.228  0.00  0.00    +0.218 C 
ATOM     16  O   UNL     1       0.845   2.427  -1.453  0.00  0.00    -0.275 OA
ATOM     17  N   UNL     1       0.995   4.637  -1.323  0.00  0.00    -0.311 N 
ATOM     18  H   UNL     1       0.579   5.477  -1.073  0.00  0.00    +0.149 HD
BRANCH  17  19
ATOM     19  C   UNL     1       2.378   4.619  -1.804  0.00  0.00    +0.140 C 
BRANCH  19  20
ATOM     20  C   UNL     1       2.965   6.003  -1.700  0.00  0.00    -0.016 A 
ATOM     21  C   UNL     1       3.074   6.794  -2.828  0.00  0.00    +0.006 A 
ATOM     22  C   UNL     1       3.611   8.064  -2.733  0.00  0.00    +0.000 A 
ATOM     23  C   UNL     1       4.040   8.544  -1.509  0.00  0.00    +0.001 A 
ATOM     24  C   UNL     1       3.931   7.753  -0.381  0.00  0.00    +0.015 A 
ATOM     25  C   UNL     1       3.389   6.484  -0.474  0.00  0.00    +0.023 A 
ATOM     26 BR   UNL     1       3.233   5.405   1.071  0.00  0.00    -0.050 Br
ENDBRANCH  19  20
ENDBRANCH  17  19
ENDBRANCH   5  15
BRANCH   1  27
ATOM     27  C   UNL     1      -1.087  -0.711   0.086  0.00  0.00    +0.261 C 
BRANCH  27  29
ATOM     28  C   UNL     1      -3.100  -1.976   0.852  0.00  0.00    +0.011 C 
ATOM     29  C   UNL     1      -2.020  -0.977   1.269  0.00  0.00    +0.033 C 
ATOM     30  C   UNL     1      -1.214  -1.553   2.435  0.00  0.00    +0.011 C 
ENDBRANCH  27  29
BRANCH  27  31
ATOM     31  O   UNL     1      -0.013   0.132   0.506  0.00  0.00    -0.479 OA
BRANCH  31  32
ATOM     32  C   UNL     1       1.133  -0.480   0.906  0.00  0.00    +0.122 A 
ATOM     33  C   UNL     1       1.255  -1.859   0.806  0.00  0.00    +0.045 A 
ATOM     34  C   UNL     1       2.420  -2.479   1.213  0.00  0.00    +0.004 A 
ATOM     35  C   UNL     1       3.465  -1.727   1.719  0.00  0.00    +0.000 A 
ATOM     36  C   UNL     1       3.345  -0.354   1.819  0.00  0.00    +0.004 A 
ATOM     37  C   UNL     1       2.184   0.272   1.408  0.00  0.00    +0.045 A 
ENDBRANCH  31  32
ENDBRANCH  27  31
ENDBRANCH   1  27
TORSDOF 7
