REMARK  Name = ZINC63882518
REMARK  8 active torsions:
REMARK  status: ('A' for Active; 'I' for Inactive)
REMARK    1  A    between atoms: C_1  and  C_2
REMARK    2  A    between atoms: C_4  and  C_17
REMARK    3  A    between atoms: N_12  and  C_13
REMARK    4  A    between atoms: C_13  and  C_14
REMARK    5  A    between atoms: C_17  and  N_18
REMARK    6  A    between atoms: N_18  and  C_19
REMARK    7  A    between atoms: C_19  and  C_20
REMARK    8  A    between atoms: C_25  and  C_26
REMARK                            x       y       z     vdW  Elec       q    Type
REMARK                         _______ _______ _______ _____ _____    ______ ____
ROOT
ATOM      1  C   UNL     1      -0.019   1.526   0.010  0.00  0.00    +0.028 C 
ATOM      2  C   UNL     1       0.002  -0.004   0.002  0.00  0.00    +0.077 C 
ATOM      3  C   UNL     1       0.748  -0.521  -1.239  0.00  0.00    +0.024 C 
ATOM      4  C   UNL     1       1.915  -1.304  -0.682  0.00  0.00    -0.023 A 
ATOM      5  C   UNL     1       2.929  -1.994  -1.317  0.00  0.00    +0.006 A 
ATOM      6  C   UNL     1       3.900  -2.642  -0.576  0.00  0.00    +0.000 A 
ATOM      7  C   UNL     1       3.853  -2.597   0.806  0.00  0.00    +0.002 A 
ATOM      8  C   UNL     1       2.844  -1.909   1.444  0.00  0.00    +0.023 A 
ATOM      9  C   UNL     1       1.860  -1.252   0.702  0.00  0.00    +0.034 A 
ATOM     10  N   UNL     1       0.764  -0.508   1.148  0.00  0.00    -0.318 N 
ENDROOT
BRANCH  10  11
ATOM     11  C   UNL     1       0.425  -0.267   2.553  0.00  0.00    +0.200 C 
BRANCH  11  12
ATOM     12  C   UNL     1      -0.486  -1.362   3.045  0.00  0.00    +0.228 C 
ATOM     13  O   UNL     1      -0.820  -2.255   2.296  0.00  0.00    -0.274 OA
ATOM     14  N   UNL     1      -0.930  -1.348   4.317  0.00  0.00    -0.328 N 
ATOM     15  H   UNL     1      -0.663  -0.633   4.916  0.00  0.00    +0.145 HD
ATOM     16  H   UNL     1      -1.517  -2.052   4.634  0.00  0.00    +0.145 HD
ENDBRANCH  11  12
ENDBRANCH  10  11
BRANCH   3  17
ATOM     17  C   UNL     1      -0.161  -1.430  -2.068  0.00  0.00    -0.073 C 
BRANCH  17  18
ATOM     18  N   UNL     1       0.529  -1.815  -3.307  0.00  0.00    +0.380 N 
ATOM     19  H   UNL     1       0.752  -0.987  -3.839  0.00  0.00    -0.086 HD
ATOM     20  H   UNL     1       1.380  -2.307  -3.079  0.00  0.00    -0.086 HD
BRANCH  18  21
ATOM     21  C   UNL     1      -0.344  -2.688  -4.103  0.00  0.00    -0.067 C 
BRANCH  21  22
ATOM     22  C   UNL     1       0.375  -3.088  -5.393  0.00  0.00    +0.066 C 
ATOM     23  C   UNL     1       0.535  -1.892  -6.309  0.00  0.00    +0.115 C 
ATOM     24  N   UNL     1      -0.115  -2.179  -7.390  0.00  0.00    -0.161 NA
ATOM     25  N   UNL     1      -0.710  -3.435  -7.336  0.00  0.00    -0.153 NA
ATOM     26  C   UNL     1      -0.476  -4.046  -6.204  0.00  0.00    +0.077 C 
BRANCH  26  27
ATOM     27  C   UNL     1      -0.941  -5.382  -5.798  0.00  0.00    -0.001 A 
ATOM     28  C   UNL     1      -0.605  -5.891  -4.540  0.00  0.00    +0.010 A 
ATOM     29  C   UNL     1      -1.044  -7.144  -4.167  0.00  0.00    +0.001 A 
ATOM     30  C   UNL     1      -1.815  -7.897  -5.035  0.00  0.00    +0.000 A 
ATOM     31  C   UNL     1      -2.151  -7.401  -6.283  0.00  0.00    +0.001 A 
ATOM     32  C   UNL     1      -1.725  -6.147  -6.667  0.00  0.00    +0.010 A 
ENDBRANCH  26  27
ENDBRANCH  21  22
ENDBRANCH  18  21
ENDBRANCH  17  18
ENDBRANCH   3  17
TORSDOF 7
