REMARK  Name = ZINC65933126
REMARK  12 active torsions:
REMARK  status: ('A' for Active; 'I' for Inactive)
REMARK    1  A    between atoms: C_1  and  C_2
REMARK    2  A    between atoms: C_2  and  C_3
REMARK    3  A    between atoms: C_2  and  N_15
REMARK    4  A    between atoms: C_6  and  O_11
REMARK    5  A    between atoms: C_7  and  O_9
REMARK    6  A    between atoms: O_9  and  C_10
REMARK    7  A    between atoms: O_11  and  C_12
REMARK    8  A    between atoms: C_12  and  C_13
REMARK    9  A    between atoms: C_13  and  O_14
REMARK   10  A    between atoms: N_15  and  C_16
REMARK   11  A    between atoms: C_16  and  C_17
REMARK   12  A    between atoms: C_22  and  C_23
REMARK                            x       y       z     vdW  Elec       q    Type
REMARK                         _______ _______ _______ _____ _____    ______ ____
ROOT
ATOM      1  N   UNL     1       0.724  -0.263  -1.240  0.00  0.00    +0.386 N 
ATOM      2  H   UNL     1       0.551  -1.252  -1.345  0.00  0.00    -0.085 HD
ATOM      3  H   UNL     1       0.359   0.230  -2.041  0.00  0.00    -0.085 HD
ENDROOT
BRANCH   1   5
ATOM      4  C   UNL     1       0.219   1.742   0.072  0.00  0.00    -0.009 C 
ATOM      5  C   UNL     1       0.062   0.223  -0.022  0.00  0.00    -0.043 C 
BRANCH   5   6
ATOM      6  C   UNL     1      -1.403  -0.128  -0.073  0.00  0.00    -0.058 A 
ATOM      7  C   UNL     1      -2.097  -0.022  -1.264  0.00  0.00    +0.006 A 
ATOM      8  C   UNL     1      -3.441  -0.343  -1.315  0.00  0.00    +0.049 A 
ATOM      9  C   UNL     1      -4.094  -0.773  -0.172  0.00  0.00    +0.162 A 
ATOM     10  C   UNL     1      -3.396  -0.880   1.027  0.00  0.00    +0.162 A 
ATOM     11  C   UNL     1      -2.048  -0.561   1.071  0.00  0.00    +0.051 A 
BRANCH  10  12
ATOM     12  O   UNL     1      -4.033  -1.302   2.152  0.00  0.00    -0.491 OA
ATOM     13  C   UNL     1      -3.252  -1.388   3.346  0.00  0.00    +0.277 C 
ENDBRANCH  10  12
BRANCH   9  14
ATOM     14  O   UNL     1      -5.416  -1.088  -0.220  0.00  0.00    -0.486 OA
BRANCH  14  15
ATOM     15  C   UNL     1      -6.069  -0.954  -1.484  0.00  0.00    +0.257 C 
BRANCH  15  16
ATOM     16  C   UNL     1      -7.540  -1.351  -1.343  0.00  0.00    +0.196 C 
BRANCH  16  17
ATOM     17  O   UNL     1      -8.202  -0.428  -0.476  0.00  0.00    -0.392 OA
ATOM     18  H   UNL     1      -9.140  -0.619  -0.341  0.00  0.00    +0.210 HD
ENDBRANCH  16  17
ENDBRANCH  15  16
ENDBRANCH  14  15
ENDBRANCH   9  14
ENDBRANCH   5   6
ENDBRANCH   1   5
BRANCH   1  19
ATOM     19  C   UNL     1       2.171  -0.028  -1.138  0.00  0.00    -0.042 C 
BRANCH  19  20
ATOM     20  C   UNL     1       2.865  -0.641  -2.327  0.00  0.00    -0.019 A 
ATOM     21  C   UNL     1       3.551  -1.804  -2.335  0.00  0.00    +0.107 A 
ATOM     22  N   UNL     1       4.019  -2.004  -3.586  0.00  0.00    -0.284 N 
ATOM     23  H   UNL     1       4.547  -2.762  -3.882  0.00  0.00    +0.188 HD
ATOM     24  N   UNL     1       3.609  -0.927  -4.382  0.00  0.00    -0.174 NA
ATOM     25  C   UNL     1       2.907  -0.106  -3.629  0.00  0.00    +0.094 A 
BRANCH  25  26
ATOM     26  C   UNL     1       2.277   1.162  -4.073  0.00  0.00    +0.002 A 
ATOM     27  C   UNL     1       2.369   2.304  -3.279  0.00  0.00    +0.013 A 
ATOM     28  C   UNL     1       1.781   3.481  -3.696  0.00  0.00    +0.039 A 
ATOM     29  C   UNL     1       1.100   3.528  -4.901  0.00  0.00    +0.123 A 
ATOM     30  C   UNL     1       1.006   2.396  -5.694  0.00  0.00    +0.039 A 
ATOM     31  C   UNL     1       1.596   1.216  -5.288  0.00  0.00    +0.013 A 
ATOM     32  F   UNL     1       0.525   4.682  -5.305  0.00  0.00    -0.205 F 
ENDBRANCH  25  26
ENDBRANCH  19  20
ENDBRANCH   1  19
TORSDOF 10
