REMARK  Name = ZINC16347491
REMARK  7 active torsions:
REMARK  status: ('A' for Active; 'I' for Inactive)
REMARK    1  A    between atoms: C_1  and  C_2
REMARK    2  A    between atoms: C_5  and  N_24
REMARK    3  A    between atoms: C_7  and  N_8
REMARK    4  A    between atoms: N_11  and  C_12
REMARK    5  A    between atoms: C_12  and  C_13
REMARK    6  A    between atoms: N_27  and  C_28
REMARK    7  A    between atoms: C_28  and  C_29
REMARK                            x       y       z     vdW  Elec       q    Type
REMARK                         _______ _______ _______ _____ _____    ______ ____
ROOT
ATOM      1  C   UNL     1      -1.354 -10.375  -0.890  0.00  0.00    +0.045 C 
ATOM      2  C   UNL     1      -1.295  -8.872  -0.982  0.00  0.00    -0.029 A 
ATOM      3  C   UNL     1      -0.388  -8.168  -0.213  0.00  0.00    +0.007 A 
ATOM      4  C   UNL     1      -0.328  -6.791  -0.299  0.00  0.00    +0.024 A 
ATOM      5  C   UNL     1      -1.187  -6.108  -1.151  0.00  0.00    +0.037 A 
ATOM      6  C   UNL     1      -2.099  -6.811  -1.924  0.00  0.00    +0.047 A 
ATOM      7  C   UNL     1      -2.154  -8.195  -1.840  0.00  0.00    +0.039 A 
ENDROOT
BRANCH   7   8
ATOM      8  N   UNL     1      -3.072  -8.909  -2.619  0.00  0.00    -0.269 N 
ATOM      9  C   UNL     1      -4.155  -8.286  -3.123  0.00  0.00    +0.304 C 
ATOM     10  O   UNL     1      -4.388  -7.131  -2.821  0.00  0.00    -0.253 OA
ATOM     11  N   UNL     1      -4.980  -8.942  -3.963  0.00  0.00    -0.296 N 
ATOM     12  H   UNL     1      -2.929  -9.852  -2.795  0.00  0.00    +0.156 HD
ATOM     13  H   UNL     1      -4.794  -9.863  -4.204  0.00  0.00    +0.150 HD
BRANCH  11  14
ATOM     14  C   UNL     1      -6.157  -8.265  -4.512  0.00  0.00    +0.153 C 
BRANCH  14  15
ATOM     15  C   UNL     1      -6.917  -9.226  -5.429  0.00  0.00    +0.228 C 
ATOM     16  C   UNL     1      -8.144  -8.517  -6.018  0.00  0.00    +0.275 C 
ATOM     17  O   UNL     1      -8.822  -9.438  -6.880  0.00  0.00    -0.485 OA
ATOM     18  C   UNL     1      -8.050 -10.142  -7.752  0.00  0.00    +0.162 A 
ATOM     19  C   UNL     1      -8.646 -10.768  -8.836  0.00  0.00    +0.049 A 
ATOM     20  C   UNL     1      -7.876 -11.492  -9.727  0.00  0.00    +0.004 A 
ATOM     21  C   UNL     1      -6.510 -11.594  -9.539  0.00  0.00    +0.004 A 
ATOM     22  C   UNL     1      -5.910 -10.972  -8.462  0.00  0.00    +0.049 A 
ATOM     23  C   UNL     1      -6.676 -10.242  -7.565  0.00  0.00    +0.163 A 
ATOM     24  O   UNL     1      -6.071  -9.632  -6.510  0.00  0.00    -0.480 OA
ENDBRANCH  14  15
ENDBRANCH  11  14
ENDBRANCH   7   8
BRANCH   5  25
ATOM     25  N   UNL     1      -1.129  -4.712  -1.233  0.00  0.00    -0.269 N 
ATOM     26  C   UNL     1      -0.816  -3.985  -0.142  0.00  0.00    +0.304 C 
ATOM     27  O   UNL     1      -0.680  -4.533   0.935  0.00  0.00    -0.253 OA
ATOM     28  N   UNL     1      -0.654  -2.651  -0.245  0.00  0.00    -0.296 N 
ATOM     29  H   UNL     1      -1.313  -4.268  -2.075  0.00  0.00    +0.156 HD
ATOM     30  H   UNL     1      -0.763  -2.214  -1.104  0.00  0.00    +0.150 HD
BRANCH  28  31
ATOM     31  C   UNL     1      -0.314  -1.861   0.941  0.00  0.00    +0.153 C 
BRANCH  31  32
ATOM     32  C   UNL     1      -0.189  -0.386   0.552  0.00  0.00    +0.228 C 
ATOM     33  C   UNL     1       0.260   0.434   1.769  0.00  0.00    +0.275 C 
ATOM     34  O   UNL     1       0.354   1.807   1.374  0.00  0.00    -0.485 OA
ATOM     35  C   UNL     1      -0.686   2.308   0.653  0.00  0.00    +0.162 A 
ATOM     36  C   UNL     1      -0.840   3.683   0.546  0.00  0.00    +0.049 A 
ATOM     37  C   UNL     1      -1.888   4.207  -0.186  0.00  0.00    +0.004 A 
ATOM     38  C   UNL     1      -2.787   3.364  -0.813  0.00  0.00    +0.004 A 
ATOM     39  C   UNL     1      -2.644   1.994  -0.703  0.00  0.00    +0.049 A 
ATOM     40  C   UNL     1      -1.591   1.461   0.026  0.00  0.00    +0.163 A 
ATOM     41  O   UNL     1      -1.462   0.109   0.122  0.00  0.00    -0.480 OA
ENDBRANCH  31  32
ENDBRANCH  28  31
ENDBRANCH   5  25
TORSDOF 6
