REMARK  Name = ZINC45068648
REMARK  5 active torsions:
REMARK  status: ('A' for Active; 'I' for Inactive)
REMARK    1  A    between atoms: C_1  and  C_2
REMARK    2  A    between atoms: C_5  and  S_9
REMARK    3  A    between atoms: C_7  and  N_8
REMARK    4  A    between atoms: S_9  and  N_12
REMARK    5  A    between atoms: C_16  and  C_18
REMARK                            x       y       z     vdW  Elec       q    Type
REMARK                         _______ _______ _______ _____ _____    ______ ____
ROOT
ATOM      1  S   UNL     1       0.189  -4.897  -0.375  0.00  0.00    +0.061 S 
ATOM      2  O   UNL     1      -0.431  -5.055   0.893  0.00  0.00    -0.153 OA
ATOM      3  O   UNL     1      -0.201  -5.653  -1.514  0.00  0.00    -0.153 OA
ENDROOT
BRANCH   1   8
ATOM      4  C   UNL     1      -0.418   0.917  -1.892  0.00  0.00    +0.045 C 
ATOM      5  C   UNL     1      -0.267  -0.534  -1.512  0.00  0.00    -0.030 A 
ATOM      6  C   UNL     1      -0.086  -1.490  -2.491  0.00  0.00    +0.007 A 
ATOM      7  C   UNL     1       0.053  -2.821  -2.143  0.00  0.00    +0.029 A 
ATOM      8  C   UNL     1       0.012  -3.199  -0.814  0.00  0.00    +0.107 A 
ATOM      9  C   UNL     1      -0.168  -2.248   0.171  0.00  0.00    +0.051 A 
ATOM     10  C   UNL     1      -0.303  -0.909  -0.175  0.00  0.00    +0.029 A 
BRANCH  10  11
ATOM     11  N   UNL     1      -0.480   0.056   0.819  0.00  0.00    -0.358 N 
ATOM     12  H   UNL     1      -0.578   0.990   0.576  0.00  0.00    +0.142 HD
ATOM     13  H   UNL     1      -0.505  -0.207   1.752  0.00  0.00    +0.142 HD
ENDBRANCH  10  11
ENDBRANCH   1   8
BRANCH   1  14
ATOM     14  N   UNL     1       1.805  -5.178  -0.151  0.00  0.00    -0.173 NA
ATOM     15  C   UNL     1       2.780  -5.485  -1.214  0.00  0.00    +0.110 C 
ATOM     16  C   UNL     1       4.149  -5.051  -0.633  0.00  0.00    +0.019 C 
ATOM     17  C   UNL     1       3.996  -5.451   0.858  0.00  0.00    +0.022 C 
ATOM     18  C   UNL     1       2.507  -5.158   1.141  0.00  0.00    +0.083 C 
BRANCH  18  19
ATOM     19  C   UNL     1       1.934  -6.237   2.062  0.00  0.00    +0.008 C 
ATOM     20  C   UNL     1       2.725  -6.278   3.385  0.00  0.00    +0.005 C 
ATOM     21  C   UNL     1       2.786  -7.783   3.745  0.00  0.00    +0.000 C 
ATOM     22  C   UNL     1       2.974  -8.457   2.364  0.00  0.00    +0.000 C 
ATOM     23  C   UNL     1       2.092  -7.623   1.412  0.00  0.00    +0.005 C 
ENDBRANCH  18  19
ENDBRANCH   1  14
TORSDOF 4
