REMARK  Name = ZINC01647969
REMARK  6 active torsions:
REMARK  status: ('A' for Active; 'I' for Inactive)
REMARK    1  A    between atoms: C_4  and  C_7
REMARK    2  A    between atoms: N_8  and  N_9
REMARK    3  A    between atoms: C_10  and  C_19
REMARK    4  A    between atoms: C_11  and  C_17
REMARK    5  A    between atoms: C_12  and  C_15
REMARK    6  A    between atoms: C_13  and  N_14
REMARK                            x       y       z     vdW  Elec       q    Type
REMARK                         _______ _______ _______ _____ _____    ______ ____
ROOT
ATOM      1  N   UNL     1       0.002  -0.004   0.002  0.00  0.00    -0.216 N 
ATOM      2  C   UNL     1       1.294  -0.466  -0.013  0.00  0.00    +0.093 A 
ATOM      3  C   UNL     1       2.153   0.623  -0.015  0.00  0.00    +0.098 A 
ATOM      4  C   UNL     1       1.291   1.822  -0.001  0.00  0.00    +0.111 A 
ATOM      5  C   UNL     1      -0.016   1.358   0.009  0.00  0.00    +0.137 A 
ENDROOT
BRANCH   2   6
ATOM      6  C   UNL     1       1.702  -1.884  -0.025  0.00  0.00    +0.002 A 
ATOM      7  C   UNL     1       1.086  -2.799   0.834  0.00  0.00    +0.010 A 
ATOM      8  C   UNL     1       1.469  -4.123   0.813  0.00  0.00    +0.001 A 
ATOM      9  C   UNL     1       2.467  -4.546  -0.048  0.00  0.00    +0.000 A 
ATOM     10  C   UNL     1       3.084  -3.644  -0.897  0.00  0.00    +0.001 A 
ATOM     11  C   UNL     1       2.708  -2.317  -0.891  0.00  0.00    +0.010 A 
ENDBRANCH   2   6
BRANCH   5  12
ATOM     12  N   UNL     1      -1.149   2.147   0.019  0.00  0.00    -0.342 N 
ATOM     13  H   UNL     1      -2.027   1.734   0.021  0.00  0.00    +0.144 HD
ATOM     14  H   UNL     1      -1.068   3.113   0.024  0.00  0.00    +0.144 HD
ENDBRANCH   5  12
BRANCH   1  16
ATOM     15  C   UNL     1      -1.677  -1.190  -1.112  0.00  0.00    +0.141 C 
ATOM     16  N   UNL     1      -1.138  -0.819   0.009  0.00  0.00    -0.173 NA
BRANCH  15  20
ATOM     17  C   UNL     1      -5.130  -3.658  -1.091  0.00  0.00    +0.000 A 
ATOM     18  C   UNL     1      -4.581  -3.252  -2.294  0.00  0.00    +0.001 A 
ATOM     19  C   UNL     1      -3.459  -2.450  -2.309  0.00  0.00    +0.009 A 
ATOM     20  C   UNL     1      -2.877  -2.047  -1.104  0.00  0.00    -0.005 A 
ATOM     21  C   UNL     1      -3.432  -2.466   0.107  0.00  0.00    +0.009 A 
ATOM     22  C   UNL     1      -4.558  -3.263   0.106  0.00  0.00    +0.001 A 
ENDBRANCH  15  20
ENDBRANCH   1  16
BRANCH   4  23
ATOM     23  C   UNL     1       1.719   3.189   0.003  0.00  0.00    +0.104 C 
ATOM     24  N   UNL     1       2.058   4.273   0.005  0.00  0.00    -0.191 NA
ENDBRANCH   4  23
BRANCH   3  25
ATOM     25  C   UNL     1       3.584   0.592  -0.030  0.00  0.00    +0.103 C 
ATOM     26  N   UNL     1       4.720   0.566  -0.041  0.00  0.00    -0.191 NA
ENDBRANCH   3  25
TORSDOF 6
