REMARK  Name = ZINC57663355
REMARK  13 active torsions:
REMARK  status: ('A' for Active; 'I' for Inactive)
REMARK    1  A    between atoms: C_1  and  C_2
REMARK    2  A    between atoms: C_2  and  C_3
REMARK    3  A    between atoms: C_2  and  O_4
REMARK    4  A    between atoms: O_4  and  C_5
REMARK    5  A    between atoms: C_8  and  C_12
REMARK    6  A    between atoms: C_10  and  N_11
REMARK    7  A    between atoms: C_12  and  C_14
REMARK    8  A    between atoms: C_12  and  O_25
REMARK    9  A    between atoms: C_14  and  C_15
REMARK   10  A    between atoms: C_15  and  N_16
REMARK   11  A    between atoms: N_16  and  C_17
REMARK   12  A    between atoms: N_16  and  C_18
REMARK   13  A    between atoms: C_18  and  C_19
REMARK                            x       y       z     vdW  Elec       q    Type
REMARK                         _______ _______ _______ _____ _____    ______ ____
ROOT
ATOM      1  C   UNL     1      -2.335  -5.229  -2.888  0.00  0.00    +0.143 C 
ENDROOT
BRANCH   1   5
ATOM      2  C   UNL     1      -1.580  -1.640  -0.687  0.00  0.00    +0.141 A 
ATOM      3  C   UNL     1      -0.533  -2.329  -1.276  0.00  0.00    +0.048 A 
ATOM      4  C   UNL     1      -0.780  -3.489  -1.987  0.00  0.00    +0.010 A 
ATOM      5  C   UNL     1      -2.072  -3.965  -2.112  0.00  0.00    -0.017 A 
ATOM      6  C   UNL     1      -3.123  -3.284  -1.527  0.00  0.00    +0.032 A 
ATOM      7  C   UNL     1      -2.882  -2.122  -0.808  0.00  0.00    +0.067 A 
BRANCH   7   8
ATOM      8  N   UNL     1      -3.944  -1.434  -0.209  0.00  0.00    -0.355 N 
ATOM      9  H   UNL     1      -3.774  -0.620   0.290  0.00  0.00    +0.142 HD
ATOM     10  H   UNL     1      -4.849  -1.771  -0.294  0.00  0.00    +0.142 HD
ENDBRANCH   7   8
BRANCH   2  11
ATOM     11  O   UNL     1      -1.339  -0.499   0.012  0.00  0.00    -0.488 OA
BRANCH  11  13
ATOM     12  C   UNL     1      -0.011   1.505   0.263  0.00  0.00    +0.051 C 
ATOM     13  C   UNL     1       0.001  -0.002  -0.000  0.00  0.00    +0.167 C 
ATOM     14  C   UNL     1       0.815  -0.703   1.089  0.00  0.00    +0.051 C 
ENDBRANCH  11  13
ENDBRANCH   2  11
ENDBRANCH   1   5
BRANCH   1  15
ATOM     15  O   UNL     1      -1.308  -6.183  -2.609  0.00  0.00    -0.387 OA
ATOM     16  H   UNL     1      -0.419  -5.883  -2.844  0.00  0.00    +0.210 HD
ENDBRANCH   1  15
BRANCH   1  17
ATOM     17  C   UNL     1      -2.346  -4.916  -4.386  0.00  0.00    +0.017 C 
BRANCH  17  18
ATOM     18  C   UNL     1      -2.736  -6.172  -5.167  0.00  0.00    -0.076 C 
BRANCH  18  19
ATOM     19  N   UNL     1      -2.746  -5.870  -6.605  0.00  0.00    +0.381 N 
ATOM     20  C   UNL     1      -1.383  -5.545  -7.047  0.00  0.00    -0.096 C 
ATOM     21  H   UNL     1      -3.353  -5.084  -6.779  0.00  0.00    -0.082 HD
BRANCH  19  22
ATOM     22  C   UNL     1      -3.235  -7.040  -7.347  0.00  0.00    -0.043 C 
BRANCH  22  23
ATOM     23  C   UNL     1      -3.362  -6.691  -8.808  0.00  0.00    -0.064 A 
ATOM     24  C   UNL     1      -4.547  -6.170  -9.293  0.00  0.00    +0.002 A 
ATOM     25  C   UNL     1      -4.663  -5.851 -10.633  0.00  0.00    +0.000 A 
ATOM     26  C   UNL     1      -3.595  -6.051 -11.487  0.00  0.00    +0.000 A 
ATOM     27  C   UNL     1      -2.410  -6.571 -11.001  0.00  0.00    +0.000 A 
ATOM     28  C   UNL     1      -2.292  -6.887  -9.661  0.00  0.00    +0.002 A 
ENDBRANCH  22  23
ENDBRANCH  19  22
ENDBRANCH  18  19
ENDBRANCH  17  18
ENDBRANCH   1  17
TORSDOF 10
