REMARK  Name = ZINC65499076
REMARK  11 active torsions:
REMARK  status: ('A' for Active; 'I' for Inactive)
REMARK    1  A    between atoms: C_1  and  C_2
REMARK    2  A    between atoms: C_4  and  C_8
REMARK    3  A    between atoms: C_5  and  C_7
REMARK    4  A    between atoms: C_8  and  C_9
REMARK    5  A    between atoms: C_8  and  N_10
REMARK    6  A    between atoms: N_13  and  N_14
REMARK    7  A    between atoms: C_18  and  S_21
REMARK    8  A    between atoms: S_21  and  N_24
REMARK    9  A    between atoms: N_24  and  C_25
REMARK   10  A    between atoms: C_25  and  C_26
REMARK   11  A    between atoms: C_25  and  C_27
REMARK                            x       y       z     vdW  Elec       q    Type
REMARK                         _______ _______ _______ _____ _____    ______ ____
ROOT
ATOM      1  N   UNL     1      -5.191  -2.514  -1.644  0.00  0.00    -0.247 N 
ATOM      2  C   UNL     1      -6.439  -2.238  -2.191  0.00  0.00    +0.135 A 
ATOM      3  C   UNL     1      -6.936  -0.939  -2.153  0.00  0.00    +0.047 A 
ATOM      4  C   UNL     1      -8.179  -0.678  -2.701  0.00  0.00    +0.033 A 
ATOM      5  C   UNL     1      -8.886  -1.729  -3.271  0.00  0.00    +0.123 A 
ATOM      6  C   UNL     1      -8.332  -2.993  -3.274  0.00  0.00    +0.141 A 
ATOM      7  N   UNL     1      -7.142  -3.212  -2.748  0.00  0.00    -0.237 NA
ATOM      8  H   UNL     1      -4.673  -1.803  -1.235  0.00  0.00    +0.172 HD
ENDROOT
BRANCH   1  12
ATOM      9  N   UNL     1      -2.752  -3.099  -0.586  0.00  0.00    -0.292 N 
ATOM     10  C   UNL     1      -3.473  -4.086  -1.154  0.00  0.00    +0.316 C 
ATOM     11  O   UNL     1      -3.031  -5.219  -1.188  0.00  0.00    -0.251 OA
ATOM     12  N   UNL     1      -4.682  -3.818  -1.684  0.00  0.00    -0.219 N 
ATOM     13  H   UNL     1      -3.105  -2.196  -0.558  0.00  0.00    +0.151 HD
ATOM     14  H   UNL     1      -5.201  -4.529  -2.093  0.00  0.00    +0.174 HD
BRANCH   9  15
ATOM     15  C   UNL     1      -1.437  -3.390  -0.009  0.00  0.00    +0.105 C 
ATOM     16  C   UNL     1      -1.609  -3.892   1.426  0.00  0.00    +0.033 C 
BRANCH  15  20
ATOM     17  C   UNL     1      -0.018   1.503   0.010  0.00  0.00    +0.086 C 
ATOM     18  C   UNL     1       0.002  -0.004   0.002  0.00  0.00    +0.103 A 
ATOM     19  C   UNL     1      -1.078  -0.805   0.003  0.00  0.00    +0.050 A 
ATOM     20  C   UNL     1      -0.601  -2.136  -0.007  0.00  0.00    +0.013 A 
ATOM     21  C   UNL     1       0.742  -2.069  -0.013  0.00  0.00    +0.107 A 
ATOM     22  O   UNL     1       1.102  -0.775  -0.013  0.00  0.00    -0.465 OA
ATOM     23  C   UNL     1       1.684  -3.245  -0.023  0.00  0.00    +0.086 C 
ENDBRANCH  15  20
ENDBRANCH   9  15
ENDBRANCH   1  12
BRANCH   5  24
ATOM     24  S   UNL     1     -10.473  -1.451  -3.983  0.00  0.00    +0.060 S 
ATOM     25  O   UNL     1     -11.153  -2.699  -3.958  0.00  0.00    -0.153 OA
ATOM     26  O   UNL     1     -10.998  -0.285  -3.363  0.00  0.00    -0.153 OA
BRANCH  24  27
ATOM     27  N   UNL     1     -10.236  -1.073  -5.577  0.00  0.00    -0.187 NA
ATOM     28  H   UNL     1     -10.470  -0.191  -5.907  0.00  0.00    +0.148 HD
BRANCH  27  29
ATOM     29  C   UNL     1      -9.673  -2.071  -6.491  0.00  0.00    +0.070 C 
ATOM     30  C   UNL     1     -10.809  -2.801  -7.210  0.00  0.00    +0.025 C 
ATOM     31  C   UNL     1      -8.781  -1.374  -7.520  0.00  0.00    +0.025 C 
ENDBRANCH  27  29
ENDBRANCH  24  27
ENDBRANCH   5  24
TORSDOF 6
