REMARK  Name = ZINC35163843
REMARK  6 active torsions:
REMARK  status: ('A' for Active; 'I' for Inactive)
REMARK    1  A    between atoms: C_1  and  C_2
REMARK    2  A    between atoms: C_1  and  S_21
REMARK    3  A    between atoms: C_11  and  C_13
REMARK    4  A    between atoms: C_13  and  S_14
REMARK    5  A    between atoms: S_14  and  C_15
REMARK    6  A    between atoms: S_21  and  C_22
REMARK                            x       y       z     vdW  Elec       q    Type
REMARK                         _______ _______ _______ _____ _____    ______ ____
ROOT
ATOM      1  C   UNL     1       0.002  -0.004   0.002  0.00  0.00    +0.229 C 
ATOM      2  O   UNL     1       1.060  -0.596  -0.011  0.00  0.00    -0.275 OA
ATOM      3  N   UNL     1      -1.156  -0.694   0.009  0.00  0.00    -0.264 N 
ATOM      4  C   UNL     1      -1.137  -2.088   0.002  0.00  0.00    +0.211 A 
ATOM      5  C   UNL     1      -2.314  -2.962   0.002  0.00  0.00    +0.211 A 
ATOM      6  N   UNL     1      -1.905  -4.200  -0.007  0.00  0.00    -0.032 NA
ATOM      7  O   UNL     1      -0.488  -4.190  -0.013  0.00  0.00    -0.239 OA
ATOM      8  N   UNL     1      -0.070  -2.837  -0.013  0.00  0.00    -0.032 NA
ATOM      9  N   UNL     1      -3.643  -2.542   0.012  0.00  0.00    -0.264 N 
ATOM     10  C   UNL     1      -4.638  -3.451   0.011  0.00  0.00    +0.229 C 
ATOM     11  O   UNL     1      -4.377  -4.635   0.003  0.00  0.00    -0.275 OA
ATOM     12  H   UNL     1      -2.002  -0.220   0.020  0.00  0.00    +0.156 HD
ATOM     13  H   UNL     1      -3.852  -1.594   0.018  0.00  0.00    +0.156 HD
ENDROOT
BRANCH   1  14
ATOM     14  C   UNL     1      -0.018   1.503   0.010  0.00  0.00    +0.172 C 
BRANCH  14  15
ATOM     15  S   UNL     1       1.683   2.131  -0.003  0.00  0.00    -0.088 S 
BRANCH  15  16
ATOM     16  C   UNL     1       1.492   3.882   0.009  0.00  0.00    +0.160 A 
ATOM     17  N   UNL     1       0.386   4.602   0.029  0.00  0.00    -0.133 NA
ATOM     18  N   UNL     1       0.464   5.976   0.035  0.00  0.00    -0.125 NA
ATOM     19  C   UNL     1       1.643   6.566   0.020  0.00  0.00    +0.180 A 
ATOM     20  S   UNL     1       2.742   5.158   0.004  0.00  0.00    -0.025 S 
ATOM     21  N   UNL     1       1.949   7.922   0.022  0.00  0.00    -0.336 N 
ATOM     22  H   UNL     1       1.236   8.580   0.037  0.00  0.00    +0.144 HD
ATOM     23  H   UNL     1       2.875   8.210   0.009  0.00  0.00    +0.144 HD
ENDBRANCH  15  16
ENDBRANCH  14  15
ENDBRANCH   1  14
BRANCH  10  24
ATOM     24  C   UNL     1      -6.074  -2.996   0.021  0.00  0.00    +0.172 C 
BRANCH  24  25
ATOM     25  S   UNL     1      -7.167  -4.444   0.018  0.00  0.00    -0.088 S 
BRANCH  25  26
ATOM     26  C   UNL     1      -8.789  -3.755   0.030  0.00  0.00    +0.160 A 
ATOM     27  N   UNL     1      -9.159  -2.489   0.034  0.00  0.00    -0.133 NA
ATOM     28  N   UNL     1     -10.496  -2.167   0.043  0.00  0.00    -0.125 NA
ATOM     29  C   UNL     1     -11.402  -3.125   0.049  0.00  0.00    +0.180 A 
ATOM     30  S   UNL     1     -10.371  -4.584   0.033  0.00  0.00    -0.025 S 
ATOM     31  N   UNL     1     -12.788  -3.026   0.058  0.00  0.00    -0.336 N 
ATOM     32  H   UNL     1     -13.212  -2.154   0.062  0.00  0.00    +0.144 HD
ATOM     33  H   UNL     1     -13.332  -3.830   0.062  0.00  0.00    +0.144 HD
ENDBRANCH  25  26
ENDBRANCH  24  25
ENDBRANCH  10  24
TORSDOF 6
