REMARK  Name = ZINC38743530
REMARK  6 active torsions:
REMARK  status: ('A' for Active; 'I' for Inactive)
REMARK    1  A    between atoms: C_1  and  O_2
REMARK    2  A    between atoms: O_2  and  C_3
REMARK    3  A    between atoms: C_6  and  C_9
REMARK    4  A    between atoms: C_11  and  C_15
REMARK    5  A    between atoms: C_23  and  C_25
REMARK    6  A    between atoms: C_26  and  C_27
REMARK                            x       y       z     vdW  Elec       q    Type
REMARK                         _______ _______ _______ _____ _____    ______ ____
ROOT
ATOM      1  C   UNL     1      -7.097  -4.886  -1.204  0.00  0.00    +0.206 C 
ATOM      2  N   UNL     1      -6.778  -4.098  -2.419  0.00  0.00    -0.231 NA
ATOM      3  N   UNL     1      -8.066  -3.717  -3.022  0.00  0.00    -0.224 NA
ATOM      4  C   UNL     1      -8.995  -3.761  -1.875  0.00  0.00    +0.240 C 
ATOM      5  N   UNL     1      -8.570  -5.032  -1.199  0.00  0.00    -0.206 N 
ATOM      6  N   UNL     1      -9.616  -5.880  -0.903  0.00  0.00    -0.174 NA
ATOM      7  C   UNL     1     -10.801  -5.755  -1.437  0.00  0.00    +0.118 C 
ATOM      8  S   UNL     1     -10.690  -4.214  -2.400  0.00  0.00    -0.063 S 
ATOM      9  H   UNL     1      -6.222  -4.639  -3.064  0.00  0.00    +0.143 HD
ATOM     10  H   UNL     1      -8.340  -4.377  -3.735  0.00  0.00    +0.144 HD
ENDROOT
BRANCH   1  13
ATOM     11  C   UNL     1      -4.963  -2.620   0.035  0.00  0.00    +0.091 C 
ATOM     12  C   UNL     1      -5.128  -3.957   0.039  0.00  0.00    +0.034 C 
ATOM     13  C   UNL     1      -6.635  -4.138   0.048  0.00  0.00    +0.190 C 
ATOM     14  N   UNL     1      -7.139  -2.755   0.047  0.00  0.00    -0.176 NA
ATOM     15  N   UNL     1      -6.170  -1.994   0.045  0.00  0.00    -0.154 NA
BRANCH  11  19
ATOM     16  C   UNL     1      -1.200  -0.637   0.010  0.00  0.00    +0.120 A 
ATOM     17  C   UNL     1      -2.374   0.104   0.019  0.00  0.00    +0.046 A 
ATOM     18  C   UNL     1      -3.595  -0.536   0.027  0.00  0.00    +0.013 A 
ATOM     19  C   UNL     1      -3.651  -1.928   0.026  0.00  0.00    +0.002 A 
ATOM     20  C   UNL     1      -2.471  -2.670   0.016  0.00  0.00    +0.013 A 
ATOM     21  C   UNL     1      -1.252  -2.025   0.003  0.00  0.00    +0.046 A 
BRANCH  16  23
ATOM     22  C   UNL     1      -0.017   1.425   0.010  0.00  0.00    +0.277 C 
ATOM     23  O   UNL     1       0.002  -0.004   0.002  0.00  0.00    -0.495 OA
ENDBRANCH  16  23
ENDBRANCH  11  19
ENDBRANCH   1  13
BRANCH   7  24
ATOM     24  C   UNL     1     -11.957  -6.643  -1.287  0.00  0.00    +0.037 C 
ATOM     25  C   UNL     1     -11.865  -7.745  -0.518  0.00  0.00    +0.010 C 
BRANCH  25  26
ATOM     26  C   UNL     1     -13.027  -8.637  -0.368  0.00  0.00    -0.024 A 
ATOM     27  C   UNL     1     -14.226  -8.346  -1.026  0.00  0.00    +0.008 A 
ATOM     28  C   UNL     1     -15.310  -9.186  -0.881  0.00  0.00    +0.002 A 
ATOM     29  C   UNL     1     -15.214 -10.315  -0.086  0.00  0.00    +0.020 A 
ATOM     30  C   UNL     1     -14.030 -10.611   0.569  0.00  0.00    +0.042 A 
ATOM     31  C   UNL     1     -12.935  -9.782   0.428  0.00  0.00    +0.028 A 
ATOM     32 CL   UNL     1     -13.921 -12.029   1.563  0.00  0.00    -0.084 Cl
ENDBRANCH  25  26
ENDBRANCH   7  24
TORSDOF 5
