REMARK  Name = ZINC35564274
REMARK  7 active torsions:
REMARK  status: ('A' for Active; 'I' for Inactive)
REMARK    1  A    between atoms: C_4  and  C_7
REMARK    2  A    between atoms: C_7  and  O_8
REMARK    3  A    between atoms: O_8  and  C_9
REMARK    4  A    between atoms: C_9  and  C_10
REMARK    5  A    between atoms: C_24  and  C_26
REMARK    6  A    between atoms: C_26  and  N_27
REMARK    7  A    between atoms: N_30  and  C_33
REMARK                            x       y       z     vdW  Elec       q    Type
REMARK                         _______ _______ _______ _____ _____    ______ ____
ROOT
ATOM      1  C   UNL     1       6.942   0.203   2.648  0.00  0.00    +0.241 C 
ATOM      2  O   UNL     1       6.558   0.195   1.497  0.00  0.00    -0.273 OA
ATOM      3  N   UNL     1       8.081  -0.434   2.983  0.00  0.00    -0.297 N 
ATOM      4  C   UNL     1       8.555  -0.438   4.374  0.00  0.00    +0.127 C 
ATOM      5  C   UNL     1       8.749  -1.891   4.822  0.00  0.00    +0.127 C 
ATOM      6  N   UNL     1       9.540  -2.595   3.803  0.00  0.00    -0.298 N 
ATOM      7  C   UNL     1       9.066  -2.591   2.411  0.00  0.00    +0.127 C 
ATOM      8  C   UNL     1       8.869  -1.142   1.965  0.00  0.00    +0.127 C 
ATOM      9  C   UNL     1      10.697  -3.242   4.143  0.00  0.00    +0.199 A 
ATOM     10  N   UNL     1      11.051  -3.333   5.453  0.00  0.00    -0.295 N 
ATOM     11  H   UNL     1      10.487  -2.943   6.138  0.00  0.00    +0.172 HD
ATOM     12  C   UNL     1      12.191  -3.971   5.797  0.00  0.00    +0.253 A 
ATOM     13  O   UNL     1      12.524  -4.062   6.967  0.00  0.00    -0.268 OA
ATOM     14  C   UNL     1      12.987  -4.527   4.780  0.00  0.00    +0.094 A 
ATOM     15  C   UNL     1      12.581  -4.404   3.483  0.00  0.00    +0.064 A 
ATOM     16  N   UNL     1      11.446  -3.771   3.196  0.00  0.00    -0.219 NA
ENDROOT
BRANCH   1  17
ATOM     17  C   UNL     1       6.144   0.926   3.703  0.00  0.00    +0.256 C 
BRANCH  17  18
ATOM     18  O   UNL     1       4.988   1.516   3.105  0.00  0.00    -0.366 OA
BRANCH  18  19
ATOM     19  C   UNL     1       4.159   2.230   4.024  0.00  0.00    +0.195 C 
BRANCH  19  23
ATOM     20  C   UNL     1       0.807   3.869   1.945  0.00  0.00    +0.000 A 
ATOM     21  C   UNL     1       0.728   2.603   2.495  0.00  0.00    +0.000 A 
ATOM     22  C   UNL     1       1.812   2.073   3.167  0.00  0.00    +0.006 A 
ATOM     23  C   UNL     1       2.977   2.808   3.290  0.00  0.00    -0.022 A 
ATOM     24  C   UNL     1       3.056   4.073   2.739  0.00  0.00    +0.006 A 
ATOM     25  C   UNL     1       1.971   4.604   2.068  0.00  0.00    +0.000 A 
ENDBRANCH  19  23
ENDBRANCH  18  19
ENDBRANCH  17  18
ENDBRANCH   1  17
BRANCH  15  26
ATOM     26  C   UNL     1      13.416  -4.992   2.374  0.00  0.00    +0.140 C 
BRANCH  26  27
ATOM     27  N   UNL     1      12.667  -6.070   1.716  0.00  0.00    -0.300 NA
ATOM     28  C   UNL     1      12.462  -7.203   2.630  0.00  0.00    +0.066 C 
ATOM     29  C   UNL     1      11.629  -8.277   1.927  0.00  0.00    -0.063 C 
ATOM     30  N   UNL     1      12.328  -8.724   0.715  0.00  0.00    +0.383 N 
ATOM     31  C   UNL     1      12.503  -7.587  -0.199  0.00  0.00    -0.063 C 
ATOM     32  C   UNL     1      13.344  -6.507   0.486  0.00  0.00    +0.066 C 
ATOM     33  H   UNL     1      13.231  -9.096   0.966  0.00  0.00    -0.081 HD
BRANCH  30  34
ATOM     34  C   UNL     1      11.536  -9.768   0.050  0.00  0.00    -0.068 C 
ATOM     35  C   UNL     1      11.355 -10.953   1.001  0.00  0.00    -0.015 C 
ATOM     36  C   UNL     1      10.530 -12.040   0.309  0.00  0.00    -0.002 C 
ATOM     37  C   UNL     1      11.258 -12.506  -0.954  0.00  0.00    -0.000 C 
ATOM     38  C   UNL     1      11.440 -11.321  -1.905  0.00  0.00    -0.002 C 
ATOM     39  C   UNL     1      12.264 -10.234  -1.212  0.00  0.00    -0.015 C 
ENDBRANCH  30  34
ENDBRANCH  26  27
ENDBRANCH  15  26
TORSDOF 7
