REMARK  Name = ZINC38803469
REMARK  7 active torsions:
REMARK  status: ('A' for Active; 'I' for Inactive)
REMARK    1  A    between atoms: C_1  and  C_2
REMARK    2  A    between atoms: C_2  and  C_4
REMARK    3  A    between atoms: C_2  and  S_17
REMARK    4  A    between atoms: S_17  and  C_18
REMARK    5  A    between atoms: C_21  and  C_29
REMARK    6  A    between atoms: N_22  and  C_23
REMARK    7  A    between atoms: C_29  and  N_30
REMARK                            x       y       z     vdW  Elec       q    Type
REMARK                         _______ _______ _______ _____ _____    ______ ____
ROOT
ATOM      1  C   UNL     1      -2.713   0.036   0.835  0.00  0.00    +0.197 A 
ATOM      2  N   UNL     1      -2.202   0.695   1.849  0.00  0.00    -0.122 NA
ATOM      3  N   UNL     1      -3.113   0.922   2.727  0.00  0.00    -0.135 NA
ATOM      4  C   UNL     1      -4.251   0.426   2.332  0.00  0.00    +0.122 A 
ATOM      5  N   UNL     1      -4.040  -0.152   1.108  0.00  0.00    -0.276 N 
ENDROOT
BRANCH   5   6
ATOM      6  C   UNL     1      -4.987  -0.804   0.304  0.00  0.00    +0.050 A 
ATOM      7  C   UNL     1      -6.045  -0.090  -0.241  0.00  0.00    +0.026 A 
ATOM      8  C   UNL     1      -6.976  -0.735  -1.033  0.00  0.00    +0.002 A 
ATOM      9  C   UNL     1      -6.854  -2.089  -1.283  0.00  0.00    +0.000 A 
ATOM     10  C   UNL     1      -5.800  -2.803  -0.741  0.00  0.00    +0.002 A 
ATOM     11  C   UNL     1      -4.864  -2.163   0.047  0.00  0.00    +0.026 A 
ENDBRANCH   5   6
BRANCH   1  12
ATOM     12  S   UNL     1      -1.853  -0.499  -0.607  0.00  0.00    -0.073 S 
BRANCH  12  14
ATOM     13  C   UNL     1      -0.117   1.593  -0.312  0.00  0.00    +0.029 C 
ATOM     14  C   UNL     1      -0.150   0.064  -0.337  0.00  0.00    +0.137 C 
BRANCH  14  15
ATOM     15  C   UNL     1       0.728  -0.439  -1.453  0.00  0.00    +0.230 C 
ATOM     16  O   UNL     1       0.245  -0.699  -2.535  0.00  0.00    -0.274 OA
ATOM     17  N   UNL     1       2.051  -0.601  -1.250  0.00  0.00    -0.285 N 
ATOM     18  C   UNL     1       2.614  -1.772  -1.472  0.00  0.00    +0.036 C 
ATOM     19  C   UNL     1       1.784  -2.932  -1.821  0.00  0.00    +0.025 C 
ATOM     20  C   UNL     1       2.353  -4.131  -2.049  0.00  0.00    +0.032 C 
ATOM     21  C   UNL     1       3.807  -4.287  -1.951  0.00  0.00    +0.095 C 
ATOM     22  N   UNL     1       4.637  -5.299  -2.111  0.00  0.00    -0.190 NA
ATOM     23  C   UNL     1       5.895  -4.880  -1.895  0.00  0.00    +0.369 C 
ATOM     24  O   UNL     1       6.989  -5.674  -1.980  0.00  0.00    -0.243 OA
ATOM     25  N   UNL     1       5.931  -3.603  -1.593  0.00  0.00    -0.190 NA
ATOM     26  C   UNL     1       4.652  -3.128  -1.601  0.00  0.00    +0.097 C 
ATOM     27  C   UNL     1       4.083  -1.917  -1.375  0.00  0.00    +0.053 C 
ATOM     28  H   UNL     1       2.588   0.145  -0.940  0.00  0.00    +0.155 HD
ENDBRANCH  14  15
ENDBRANCH  12  14
ENDBRANCH   1  12
BRANCH   4  29
ATOM     29  C   UNL     1      -5.558   0.483   3.079  0.00  0.00    -0.001 C 
BRANCH  29  30
ATOM     30  N   UNL     1      -6.288   1.699   2.697  0.00  0.00    +0.384 N 
ATOM     31  C   UNL     1      -5.531   2.879   3.131  0.00  0.00    -0.078 C 
ATOM     32  C   UNL     1      -6.246   4.149   2.664  0.00  0.00    -0.019 C 
ATOM     33  C   UNL     1      -7.651   4.190   3.272  0.00  0.00    -0.004 C 
ATOM     34  C   UNL     1      -8.406   2.919   2.874  0.00  0.00    -0.019 C 
ATOM     35  C   UNL     1      -7.611   1.695   3.333  0.00  0.00    -0.078 C 
ATOM     36  H   UNL     1      -6.398   1.723   1.694  0.00  0.00    -0.081 HD
ENDBRANCH  29  30
ENDBRANCH   4  29
TORSDOF 6
