REMARK  Name = ZINC43560573
REMARK  4 active torsions:
REMARK  status: ('A' for Active; 'I' for Inactive)
REMARK    1  A    between atoms: C_5  and  C_7
REMARK    2  A    between atoms: C_9  and  C_12
REMARK    3  A    between atoms: C_12  and  C_13
REMARK    4  A    between atoms: C_16  and  N_19
REMARK                            x       y       z     vdW  Elec       q    Type
REMARK                         _______ _______ _______ _____ _____    ______ ____
ROOT
ATOM      1  C   UNL     1       1.246  -2.166  -0.023  0.00  0.00    +0.203 A 
ATOM      2  N   UNL     1       0.167  -2.970  -0.022  0.00  0.00    -0.191 NA
ATOM      3  C   UNL     1       0.541  -4.217  -0.032  0.00  0.00    +0.232 A 
ATOM      4  O   UNL     1       1.879  -4.260  -0.040  0.00  0.00    -0.337 OA
ATOM      5  N   UNL     1       2.323  -2.911  -0.039  0.00  0.00    -0.056 NA
ENDROOT
BRANCH   1  10
ATOM      6  C   UNL     1      -0.017   1.376   0.010  0.00  0.00    +0.001 A 
ATOM      7  C   UNL     1       1.170   2.087   0.002  0.00  0.00    +0.001 A 
ATOM      8  C   UNL     1       2.382   1.420  -0.013  0.00  0.00    +0.016 A 
ATOM      9  C   UNL     1       2.413   0.039  -0.022  0.00  0.00    +0.029 A 
ATOM     10  C   UNL     1       1.219  -0.682  -0.014  0.00  0.00    +0.036 A 
ATOM     11  C   UNL     1       0.002  -0.004   0.002  0.00  0.00    +0.013 A 
ATOM     12 BR   UNL     1       4.070  -0.872  -0.044  0.00  0.00    -0.050 Br
ENDBRANCH   1  10
BRANCH   3  13
ATOM     13  C   UNL     1      -0.378  -5.412  -0.034  0.00  0.00    +0.134 C 
BRANCH  13  14
ATOM     14  C   UNL     1      -0.693  -5.801  -1.455  0.00  0.00    -0.038 A 
ATOM     15  C   UNL     1      -1.784  -5.244  -2.097  0.00  0.00    +0.006 A 
ATOM     16  C   UNL     1      -2.076  -5.599  -3.400  0.00  0.00    +0.023 A 
ATOM     17  C   UNL     1      -1.272  -6.516  -4.065  0.00  0.00    +0.025 A 
ATOM     18  C   UNL     1      -0.177  -7.073  -3.417  0.00  0.00    +0.023 A 
ATOM     19  C   UNL     1       0.113  -6.710  -2.116  0.00  0.00    +0.006 A 
BRANCH  17  20
ATOM     20  N   UNL     1      -1.564  -6.877  -5.382  0.00  0.00    -0.358 N 
ATOM     21  H   UNL     1      -2.329  -6.487  -5.834  0.00  0.00    +0.142 HD
ATOM     22  H   UNL     1      -1.002  -7.517  -5.846  0.00  0.00    +0.142 HD
ENDBRANCH  17  20
ENDBRANCH  13  14
ENDBRANCH   3  13
TORSDOF 4
