REMARK  Name = ZINC05738729
REMARK  4 active torsions:
REMARK  status: ('A' for Active; 'I' for Inactive)
REMARK    1  A    between atoms: C_4  and  N_7
REMARK    2  A    between atoms: C_9  and  C_19
REMARK    3  A    between atoms: C_10  and  C_12
REMARK    4  A    between atoms: N_20  and  O_21
REMARK                            x       y       z     vdW  Elec       q    Type
REMARK                         _______ _______ _______ _____ _____    ______ ____
ROOT
ATOM      1  N   UNL     1       4.097  -0.382   0.367  0.00  0.00    -0.239 N 
ATOM      2  C   UNL     1       4.628   0.504  -0.498  0.00  0.00    +0.124 A 
ATOM      3  C   UNL     1       3.671   1.438  -0.788  0.00  0.00    +0.042 A 
ATOM      4  C   UNL     1       2.480   1.070  -0.017  0.00  0.00    +0.102 A 
ATOM      5  N   UNL     1       2.777  -0.022   0.653  0.00  0.00    -0.166 NA
ENDROOT
BRANCH   4   6
ATOM      6  C   UNL     1       1.184   1.789  -0.002  0.00  0.00    +0.003 A 
ATOM      7  C   UNL     1       0.527   2.022   1.206  0.00  0.00    +0.011 A 
ATOM      8  C   UNL     1      -0.682   2.686   1.215  0.00  0.00    +0.020 A 
ATOM      9  C   UNL     1      -1.238   3.131   0.028  0.00  0.00    +0.041 A 
ATOM     10  C   UNL     1      -0.591   2.903  -1.175  0.00  0.00    +0.020 A 
ATOM     11  C   UNL     1       0.616   2.234  -1.195  0.00  0.00    +0.011 A 
ATOM     12 CL   UNL     1      -2.757   3.972   0.046  0.00  0.00    -0.084 Cl
ENDBRANCH   4   6
BRANCH   1  16
ATOM     13  C   UNL     1       6.084  -3.689   1.945  0.00  0.00    +0.000 A 
ATOM     14  C   UNL     1       4.773  -3.435   2.305  0.00  0.00    +0.002 A 
ATOM     15  C   UNL     1       4.112  -2.340   1.784  0.00  0.00    +0.028 A 
ATOM     16  C   UNL     1       4.765  -1.494   0.897  0.00  0.00    +0.065 A 
ATOM     17  C   UNL     1       6.079  -1.755   0.533  0.00  0.00    +0.028 A 
ATOM     18  C   UNL     1       6.737  -2.848   1.062  0.00  0.00    +0.002 A 
ENDBRANCH   1  16
BRANCH   3  19
ATOM     19  C   UNL     1       3.812   2.591  -1.695  0.00  0.00    +0.164 C 
ATOM     20  N   UNL     1       2.853   3.454  -1.798  0.00  0.00    -0.095 NA
BRANCH  20  21
ATOM     21  O   UNL     1       2.988   4.561  -2.670  0.00  0.00    -0.409 OA
ATOM     22  H   UNL     1       2.173   5.295  -2.758  0.00  0.00    +0.328 HD
ENDBRANCH  20  21
ENDBRANCH   3  19
TORSDOF 4
