REMARK  Name = ZINC38971734
REMARK  6 active torsions:
REMARK  status: ('A' for Active; 'I' for Inactive)
REMARK    1  A    between atoms: C_1  and  O_2
REMARK    2  A    between atoms: O_2  and  C_3
REMARK    3  A    between atoms: C_5  and  C_10
REMARK    4  A    between atoms: C_8  and  O_9
REMARK    5  A    between atoms: N_11  and  N_12
REMARK    6  A    between atoms: C_13  and  C_19
REMARK                            x       y       z     vdW  Elec       q    Type
REMARK                         _______ _______ _______ _____ _____    ______ ____
ROOT
ATOM      1  N   UNL     1      -7.186   0.357  -0.050  0.00  0.00    -0.173 N 
ATOM      2  C   UNL     1      -8.573  -0.148  -0.052  0.00  0.00    +0.266 C 
ATOM      3  N   UNL     1      -9.382   1.075  -0.174  0.00  0.00    -0.169 NA
ATOM      4  N   UNL     1      -8.611   2.037  -0.227  0.00  0.00    -0.096 NA
ATOM      5  C   UNL     1      -7.318   1.698  -0.155  0.00  0.00    +0.198 C 
ATOM      6  S   UNL     1      -6.014   2.807  -0.195  0.00  0.00    -0.013 S 
ENDROOT
BRANCH   2   7
ATOM      7  C   UNL     1      -8.883  -0.875   1.258  0.00  0.00    +0.201 C 
ATOM      8  C   UNL     1     -10.286  -1.447   1.234  0.00  0.00    -0.017 C 
ATOM      9  C   UNL     1     -10.919  -0.835   2.233  0.00  0.00    +0.065 C 
ATOM     10  C   UNL     1     -12.352  -1.330   2.315  0.00  0.00    +0.057 C 
ATOM     11  C   UNL     1     -12.620  -2.012   0.956  0.00  0.00    +0.011 C 
ATOM     12  C   UNL     1     -11.193  -2.417   0.522  0.00  0.00    +0.035 C 
ATOM     13  N   UNL     1     -10.074   0.034   2.853  0.00  0.00    -0.158 NA
ATOM     14  N   UNL     1      -8.933   0.074   2.383  0.00  0.00    -0.176 NA
ENDBRANCH   2   7
BRANCH   1  16
ATOM     15  C   UNL     1      -6.046  -1.683   0.037  0.00  0.00    +0.138 C 
ATOM     16  N   UNL     1      -6.002  -0.385   0.046  0.00  0.00    -0.184 NA
BRANCH  15  19
ATOM     17  C   UNL     1      -3.705  -4.588   0.457  0.00  0.00    +0.162 A 
ATOM     18  C   UNL     1      -4.862  -3.861   0.249  0.00  0.00    +0.058 A 
ATOM     19  C   UNL     1      -4.816  -2.464   0.259  0.00  0.00    -0.002 A 
ATOM     20  C   UNL     1      -3.601  -1.810   0.479  0.00  0.00    +0.013 A 
ATOM     21  C   UNL     1      -2.451  -2.542   0.686  0.00  0.00    +0.050 A 
ATOM     22  C   UNL     1      -2.498  -3.929   0.682  0.00  0.00    +0.158 A 
BRANCH  17  24
ATOM     23  C   UNL     1      -5.016  -6.557   0.212  0.00  0.00    +0.277 C 
ATOM     24  O   UNL     1      -3.746  -5.948   0.449  0.00  0.00    -0.491 OA
ENDBRANCH  17  24
BRANCH  22  25
ATOM     25  O   UNL     1      -1.363  -4.646   0.892  0.00  0.00    -0.503 OA
ATOM     26  H   UNL     1      -0.873  -4.853   0.084  0.00  0.00    +0.292 HD
ENDBRANCH  22  25
ENDBRANCH  15  19
ENDBRANCH   1  16
TORSDOF 5
