REMARK  Name = ZINC61856911
REMARK  3 active torsions:
REMARK  status: ('A' for Active; 'I' for Inactive)
REMARK    1  A    between atoms: C_3  and  C_17
REMARK    2  A    between atoms: C_6  and  O_7
REMARK    3  A    between atoms: O_7  and  C_8
REMARK                            x       y       z     vdW  Elec       q    Type
REMARK                         _______ _______ _______ _____ _____    ______ ____
ROOT
ATOM      1  C   UNL     1      -0.009   1.246  -0.190  0.00  0.00    +0.047 A 
ATOM      2  C   UNL     1       1.158   1.977  -0.177  0.00  0.00    +0.016 A 
ATOM      3  C   UNL     1       2.389   1.323  -0.085  0.00  0.00    +0.031 A 
ATOM      4  C   UNL     1       2.431  -0.072  -0.006  0.00  0.00    +0.055 A 
ATOM      5  C   UNL     1       1.258  -0.796  -0.020  0.00  0.00    +0.067 A 
ATOM      6  C   UNL     1       0.036  -0.141  -0.112  0.00  0.00    +0.130 A 
ATOM      7 CL   UNL     1       3.958  -0.891   0.108  0.00  0.00    -0.083 Cl
ENDROOT
BRANCH   3   8
ATOM      8  C   UNL     1       3.643   2.104  -0.071  0.00  0.00    +0.096 C 
ATOM      9  N   UNL     1       4.588   1.863  -0.979  0.00  0.00    -0.387 N 
ATOM     10  N   UNL     1       3.829   3.050   0.850  0.00  0.00    -0.345 N 
ATOM     11  H   UNL     1       4.483   1.129  -1.605  0.00  0.00    +0.157 HD
ATOM     12  H   UNL     1       3.140   3.225   1.510  0.00  0.00    +0.144 HD
ATOM     13  H   UNL     1       4.652   3.562   0.859  0.00  0.00    +0.144 HD
ATOM     14  H   UNL     1       5.381   2.421  -1.013  0.00  0.00    +0.157 HD
ENDBRANCH   3   8
BRANCH   6  15
ATOM     15  O   UNL     1      -1.116  -0.858  -0.125  0.00  0.00    -0.453 OA
BRANCH  15  16
ATOM     16  C   UNL     1      -1.558  -1.377   1.051  0.00  0.00    +0.164 A 
ATOM     17  C   UNL     1      -0.902  -1.073   2.235  0.00  0.00    +0.050 A 
ATOM     18  C   UNL     1      -1.353  -1.602   3.429  0.00  0.00    +0.019 A 
ATOM     19  C   UNL     1      -2.457  -2.435   3.446  0.00  0.00    +0.021 A 
ATOM     20  C   UNL     1      -3.114  -2.741   2.268  0.00  0.00    +0.057 A 
ATOM     21  C   UNL     1      -2.670  -2.210   1.070  0.00  0.00    +0.166 A 
ATOM     22  F   UNL     1      -3.314  -2.504  -0.080  0.00  0.00    -0.202 F 
ATOM     23 BR   UNL     1      -3.070  -3.157   5.083  0.00  0.00    -0.050 Br
ENDBRANCH  15  16
ENDBRANCH   6  15
TORSDOF 3
