REMARK  Name = ZINC34779632
REMARK  10 active torsions:
REMARK  status: ('A' for Active; 'I' for Inactive)
REMARK    1  A    between atoms: C_1  and  C_2
REMARK    2  A    between atoms: C_2  and  C_3
REMARK    3  A    between atoms: C_3  and  C_4
REMARK    4  A    between atoms: C_4  and  N_5
REMARK    5  A    between atoms: C_9  and  C_30
REMARK    6  A    between atoms: C_10  and  C_26
REMARK    7  A    between atoms: N_13  and  C_16
REMARK    8  A    between atoms: C_16  and  C_17
REMARK    9  A    between atoms: N_19  and  C_20
REMARK   10  A    between atoms: N_28  and  N_29
REMARK                            x       y       z     vdW  Elec       q    Type
REMARK                         _______ _______ _______ _____ _____    ______ ____
ROOT
ATOM      1  N   UNL     1      -2.787  -2.571   0.015  0.00  0.00    -0.260 N 
ATOM      2  C   UNL     1      -3.391  -2.798   1.194  0.00  0.00    +0.265 A 
ATOM      3  O   UNL     1      -2.803  -2.585   2.239  0.00  0.00    -0.267 OA
ATOM      4  C   UNL     1      -4.783  -3.311   1.207  0.00  0.00    +0.074 A 
ATOM      5  C   UNL     1      -5.593  -3.614   2.309  0.00  0.00    -0.017 A 
ATOM      6  C   UNL     1      -6.851  -4.076   2.048  0.00  0.00    +0.081 A 
ATOM      7  S   UNL     1      -6.903  -4.088   0.267  0.00  0.00    -0.065 S 
ATOM      8  C   UNL     1      -5.364  -3.520  -0.052  0.00  0.00    +0.098 A 
ATOM      9  N   UNL     1      -4.671  -3.260  -1.201  0.00  0.00    -0.278 N 
ATOM     10  C   UNL     1      -3.411  -2.790  -1.154  0.00  0.00    +0.333 A 
ATOM     11  O   UNL     1      -2.822  -2.564  -2.193  0.00  0.00    -0.246 OA
ATOM     12  C   UNL     1      -5.098  -3.437   3.721  0.00  0.00    +0.046 C 
ENDROOT
BRANCH   6  13
ATOM     13  C   UNL     1      -7.897  -4.465   2.996  0.00  0.00    +0.264 C 
ATOM     14  O   UNL     1      -7.690  -4.394   4.194  0.00  0.00    -0.268 OA
ATOM     15  N   UNL     1      -9.089  -4.902   2.543  0.00  0.00    -0.249 N 
ATOM     16  H   UNL     1      -9.254  -4.958   1.589  0.00  0.00    +0.169 HD
BRANCH  15  17
ATOM     17  N   UNL     1     -10.065  -5.265   3.428  0.00  0.00    -0.254 NA
ATOM     18  H   UNL     1     -10.896  -5.569   2.944  0.00  0.00    +0.140 HD
ATOM     19  H   UNL     1      -9.732  -5.978   4.059  0.00  0.00    +0.140 HD
ENDBRANCH  15  17
ENDBRANCH   6  13
BRANCH   1  20
ATOM     20  C   UNL     1      -1.413  -2.063   0.004  0.00  0.00    +0.130 C 
BRANCH  20  21
ATOM     21  C   UNL     1      -1.433  -0.534   0.013  0.00  0.00    +0.022 C 
BRANCH  21  23
ATOM     22  C   UNL     1      -0.019   1.526   0.010  0.00  0.00    +0.004 C 
ATOM     23  C   UNL     1       0.002  -0.004   0.002  0.00  0.00    -0.002 C 
ENDBRANCH  21  23
ENDBRANCH  20  21
ENDBRANCH   1  20
BRANCH   9  24
ATOM     24  C   UNL     1      -5.310  -3.491  -2.499  0.00  0.00    +0.223 C 
BRANCH  24  25
ATOM     25  C   UNL     1      -6.020  -2.236  -2.939  0.00  0.00    +0.233 C 
ATOM     26  O   UNL     1      -5.995  -1.247  -2.237  0.00  0.00    -0.274 OA
ATOM     27  N   UNL     1      -6.683  -2.213  -4.112  0.00  0.00    -0.311 N 
ATOM     28  H   UNL     1      -6.703  -3.004  -4.673  0.00  0.00    +0.149 HD
BRANCH  27  29
ATOM     29  C   UNL     1      -7.373  -0.994  -4.540  0.00  0.00    +0.073 C 
ATOM     30  C   UNL     1      -8.770  -0.954  -3.917  0.00  0.00    +0.022 C 
ATOM     31  C   UNL     1      -9.491   0.320  -4.364  0.00  0.00    +0.002 C 
ATOM     32  C   UNL     1      -9.611   0.329  -5.889  0.00  0.00    +0.000 C 
ATOM     33  C   UNL     1      -8.214   0.289  -6.512  0.00  0.00    +0.002 C 
ATOM     34  C   UNL     1      -7.493  -0.984  -6.065  0.00  0.00    +0.022 C 
ENDBRANCH  27  29
ENDBRANCH  24  25
ENDBRANCH   9  24
TORSDOF 8
