REMARK  Name = ZINC11670322
REMARK  7 active torsions:
REMARK  status: ('A' for Active; 'I' for Inactive)
REMARK    1  A    between atoms: C_1  and  C_2
REMARK    2  A    between atoms: C_2  and  C_4
REMARK    3  A    between atoms: C_2  and  S_20
REMARK    4  A    between atoms: C_10  and  C_15
REMARK    5  A    between atoms: S_20  and  C_21
REMARK    6  A    between atoms: C_24  and  C_27
REMARK    7  A    between atoms: N_25  and  N_26
REMARK                            x       y       z     vdW  Elec       q    Type
REMARK                         _______ _______ _______ _____ _____    ______ ____
ROOT
ATOM      1  C   UNL     1      -2.700   0.964  -1.275  0.00  0.00    +0.027 C 
ATOM      2  C   UNL     1      -2.729   0.163   0.028  0.00  0.00    +0.117 C 
ENDROOT
BRANCH   2   3
ATOM      3  C   UNL     1      -4.059  -0.533   0.161  0.00  0.00    +0.124 A 
ATOM      4  N   UNL     1      -5.052   0.055   0.875  0.00  0.00    -0.309 N 
ATOM      5  H   UNL     1      -4.893   0.917   1.291  0.00  0.00    +0.170 HD
ATOM      6  C   UNL     1      -6.254  -0.533   1.018  0.00  0.00    +0.260 A 
ATOM      7  O   UNL     1      -7.136   0.008   1.663  0.00  0.00    -0.267 OA
ATOM      8  C   UNL     1      -6.482  -1.804   0.402  0.00  0.00    +0.080 A 
ATOM      9  C   UNL     1      -7.683  -2.632   0.410  0.00  0.00    +0.010 A 
ATOM     10  C   UNL     1      -7.663  -3.815  -0.254  0.00  0.00    +0.057 A 
ATOM     11  S   UNL     1      -6.016  -3.880  -0.933  0.00  0.00    -0.076 S 
ATOM     12  C   UNL     1      -5.398  -2.335  -0.316  0.00  0.00    +0.116 A 
ATOM     13  N   UNL     1      -4.238  -1.690  -0.418  0.00  0.00    -0.225 NA
BRANCH   9  14
ATOM     14  C   UNL     1      -8.896  -2.192   1.129  0.00  0.00    +0.021 A 
ATOM     15  C   UNL     1     -10.189  -2.127   0.681  0.00  0.00    +0.016 A 
ATOM     16  C   UNL     1     -11.168  -1.683   1.545  0.00  0.00    +0.008 A 
ATOM     17  C   UNL     1     -10.821  -1.314   2.804  0.00  0.00    +0.046 A 
ATOM     18  S   UNL     1      -9.059  -1.599   2.805  0.00  0.00    -0.097 S 
ENDBRANCH   9  14
ENDBRANCH   2   3
BRANCH   2  19
ATOM     19  S   UNL     1      -1.403  -1.068   0.010  0.00  0.00    -0.074 S 
BRANCH  19  20
ATOM     20  C   UNL     1       0.002  -0.004   0.002  0.00  0.00    +0.209 A 
ATOM     21  N   UNL     1      -0.016   1.310   0.009  0.00  0.00    -0.120 NA
ATOM     22  N   UNL     1       1.184   1.769   0.000  0.00  0.00    -0.123 NA
ATOM     23  C   UNL     1       2.045   0.775  -0.013  0.00  0.00    +0.217 A 
ATOM     24  N   UNL     1       1.313  -0.392  -0.013  0.00  0.00    -0.221 N 
BRANCH  23  25
ATOM     25  C   UNL     1       3.512   0.887  -0.026  0.00  0.00    +0.173 A 
ATOM     26  C   UNL     1       4.226   2.010  -0.318  0.00  0.00    +0.053 A 
ATOM     27  C   UNL     1       5.587   1.666  -0.207  0.00  0.00    +0.042 A 
ATOM     28  C   UNL     1       5.639   0.363   0.134  0.00  0.00    +0.196 A 
ATOM     29  O   UNL     1       4.384  -0.105   0.242  0.00  0.00    -0.460 OA
ENDBRANCH  23  25
BRANCH  24  30
ATOM     30  N   UNL     1       1.795  -1.670  -0.024  0.00  0.00    -0.294 N 
ATOM     31  H   UNL     1       1.914  -2.003  -0.970  0.00  0.00    +0.163 HD
ATOM     32  H   UNL     1       2.659  -1.735   0.493  0.00  0.00    +0.163 HD
ENDBRANCH  24  30
ENDBRANCH  19  20
ENDBRANCH   2  19
TORSDOF 6
