REMARK  Name = ZINC09705813
REMARK  9 active torsions:
REMARK  status: ('A' for Active; 'I' for Inactive)
REMARK    1  A    between atoms: C_1  and  C_2
REMARK    2  A    between atoms: C_7  and  N_8
REMARK    3  A    between atoms: C_9  and  C_11
REMARK    4  A    between atoms: C_12  and  N_20
REMARK    5  A    between atoms: C_21  and  C_23
REMARK    6  A    between atoms: N_25  and  C_26
REMARK    7  A    between atoms: C_26  and  C_27
REMARK    8  A    between atoms: C_27  and  C_28
REMARK    9  A    between atoms: C_27  and  C_29
REMARK                            x       y       z     vdW  Elec       q    Type
REMARK                         _______ _______ _______ _____ _____    ______ ____
ROOT
ATOM      1  C   UNL     1      -0.156  -2.907   0.447  0.00  0.00    +0.212 A 
ATOM      2  C   UNL     1      -1.179  -2.081   0.068  0.00  0.00    +0.093 A 
ATOM      3  C   UNL     1      -2.320  -2.960  -0.219  0.00  0.00    +0.042 A 
ATOM      4  C   UNL     1      -3.629  -2.743  -0.651  0.00  0.00    +0.013 A 
ATOM      5  C   UNL     1      -4.467  -3.806  -0.837  0.00  0.00    +0.001 A 
ATOM      6  C   UNL     1      -4.022  -5.100  -0.604  0.00  0.00    +0.004 A 
ATOM      7  C   UNL     1      -2.731  -5.336  -0.183  0.00  0.00    +0.047 A 
ATOM      8  C   UNL     1      -1.861  -4.269   0.012  0.00  0.00    +0.138 A 
ATOM      9  O   UNL     1      -0.575  -4.191   0.409  0.00  0.00    -0.448 OA
ENDROOT
BRANCH   1  11
ATOM     10  N   UNL     1       2.143  -3.378   1.093  0.00  0.00    -0.279 N 
ATOM     11  C   UNL     1       1.183  -2.468   0.834  0.00  0.00    +0.285 C 
ATOM     12  O   UNL     1       1.433  -1.279   0.922  0.00  0.00    -0.266 OA
ATOM     13  H   UNL     1       1.925  -4.324   1.098  0.00  0.00    +0.155 HD
BRANCH  10  20
ATOM     14  C   UNL     1       3.826  -5.100   2.609  0.00  0.00    +0.045 C 
ATOM     15  C   UNL     1       4.307  -3.770   2.089  0.00  0.00    -0.029 A 
ATOM     16  C   UNL     1       5.599  -3.354   2.344  0.00  0.00    +0.005 A 
ATOM     17  C   UNL     1       6.041  -2.134   1.867  0.00  0.00    +0.000 A 
ATOM     18  C   UNL     1       5.192  -1.326   1.133  0.00  0.00    +0.002 A 
ATOM     19  C   UNL     1       3.901  -1.738   0.871  0.00  0.00    +0.023 A 
ATOM     20  C   UNL     1       3.451  -2.961   1.353  0.00  0.00    +0.037 A 
ENDBRANCH  10  20
ENDBRANCH   1  11
BRANCH   2  21
ATOM     21  N   UNL     1      -1.147  -0.696  -0.022  0.00  0.00    -0.274 N 
ATOM     22  C   UNL     1      -1.978  -0.057  -0.869  0.00  0.00    +0.303 C 
ATOM     23  O   UNL     1      -2.706  -0.694  -1.602  0.00  0.00    -0.265 OA
ATOM     24  H   UNL     1      -0.527  -0.189   0.524  0.00  0.00    +0.155 HD
BRANCH  22  25
ATOM     25  C   UNL     1      -2.002   1.436  -0.906  0.00  0.00    +0.299 C 
ATOM     26  O   UNL     1      -1.277   2.073  -0.170  0.00  0.00    -0.265 OA
ATOM     27  N   UNL     1      -2.833   2.076  -1.753  0.00  0.00    -0.307 N 
ATOM     28  H   UNL     1      -3.415   1.567  -2.338  0.00  0.00    +0.149 HD
BRANCH  27  29
ATOM     29  C   UNL     1      -2.857   3.540  -1.789  0.00  0.00    +0.107 C 
BRANCH  29  30
ATOM     30  C   UNL     1      -3.878   4.008  -2.828  0.00  0.00    -0.000 C 
ATOM     31  C   UNL     1      -5.282   3.592  -2.386  0.00  0.00    +0.009 C 
ATOM     32  C   UNL     1      -3.814   5.532  -2.955  0.00  0.00    +0.009 C 
ENDBRANCH  29  30
ENDBRANCH  27  29
ENDBRANCH  22  25
ENDBRANCH   2  21
TORSDOF 6
