REMARK  Name = ZINC35851729
REMARK  5 active torsions:
REMARK  status: ('A' for Active; 'I' for Inactive)
REMARK    1  A    between atoms: C_1  and  O_2
REMARK    2  A    between atoms: O_2  and  C_3
REMARK    3  A    between atoms: C_8  and  N_9
REMARK    4  A    between atoms: C_14  and  C_31
REMARK    5  A    between atoms: C_31  and  C_32
REMARK                            x       y       z     vdW  Elec       q    Type
REMARK                         _______ _______ _______ _____ _____    ______ ____
ROOT
ATOM      1  N   UNL     1       0.094  -2.778  -0.110  0.00  0.00    -0.206 N 
ATOM      2  C   UNL     1      -1.177  -3.195  -0.141  0.00  0.00    +0.232 C 
ATOM      3  O   UNL     1      -1.972  -2.955  -1.025  0.00  0.00    -0.274 OA
ATOM      4  C   UNL     1      -1.467  -4.014   1.095  0.00  0.00    +0.108 C 
ATOM      5  C   UNL     1      -2.470  -3.252   1.988  0.00  0.00    +0.076 C 
ATOM      6  N   UNL     1      -1.629  -2.366   2.836  0.00  0.00    -0.295 NA
ATOM      7  C   UNL     1      -0.446  -3.187   3.154  0.00  0.00    +0.136 C 
ATOM      8  C   UNL     1      -0.119  -3.987   1.869  0.00  0.00    +0.123 C 
ATOM      9  C   UNL     1       0.781  -3.170   0.969  0.00  0.00    +0.233 C 
ATOM     10  O   UNL     1       1.944  -2.909   1.192  0.00  0.00    -0.274 OA
ATOM     11  C   UNL     1       0.713  -2.339   3.592  0.00  0.00    +0.003 A 
ATOM     12  C   UNL     1       1.426  -1.324   2.993  0.00  0.00    +0.008 A 
ATOM     13  C   UNL     1       2.470  -0.718   3.669  0.00  0.00    +0.000 A 
ATOM     14  C   UNL     1       2.796  -1.134   4.947  0.00  0.00    +0.002 A 
ATOM     15  C   UNL     1       2.087  -2.152   5.550  0.00  0.00    +0.023 A 
ATOM     16  C   UNL     1       1.034  -2.767   4.877  0.00  0.00    +0.039 A 
ATOM     17  N   UNL     1       0.182  -3.802   5.268  0.00  0.00    -0.283 N 
ATOM     18  C   UNL     1      -0.716  -4.109   4.312  0.00  0.00    +0.243 C 
ATOM     19  O   UNL     1      -1.576  -4.963   4.374  0.00  0.00    -0.273 OA
ATOM     20  H   UNL     1      -1.365  -1.530   2.335  0.00  0.00    +0.124 HD
ATOM     21  H   UNL     1       0.231  -4.248   6.128  0.00  0.00    +0.155 HD
ENDROOT
BRANCH   1  27
ATOM     22  C   UNL     1       0.606  -0.607  -1.056  0.00  0.00    +0.142 A 
ATOM     23  C   UNL     1       1.173   0.159  -2.062  0.00  0.00    +0.049 A 
ATOM     24  C   UNL     1       1.787  -0.455  -3.137  0.00  0.00    +0.024 A 
ATOM     25  C   UNL     1       1.837  -1.836  -3.213  0.00  0.00    +0.043 A 
ATOM     26  C   UNL     1       1.274  -2.607  -2.213  0.00  0.00    +0.047 A 
ATOM     27  C   UNL     1       0.662  -1.997  -1.129  0.00  0.00    +0.087 A 
ATOM     28 CL   UNL     1       2.609  -2.601  -4.567  0.00  0.00    -0.083 Cl
BRANCH  22  30
ATOM     29  C   UNL     1      -0.017   1.425   0.010  0.00  0.00    +0.277 C 
ATOM     30  O   UNL     1       0.002  -0.004   0.002  0.00  0.00    -0.493 OA
ENDBRANCH  22  30
ENDBRANCH   1  27
BRANCH   5  31
ATOM     31  C   UNL     1      -3.424  -2.421   1.128  0.00  0.00    +0.115 C 
BRANCH  31  32
ATOM     32  C   UNL     1      -4.468  -1.784   2.008  0.00  0.00    +0.212 C 
ATOM     33  O   UNL     1      -4.451  -1.976   3.205  0.00  0.00    -0.276 OA
ATOM     34  N   UNL     1      -5.421  -1.001   1.464  0.00  0.00    -0.329 N 
ATOM     35  H   UNL     1      -5.434  -0.848   0.506  0.00  0.00    +0.145 HD
ATOM     36  H   UNL     1      -6.093  -0.591   2.031  0.00  0.00    +0.145 HD
ENDBRANCH  31  32
ENDBRANCH   5  31
TORSDOF 4
