REMARK  Name = ZINC67240835
REMARK  5 active torsions:
REMARK  status: ('A' for Active; 'I' for Inactive)
REMARK    1  A    between atoms: C_1  and  C_2
REMARK    2  A    between atoms: C_4  and  C_14
REMARK    3  A    between atoms: N_16  and  C_17
REMARK    4  A    between atoms: C_20  and  C_23
REMARK    5  A    between atoms: C_23  and  N_24
REMARK                            x       y       z     vdW  Elec       q    Type
REMARK                         _______ _______ _______ _____ _____    ______ ____
ROOT
ATOM      1  C   UNL     1      -2.363  -0.004  -0.925  0.00  0.00    +0.262 C 
ATOM      2  O   UNL     1      -3.145  -0.743  -1.484  0.00  0.00    -0.271 OA
ATOM      3  N   UNL     1      -2.048   1.185  -1.476  0.00  0.00    -0.282 N 
ATOM      4  H   UNL     1      -1.350   1.732  -1.082  0.00  0.00    +0.155 HD
ENDROOT
BRANCH   1   7
ATOM      5  C   UNL     1      -4.009  -0.589   1.440  0.00  0.00    +0.056 C 
ATOM      6  C   UNL     1      -2.627   0.057   1.547  0.00  0.00    +0.220 C 
ATOM      7  C   UNL     1      -1.742  -0.415   0.385  0.00  0.00    +0.299 C 
ATOM      8  O   UNL     1      -0.455   0.196   0.524  0.00  0.00    -0.472 OA
ATOM      9  C   UNL     1       0.105   0.167   1.764  0.00  0.00    +0.163 A 
ATOM     10  C   UNL     1       1.465   0.401   1.903  0.00  0.00    +0.049 A 
ATOM     11  C   UNL     1       2.048   0.378   3.156  0.00  0.00    +0.004 A 
ATOM     12  C   UNL     1       1.277   0.122   4.274  0.00  0.00    +0.004 A 
ATOM     13  C   UNL     1      -0.078  -0.115   4.143  0.00  0.00    +0.049 A 
ATOM     14  C   UNL     1      -0.669  -0.095   2.889  0.00  0.00    +0.163 A 
ATOM     15  O   UNL     1      -2.004  -0.337   2.775  0.00  0.00    -0.481 OA
ENDBRANCH   1   7
BRANCH   3  16
ATOM     16  C   UNL     1      -2.727   1.631  -2.615  0.00  0.00    +0.034 A 
ATOM     17  C   UNL     1      -3.239   0.713  -3.523  0.00  0.00    +0.023 A 
ATOM     18  C   UNL     1      -3.909   1.156  -4.646  0.00  0.00    +0.007 A 
ATOM     19  C   UNL     1      -4.071   2.511  -4.867  0.00  0.00    -0.030 A 
ATOM     20  C   UNL     1      -3.562   3.428  -3.965  0.00  0.00    +0.007 A 
ATOM     21  C   UNL     1      -2.897   2.991  -2.837  0.00  0.00    +0.023 A 
BRANCH  19  22
ATOM     22  C   UNL     1      -4.803   2.991  -6.095  0.00  0.00    +0.141 C 
BRANCH  22  23
ATOM     23  N   UNL     1      -6.231   3.118  -5.793  0.00  0.00    -0.295 N 
ATOM     24  C   UNL     1      -7.087   3.535  -6.747  0.00  0.00    +0.297 C 
ATOM     25  O   UNL     1      -6.674   3.805  -7.858  0.00  0.00    -0.253 OA
ATOM     26  N   UNL     1      -8.400   3.652  -6.469  0.00  0.00    -0.313 N 
ATOM     27  H   UNL     1      -6.561   2.903  -4.906  0.00  0.00    +0.151 HD
ATOM     28  H   UNL     1      -8.730   3.436  -5.583  0.00  0.00    +0.146 HD
ATOM     29  H   UNL     1      -9.016   3.952  -7.156  0.00  0.00    +0.146 HD
ENDBRANCH  22  23
ENDBRANCH  19  22
ENDBRANCH   3  16
TORSDOF 4
