REMARK  Name = ZINC01144960
REMARK  5 active torsions:
REMARK  status: ('A' for Active; 'I' for Inactive)
REMARK    1  A    between atoms: C_5  and  C_7
REMARK    2  A    between atoms: N_9  and  C_10
REMARK    3  A    between atoms: C_10  and  C_21
REMARK    4  A    between atoms: C_11  and  C_12
REMARK    5  A    between atoms: C_16  and  N_18
REMARK                            x       y       z     vdW  Elec       q    Type
REMARK                         _______ _______ _______ _____ _____    ______ ____
ROOT
ATOM      1  C   UNL     1      -1.180   5.854  -0.024  0.00  0.00    +0.096 C 
ATOM      2  C   UNL     1      -0.027   5.151   0.056  0.00  0.00    +0.036 C 
ENDROOT
BRANCH   2   3
ATOM      3  C   UNL     1      -0.046   3.687  -0.084  0.00  0.00    -0.021 A 
ATOM      4  C   UNL     1      -1.030   3.068  -0.863  0.00  0.00    +0.008 A 
ATOM      5  C   UNL     1      -1.037   1.695  -0.994  0.00  0.00    +0.003 A 
ATOM      6  C   UNL     1      -0.082   0.930  -0.348  0.00  0.00    +0.033 A 
ATOM      7  C   UNL     1       0.895   1.534   0.423  0.00  0.00    +0.127 A 
ATOM      8  C   UNL     1       0.919   2.906   0.560  0.00  0.00    +0.040 A 
BRANCH   7   9
ATOM      9  N   UNL     1       1.916   0.707   1.104  0.00  0.00    +0.056 N 
ATOM     10  O   UNL     1       1.896  -0.505   0.984  0.00  0.00    -0.126 OA
ATOM     11  O   UNL     1       2.776   1.237   1.784  0.00  0.00    -0.126 OA
ENDBRANCH   7   9
ENDBRANCH   2   3
BRANCH   1  12
ATOM     12  C   UNL     1      -2.470   5.148  -0.057  0.00  0.00    +0.256 C 
ATOM     13  O   UNL     1      -3.147   5.164  -1.068  0.00  0.00    -0.269 OA
ATOM     14  N   UNL     1      -2.902   4.483   1.033  0.00  0.00    -0.324 N 
ATOM     15  H   UNL     1      -2.399   4.530   1.861  0.00  0.00    +0.145 HD
ATOM     16  H   UNL     1      -3.716   3.958   0.989  0.00  0.00    +0.145 HD
ENDBRANCH   1  12
BRANCH   1  19
ATOM     17  C   UNL     1      -2.292   7.948  -0.203  0.00  0.00    +0.249 C 
ATOM     18  O   UNL     1      -3.361   7.369  -0.192  0.00  0.00    -0.270 OA
ATOM     19  N   UNL     1      -1.146   7.250  -0.076  0.00  0.00    -0.277 N 
ATOM     20  H   UNL     1      -0.297   7.717  -0.020  0.00  0.00    +0.155 HD
BRANCH  17  25
ATOM     21  C   UNL     1      -0.991  11.457  -0.511  0.00  0.00    +0.001 A 
ATOM     22  C   UNL     1      -2.169  12.171  -0.642  0.00  0.00    +0.001 A 
ATOM     23  C   UNL     1      -3.387  11.516  -0.631  0.00  0.00    +0.016 A 
ATOM     24  C   UNL     1      -3.435  10.143  -0.488  0.00  0.00    +0.030 A 
ATOM     25  C   UNL     1      -2.249   9.417  -0.356  0.00  0.00    +0.051 A 
ATOM     26  C   UNL     1      -1.024  10.086  -0.364  0.00  0.00    +0.014 A 
ATOM     27 BR   UNL     1      -5.101   9.249  -0.472  0.00  0.00    -0.050 Br
ENDBRANCH  17  25
ENDBRANCH   1  19
TORSDOF 5
