REMARK  Name = ZINC54398416
REMARK  3 active torsions:
REMARK  status: ('A' for Active; 'I' for Inactive)
REMARK    1  A    between atoms: C_4  and  N_10
REMARK    2  A    between atoms: C_5  and  C_7
REMARK    3  A    between atoms: C_7  and  N_9
REMARK                            x       y       z     vdW  Elec       q    Type
REMARK                         _______ _______ _______ _____ _____    ______ ____
ROOT
ATOM      1  C   UNL     1      -0.016   1.314   0.009  0.00  0.00    +0.131 A 
ATOM      2  C   UNL     1       1.171   2.028  -0.071  0.00  0.00    +0.133 A 
ATOM      3  N   UNL     1       2.330   1.396  -0.082  0.00  0.00    -0.233 NA
ATOM      4  C   UNL     1       2.365   0.072  -0.017  0.00  0.00    +0.182 A 
ATOM      5  C   UNL     1       1.165  -0.651   0.065  0.00  0.00    +0.136 A 
ATOM      6  N   UNL     1       0.004  -0.002   0.075  0.00  0.00    -0.248 NA
ENDROOT
BRANCH   4   7
ATOM      7  N   UNL     1       3.586  -0.599  -0.029  0.00  0.00    -0.218 N 
ATOM      8  C   UNL     1       4.744  -0.144  -0.579  0.00  0.00    +0.136 A 
ATOM      9  C   UNL     1       5.691  -1.090  -0.378  0.00  0.00    +0.079 A 
ATOM     10  C   UNL     1       5.099  -2.153   0.315  0.00  0.00    +0.154 A 
ATOM     11  N   UNL     1       3.843  -1.858   0.529  0.00  0.00    -0.172 NA
ATOM     12 CL   UNL     1       7.348  -1.000  -0.888  0.00  0.00    -0.080 Cl
ENDBRANCH   4   7
BRANCH   5  13
ATOM     13  C   UNL     1       1.191  -2.126   0.138  0.00  0.00    +0.099 C 
ATOM     14  S   UNL     1       1.276  -3.053  -1.298  0.00  0.00    -0.033 S 
BRANCH  13  15
ATOM     15  N   UNL     1       1.148  -2.741   1.336  0.00  0.00    -0.350 N 
ATOM     16  H   UNL     1       1.100  -2.216   2.150  0.00  0.00    +0.143 HD
ATOM     17  H   UNL     1       1.166  -3.710   1.385  0.00  0.00    +0.143 HD
ENDBRANCH  13  15
ENDBRANCH   5  13
TORSDOF 3
