REMARK  Name = ZINC05611290
REMARK  4 active torsions:
REMARK  status: ('A' for Active; 'I' for Inactive)
REMARK    1  A    between atoms: C_3  and  C_10
REMARK    2  A    between atoms: C_5  and  N_7
REMARK    3  A    between atoms: C_11  and  C_12
REMARK    4  A    between atoms: N_14  and  C_15
REMARK                            x       y       z     vdW  Elec       q    Type
REMARK                         _______ _______ _______ _____ _____    ______ ____
ROOT
ATOM      1  C   UNL     1      -1.273   7.453  -0.113  0.00  0.00    +0.241 C 
ATOM      2  O   UNL     1      -0.247   8.088  -0.274  0.00  0.00    -0.270 OA
ATOM      3  N   UNL     1      -2.443   8.097   0.069  0.00  0.00    -0.282 N 
ATOM      4  H   UNL     1      -3.271   7.594   0.120  0.00  0.00    +0.155 HD
ENDROOT
BRANCH   3   5
ATOM      5  C   UNL     1      -2.463   9.491   0.182  0.00  0.00    +0.034 A 
ATOM      6  C   UNL     1      -3.544  10.214  -0.305  0.00  0.00    +0.023 A 
ATOM      7  C   UNL     1      -3.559  11.589  -0.190  0.00  0.00    +0.006 A 
ATOM      8  C   UNL     1      -2.500  12.252   0.409  0.00  0.00    -0.044 A 
ATOM      9  C   UNL     1      -1.422  11.535   0.894  0.00  0.00    -0.042 A 
ATOM     10  C   UNL     1      -1.405  10.155   0.787  0.00  0.00    +0.027 A 
ATOM     11  C   UNL     1      -0.406  12.482   1.496  0.00  0.00    +0.036 C 
ATOM     12  C   UNL     1      -1.171  13.804   1.720  0.00  0.00    +0.009 C 
ATOM     13  C   UNL     1      -2.281  13.730   0.652  0.00  0.00    +0.036 C 
ENDBRANCH   3   5
BRANCH   1  15
ATOM     14  C   UNL     1      -0.066   5.345  -0.298  0.00  0.00    +0.013 C 
ATOM     15  C   UNL     1      -1.236   5.989  -0.116  0.00  0.00    +0.068 C 
BRANCH  14  18
ATOM     16  C   UNL     1      -1.164   1.762  -0.125  0.00  0.00    +0.003 A 
ATOM     17  C   UNL     1      -1.206   3.140  -0.116  0.00  0.00    +0.008 A 
ATOM     18  C   UNL     1      -0.029   3.873  -0.301  0.00  0.00    -0.023 A 
ATOM     19  C   UNL     1       1.183   3.201  -0.489  0.00  0.00    +0.040 A 
ATOM     20  C   UNL     1       1.209   1.823  -0.490  0.00  0.00    +0.127 A 
ATOM     21  C   UNL     1       0.040   1.104  -0.306  0.00  0.00    +0.033 A 
BRANCH  20  22
ATOM     22  N   UNL     1       2.490   1.109  -0.689  0.00  0.00    +0.056 N 
ATOM     23  O   UNL     1       2.516  -0.109  -0.690  0.00  0.00    -0.126 OA
ATOM     24  O   UNL     1       3.520   1.739  -0.851  0.00  0.00    -0.126 OA
ENDBRANCH  20  22
ENDBRANCH  14  18
ENDBRANCH   1  15
TORSDOF 4
