REMARK  Name = ZINC25952931
REMARK  12 active torsions:
REMARK  status: ('A' for Active; 'I' for Inactive)
REMARK    1  A    between atoms: C_1  and  C_2
REMARK    2  A    between atoms: C_2  and  O_3
REMARK    3  A    between atoms: O_3  and  C_4
REMARK    4  A    between atoms: C_4  and  C_6
REMARK    5  A    between atoms: C_7  and  C_34
REMARK    6  A    between atoms: C_8  and  C_13
REMARK    7  A    between atoms: C_9  and  C_12
REMARK    8  A    between atoms: C_13  and  C_15
REMARK    9  A    between atoms: C_15  and  N_16
REMARK   10  A    between atoms: N_19  and  C_22
REMARK   11  A    between atoms: C_23  and  C_32
REMARK   12  A    between atoms: C_25  and  C_27
REMARK                            x       y       z     vdW  Elec       q    Type
REMARK                         _______ _______ _______ _____ _____    ______ ____
ROOT
ATOM      1  N   UNL     1      -1.953   2.306  -9.480  0.00  0.00    +0.387 N 
ATOM      2  C   UNL     1      -0.640   2.792  -9.927  0.00  0.00    -0.059 C 
ATOM      3  C   UNL     1      -0.402   2.353 -11.373  0.00  0.00    +0.089 C 
ATOM      4  N   UNL     1      -1.474   2.882 -12.227  0.00  0.00    -0.303 N 
ATOM      5  C   UNL     1      -2.787   2.396 -11.780  0.00  0.00    +0.089 C 
ATOM      6  C   UNL     1      -3.026   2.836 -10.334  0.00  0.00    -0.059 C 
ATOM      7  H   UNL     1      -1.958   1.210  -9.570  0.00  0.00    -0.081 HD
ENDROOT
BRANCH   4   8
ATOM      8  C   UNL     1      -1.254   2.566 -13.550  0.00  0.00    +0.227 A 
ATOM      9  C   UNL     1      -0.125   2.868 -14.296  0.00  0.00    +0.201 A 
ATOM     10  N   UNL     1      -0.331   2.371 -15.545  0.00  0.00    -0.194 NA
ATOM     11  C   UNL     1      -1.509   1.796 -15.577  0.00  0.00    +0.266 A 
ATOM     12  O   UNL     1      -2.091   1.898 -14.366  0.00  0.00    -0.417 OA
BRANCH  11  13
ATOM     13  C   UNL     1      -2.100   1.139 -16.750  0.00  0.00    +0.189 A 
ATOM     14  C   UNL     1      -1.522   1.023 -17.980  0.00  0.00    +0.055 A 
ATOM     15  C   UNL     1      -2.436   0.326 -18.793  0.00  0.00    +0.042 A 
ATOM     16  C   UNL     1      -3.515   0.052 -18.032  0.00  0.00    +0.196 A 
ATOM     17  O   UNL     1      -3.307   0.540 -16.798  0.00  0.00    -0.458 OA
ENDBRANCH  11  13
BRANCH   9  18
ATOM     18  C   UNL     1       1.036   3.570 -13.839  0.00  0.00    +0.124 C 
ATOM     19  N   UNL     1       1.957   4.127 -13.476  0.00  0.00    -0.189 NA
ENDBRANCH   9  18
ENDBRANCH   4   8
BRANCH   1  20
ATOM     20  C   UNL     1      -2.188   2.644  -8.070  0.00  0.00    +0.002 C 
BRANCH  20  21
ATOM     21  C   UNL     1      -1.215   1.886  -7.204  0.00  0.00    +0.149 C 
ATOM     22  O   UNL     1      -0.477   1.061  -7.700  0.00  0.00    -0.294 OA
BRANCH  21  25
ATOM     23  C   UNL     1      -1.583   2.070  -3.570  0.00  0.00    +0.128 A 
ATOM     24  C   UNL     1      -1.961   1.535  -4.766  0.00  0.00    -0.008 A 
ATOM     25  C   UNL     1      -1.161   2.145  -5.762  0.00  0.00    +0.039 A 
ATOM     26  C   UNL     1      -0.313   3.031  -5.114  0.00  0.00    +0.024 A 
ATOM     27  N   UNL     1      -0.573   2.980  -3.800  0.00  0.00    -0.352 N 
ATOM     28  H   UNL     1      -0.121   3.524  -2.958  0.00  0.00    +0.166 HD
ATOM     29  C   UNL     1       0.723   3.902  -5.775  0.00  0.00    +0.064 C 
ATOM     30  C   UNL     1      -3.029   0.495  -4.986  0.00  0.00    +0.047 C 
BRANCH  23  31
ATOM     31  C   UNL     1      -2.151   1.730  -2.261  0.00  0.00    +0.356 C 
ATOM     32  O   UNL     1      -3.043   0.908  -2.180  0.00  0.00    -0.243 OA
BRANCH  31  33
ATOM     33  O   UNL     1      -1.683   2.329  -1.147  0.00  0.00    -0.460 OA
BRANCH  33  35
ATOM     34  C   UNL     1      -1.635   2.723   1.256  0.00  0.00    +0.048 C 
ATOM     35  C   UNL     1      -2.291   1.944   0.114  0.00  0.00    +0.229 C 
ENDBRANCH  33  35
ENDBRANCH  31  33
ENDBRANCH  23  31
ENDBRANCH  21  25
ENDBRANCH  20  21
ENDBRANCH   1  20
TORSDOF 9
