REMARK  Name = ZINC12739237
REMARK  15 active torsions:
REMARK  status: ('A' for Active; 'I' for Inactive)
REMARK    1  A    between atoms: C_1  and  C_2
REMARK    2  A    between atoms: C_5  and  S_8
REMARK    3  A    between atoms: S_8  and  N_11
REMARK    4  A    between atoms: N_11  and  C_12
REMARK    5  A    between atoms: C_12  and  C_14
REMARK    6  A    between atoms: C_12  and  C_18
REMARK    7  A    between atoms: C_14  and  C_15
REMARK    8  A    between atoms: C_15  and  C_16
REMARK    9  A    between atoms: C_15  and  C_17
REMARK   10  A    between atoms: N_20  and  C_21
REMARK   11  A    between atoms: C_24  and  N_27
REMARK   12  A    between atoms: C_28  and  C_30
REMARK   13  A    between atoms: C_30  and  C_31
REMARK   14  A    between atoms: C_31  and  C_32
REMARK   15  A    between atoms: C_31  and  C_33
REMARK                            x       y       z     vdW  Elec       q    Type
REMARK                         _______ _______ _______ _____ _____    ______ ____
ROOT
ATOM      1  C   UNL     1      -4.833   5.328   0.832  0.00  0.00    +0.236 C 
ATOM      2  O   UNL     1      -3.782   5.931   0.890  0.00  0.00    -0.274 OA
ATOM      3  N   UNL     1      -4.924   4.084   1.343  0.00  0.00    -0.284 N 
ATOM      4  H   UNL     1      -5.780   3.627   1.358  0.00  0.00    +0.155 HD
ENDROOT
BRANCH   3   5
ATOM      5  C   UNL     1      -3.783   3.451   1.853  0.00  0.00    +0.034 A 
ATOM      6  C   UNL     1      -3.621   2.081   1.695  0.00  0.00    +0.025 A 
ATOM      7  C   UNL     1      -2.496   1.457   2.197  0.00  0.00    +0.025 A 
ATOM      8  C   UNL     1      -1.528   2.199   2.860  0.00  0.00    +0.033 A 
ATOM      9  C   UNL     1      -1.693   3.568   3.023  0.00  0.00    +0.025 A 
ATOM     10  C   UNL     1      -2.815   4.193   2.516  0.00  0.00    +0.025 A 
BRANCH   8  11
ATOM     11  N   UNL     1      -0.387   1.566   3.369  0.00  0.00    -0.285 N 
ATOM     12  C   UNL     1       0.166   0.534   2.701  0.00  0.00    +0.217 C 
ATOM     13  O   UNL     1      -0.369   0.102   1.702  0.00  0.00    -0.275 OA
ATOM     14  H   UNL     1       0.004   1.868   4.204  0.00  0.00    +0.155 HD
BRANCH  12  15
ATOM     15  C   UNL     1       1.448  -0.084   3.196  0.00  0.00    +0.099 C 
BRANCH  15  16
ATOM     16  C   UNL     1       1.857  -1.227   2.264  0.00  0.00    -0.008 C 
ATOM     17  C   UNL     1       3.220  -1.772   2.693  0.00  0.00    +0.008 C 
ATOM     18  C   UNL     1       0.814  -2.344   2.341  0.00  0.00    +0.008 C 
ENDBRANCH  15  16
ENDBRANCH  12  15
ENDBRANCH   8  11
ENDBRANCH   3   5
BRANCH   1  19
ATOM     19  C   UNL     1      -6.036   5.968   0.190  0.00  0.00    +0.163 C 
BRANCH  19  20
ATOM     20  N   UNL     1      -5.681   7.309  -0.283  0.00  0.00    -0.178 NA
ATOM     21  H   UNL     1      -5.042   7.415  -1.006  0.00  0.00    +0.149 HD
BRANCH  20  22
ATOM     22  S   UNL     1      -6.370   8.643   0.415  0.00  0.00    +0.059 S 
ATOM     23  O   UNL     1      -5.794   9.777  -0.218  0.00  0.00    -0.153 OA
ATOM     24  O   UNL     1      -7.772   8.412   0.435  0.00  0.00    -0.153 OA
BRANCH  22  29
ATOM     25  C   UNL     1      -4.564   8.778   6.170  0.00  0.00    +0.044 C 
ATOM     26  C   UNL     1      -5.015   8.745   4.733  0.00  0.00    -0.050 A 
ATOM     27  C   UNL     1      -4.271   9.384   3.760  0.00  0.00    +0.005 A 
ATOM     28  C   UNL     1      -4.685   9.353   2.441  0.00  0.00    +0.029 A 
ATOM     29  C   UNL     1      -5.843   8.682   2.096  0.00  0.00    +0.105 A 
ATOM     30  C   UNL     1      -6.590   8.046   3.070  0.00  0.00    +0.029 A 
ATOM     31  C   UNL     1      -6.174   8.074   4.388  0.00  0.00    +0.005 A 
ENDBRANCH  22  29
ENDBRANCH  20  22
ENDBRANCH  19  20
BRANCH  19  32
ATOM     32  C   UNL     1      -6.497   5.115  -0.994  0.00  0.00    +0.032 C 
BRANCH  32  33
ATOM     33  C   UNL     1      -7.789   5.697  -1.569  0.00  0.00    -0.015 C 
ATOM     34  C   UNL     1      -8.172   4.933  -2.839  0.00  0.00    +0.007 C 
ATOM     35  C   UNL     1      -8.911   5.566  -0.537  0.00  0.00    +0.007 C 
ENDBRANCH  32  33
ENDBRANCH  19  32
ENDBRANCH   1  19
TORSDOF 10
