REMARK  Name = ZINC59681803
REMARK  10 active torsions:
REMARK  status: ('A' for Active; 'I' for Inactive)
REMARK    1  A    between atoms: C_1  and  C_2
REMARK    2  A    between atoms: C_2  and  C_4
REMARK    3  A    between atoms: N_6  and  C_21
REMARK    4  A    between atoms: C_7  and  C_12
REMARK    5  A    between atoms: N_10  and  C_11
REMARK    6  A    between atoms: C_15  and  N_18
REMARK    7  A    between atoms: N_18  and  C_19
REMARK    8  A    between atoms: N_18  and  C_20
REMARK    9  A    between atoms: C_24  and  O_27
REMARK   10  A    between atoms: O_27  and  C_28
REMARK                            x       y       z     vdW  Elec       q    Type
REMARK                         _______ _______ _______ _____ _____    ______ ____
ROOT
ATOM      1  C   UNL     1      -1.070  -1.036   0.770  0.00  0.00    +0.195 C 
ATOM      2  N   UNL     1      -2.075  -0.214   0.947  0.00  0.00    -0.158 NA
ATOM      3  N   UNL     1      -3.281  -0.447   0.262  0.00  0.00    -0.200 N 
ATOM      4  C   UNL     1      -3.265  -1.387  -0.871  0.00  0.00    +0.212 C 
ATOM      5  N   UNL     1      -2.445  -2.549  -0.480  0.00  0.00    -0.213 NA
ATOM      6  N   UNL     1      -1.196  -2.126  -0.104  0.00  0.00    -0.248 N 
ATOM      7  C   UNL     1      -0.002  -2.809  -0.607  0.00  0.00    +0.151 C 
ATOM      8  H   UNL     1      -2.890  -3.074   0.258  0.00  0.00    +0.147 HD
ENDROOT
BRANCH   4   9
ATOM      9  C   UNL     1      -2.662  -0.718  -2.079  0.00  0.00    -0.010 A 
ATOM     10  C   UNL     1      -2.787   0.649  -2.246  0.00  0.00    +0.009 A 
ATOM     11  C   UNL     1      -2.236   1.264  -3.352  0.00  0.00    +0.023 A 
ATOM     12  C   UNL     1      -1.555   0.509  -4.298  0.00  0.00    +0.029 A 
ATOM     13  C   UNL     1      -1.431  -0.864  -4.128  0.00  0.00    +0.023 A 
ATOM     14  C   UNL     1      -1.980  -1.473  -3.016  0.00  0.00    +0.009 A 
BRANCH  12  15
ATOM     15  N   UNL     1      -0.996   1.128  -5.419  0.00  0.00    -0.336 N 
ATOM     16  C   UNL     1      -1.128   2.576  -5.597  0.00  0.00    +0.129 C 
ATOM     17  C   UNL     1      -0.278   0.330  -6.415  0.00  0.00    +0.129 C 
ENDBRANCH  12  15
ENDBRANCH   4   9
BRANCH   3  18
ATOM     18  C   UNL     1      -4.461   0.194   0.646  0.00  0.00    +0.054 A 
ATOM     19  C   UNL     1      -5.643  -0.055  -0.040  0.00  0.00    +0.028 A 
ATOM     20  C   UNL     1      -6.809   0.579   0.340  0.00  0.00    +0.047 A 
ATOM     21  C   UNL     1      -6.800   1.465   1.408  0.00  0.00    +0.120 A 
ATOM     22  C   UNL     1      -5.620   1.715   2.095  0.00  0.00    +0.047 A 
ATOM     23  C   UNL     1      -4.455   1.077   1.720  0.00  0.00    +0.028 A 
BRANCH  21  24
ATOM     24  O   UNL     1      -7.948   2.089   1.782  0.00  0.00    -0.495 OA
ATOM     25  C   UNL     1      -7.867   2.988   2.890  0.00  0.00    +0.277 C 
ENDBRANCH  21  24
ENDBRANCH   3  18
BRANCH   1  27
ATOM     26  C   UNL     1       0.333   0.421   2.291  0.00  0.00    +0.095 C 
ATOM     27  C   UNL     1       0.148  -0.821   1.458  0.00  0.00    +0.195 C 
ATOM     28  O   UNL     1       1.044  -1.637   1.377  0.00  0.00    -0.289 OA
ENDBRANCH   1  27
TORSDOF 5
