REMARK  Name = ZINC02490472
REMARK  9 active torsions:
REMARK  status: ('A' for Active; 'I' for Inactive)
REMARK    1  A    between atoms: C_1  and  C_2
REMARK    2  A    between atoms: C_3  and  C_24
REMARK    3  A    between atoms: C_14  and  C_18
REMARK    4  A    between atoms: C_15  and  N_17
REMARK    5  A    between atoms: C_18  and  O_20
REMARK    6  A    between atoms: O_20  and  C_21
REMARK    7  A    between atoms: C_21  and  C_22
REMARK    8  A    between atoms: C_24  and  O_26
REMARK    9  A    between atoms: O_26  and  C_27
REMARK                            x       y       z     vdW  Elec       q    Type
REMARK                         _______ _______ _______ _____ _____    ______ ____
ROOT
ATOM      1  C   UNL     1       2.064   5.552  -2.526  0.00  0.00    +0.087 C 
ATOM      2  C   UNL     1       1.595   5.012  -1.200  0.00  0.00    +0.116 C 
ATOM      3  C   UNL     1       1.058   3.785  -1.155  0.00  0.00    +0.098 C 
ATOM      4  C   UNL     1       0.580   3.201   0.142  0.00  0.00    +0.145 C 
ATOM      5  C   UNL     1      -0.928   3.185   0.192  0.00  0.00    -0.002 A 
ATOM      6  C   UNL     1      -1.881   4.177   0.143  0.00  0.00    +0.007 A 
ATOM      7  C   UNL     1      -3.224   3.849   0.214  0.00  0.00    +0.000 A 
ATOM      8  C   UNL     1      -3.603   2.524   0.335  0.00  0.00    +0.002 A 
ATOM      9  C   UNL     1      -2.650   1.528   0.384  0.00  0.00    +0.023 A 
ATOM     10  C   UNL     1      -1.296   1.850   0.306  0.00  0.00    +0.038 A 
ATOM     11  N   UNL     1      -0.162   1.037   0.340  0.00  0.00    -0.284 N 
ATOM     12  C   UNL     1       0.975   1.747   0.244  0.00  0.00    +0.237 C 
ATOM     13  O   UNL     1       2.105   1.305   0.241  0.00  0.00    -0.274 OA
ATOM     14  C   UNL     1       1.135   3.976   1.303  0.00  0.00    +0.117 C 
ATOM     15  C   UNL     1       1.677   5.208   1.111  0.00  0.00    +0.195 C 
ATOM     16  O   UNL     1       1.730   5.774  -0.106  0.00  0.00    -0.446 OA
ATOM     17  H   UNL     1      -0.192   0.070   0.418  0.00  0.00    +0.155 HD
ENDROOT
BRANCH  15  18
ATOM     18  N   UNL     1       2.179   5.891   2.187  0.00  0.00    -0.329 N 
ATOM     19  H   UNL     1       2.048   6.849   2.258  0.00  0.00    +0.145 HD
ATOM     20  H   UNL     1       2.667   5.415   2.877  0.00  0.00    +0.145 HD
ENDBRANCH  15  18
BRANCH  14  21
ATOM     21  C   UNL     1       1.095   3.425   2.593  0.00  0.00    +0.342 C 
ATOM     22  O   UNL     1       1.614   4.015   3.524  0.00  0.00    -0.245 OA
BRANCH  21  23
ATOM     23  O   UNL     1       0.480   2.240   2.802  0.00  0.00    -0.457 OA
BRANCH  23  24
ATOM     24  C   UNL     1       0.478   1.739   4.140  0.00  0.00    +0.259 C 
BRANCH  24  25
ATOM     25  C   UNL     1      -0.247   0.418   4.180  0.00  0.00    +0.006 C 
ATOM     26  C   UNL     1       0.263  -0.589   4.844  0.00  0.00    +0.007 C 
ENDBRANCH  24  25
ENDBRANCH  23  24
ENDBRANCH  21  23
ENDBRANCH  14  21
BRANCH   3  27
ATOM     27  C   UNL     1       0.939   3.029  -2.348  0.00  0.00    +0.340 C 
ATOM     28  O   UNL     1      -0.138   2.939  -2.906  0.00  0.00    -0.245 OA
BRANCH  27  29
ATOM     29  O   UNL     1       2.021   2.409  -2.864  0.00  0.00    -0.465 OA
ATOM     30  C   UNL     1       1.828   1.665  -4.069  0.00  0.00    +0.280 C 
ENDBRANCH  27  29
ENDBRANCH   3  27
TORSDOF 7
