REMARK  Name = ZINC61687579
REMARK  9 active torsions:
REMARK  status: ('A' for Active; 'I' for Inactive)
REMARK    1  A    between atoms: C_1  and  C_2
REMARK    2  A    between atoms: C_3  and  C_19
REMARK    3  A    between atoms: C_4  and  N_18
REMARK    4  A    between atoms: C_6  and  C_8
REMARK    5  A    between atoms: C_10  and  O_16
REMARK    6  A    between atoms: C_11  and  O_15
REMARK    7  A    between atoms: O_16  and  C_17
REMARK    8  A    between atoms: C_19  and  C_20
REMARK    9  A    between atoms: C_19  and  C_21
REMARK                            x       y       z     vdW  Elec       q    Type
REMARK                         _______ _______ _______ _____ _____    ______ ____
ROOT
ATOM      1  C   UNL     1      -0.422   1.510  -0.172  0.00  0.00    +0.064 C 
ATOM      2  C   UNL     1      -0.255   0.016  -0.062  0.00  0.00    +0.021 A 
ATOM      3  C   UNL     1      -0.105  -0.755  -1.200  0.00  0.00    +0.014 A 
ATOM      4  C   UNL     1       0.047  -2.136  -1.054  0.00  0.00    +0.124 A 
ATOM      5  N   UNL     1       0.043  -2.660   0.167  0.00  0.00    -0.215 NA
ATOM      6  C   UNL     1      -0.103  -1.885   1.233  0.00  0.00    +0.141 A 
ATOM      7  N   UNL     1      -0.245  -0.571   1.124  0.00  0.00    -0.343 N 
ATOM      8  H   UNL     1      -0.346  -0.033   1.925  0.00  0.00    +0.167 HD
ENDROOT
BRANCH   6   9
ATOM      9  C   UNL     1      -0.104  -2.503   2.580  0.00  0.00    +0.022 A 
ATOM     10  C   UNL     1       0.054  -3.882   2.716  0.00  0.00    +0.061 A 
ATOM     11  C   UNL     1       0.053  -4.455   3.975  0.00  0.00    +0.163 A 
ATOM     12  C   UNL     1      -0.105  -3.654   5.104  0.00  0.00    +0.173 A 
ATOM     13  C   UNL     1      -0.262  -2.283   4.968  0.00  0.00    +0.064 A 
ATOM     14  C   UNL     1      -0.257  -1.706   3.714  0.00  0.00    +0.030 A 
ATOM     15 BR   UNL     1      -0.477  -1.200   6.504  0.00  0.00    -0.046 Br
BRANCH  12  16
ATOM     16  O   UNL     1      -0.106  -4.218   6.341  0.00  0.00    -0.503 OA
ATOM     17  H   UNL     1       0.770  -4.277   6.747  0.00  0.00    +0.292 HD
ENDBRANCH  12  16
BRANCH  11  18
ATOM     18  O   UNL     1       0.207  -5.799   4.110  0.00  0.00    -0.491 OA
ATOM     19  C   UNL     1       0.364  -6.558   2.910  0.00  0.00    +0.277 C 
ENDBRANCH  11  18
ENDBRANCH   6   9
BRANCH   4  20
ATOM     20  N   UNL     1       0.200  -2.947  -2.167  0.00  0.00    -0.343 N 
ATOM     21  H   UNL     1       0.302  -2.551  -3.046  0.00  0.00    +0.144 HD
ATOM     22  H   UNL     1       0.205  -3.912  -2.066  0.00  0.00    +0.144 HD
ENDBRANCH   4  20
BRANCH   3  23
ATOM     23  C   UNL     1      -0.106  -0.120  -2.567  0.00  0.00    +0.018 C 
ATOM     24  C   UNL     1       1.243  -0.365  -3.244  0.00  0.00    +0.012 C 
ATOM     25  C   UNL     1      -1.222  -0.735  -3.414  0.00  0.00    +0.012 C 
ENDBRANCH   3  23
TORSDOF 5
