REMARK  Name = ZINC12747156
REMARK  6 active torsions:
REMARK  status: ('A' for Active; 'I' for Inactive)
REMARK    1  A    between atoms: C_1  and  O_2
REMARK    2  A    between atoms: O_2  and  C_3
REMARK    3  A    between atoms: C_5  and  C_20
REMARK    4  A    between atoms: C_8  and  O_9
REMARK    5  A    between atoms: O_9  and  C_10
REMARK    6  A    between atoms: C_15  and  N_60
REMARK                            x       y       z     vdW  Elec       q    Type
REMARK                         _______ _______ _______ _____ _____    ______ ____
ROOT
ATOM      1  C   UNL     1       4.435   5.266   5.700  0.00  0.00    +0.162 A 
ATOM      2  C   UNL     1       5.043   6.504   5.780  0.00  0.00    +0.062 A 
ATOM      3  C   UNL     1       4.335   7.652   5.414  0.00  0.00    +0.041 A 
ATOM      4  C   UNL     1       3.015   7.542   4.969  0.00  0.00    +0.017 A 
ATOM      5  C   UNL     1       2.416   6.304   4.886  0.00  0.00    +0.050 A 
ATOM      6  C   UNL     1       3.118   5.164   5.255  0.00  0.00    +0.162 A 
ENDROOT
BRANCH   3   7
ATOM      7  C   UNL     1       4.980   8.976   5.497  0.00  0.00    +0.247 C 
ATOM      8  O   UNL     1       5.820   9.191   6.349  0.00  0.00    -0.270 OA
ATOM      9  N   UNL     1       4.638   9.948   4.628  0.00  0.00    -0.287 N 
ATOM     10  C   UNL     1       5.323  11.252   4.628  0.00  0.00    +0.127 C 
ATOM     11  C   UNL     1       5.996  11.432   3.260  0.00  0.00    +0.123 C 
ATOM     12  N   UNL     1       5.074  11.095   2.184  0.00  0.00    -0.313 N 
ATOM     13  C   UNL     1       4.002  10.313   2.321  0.00  0.00    +0.230 C 
ATOM     14  O   UNL     1       3.354  10.041   1.333  0.00  0.00    -0.274 OA
ATOM     15  C   UNL     1       3.562   9.752   3.646  0.00  0.00    +0.203 C 
ATOM     16  H   UNL     1       5.251  11.467   1.305  0.00  0.00    +0.149 HD
ENDBRANCH   3   7
BRANCH   1  18
ATOM     17  C   UNL     1       6.468   4.325   6.501  0.00  0.00    +0.277 C 
ATOM     18  O   UNL     1       5.122   4.147   6.054  0.00  0.00    -0.491 OA
ENDBRANCH   1  18
BRANCH   6  19
ATOM     19  O   UNL     1       2.522   3.946   5.177  0.00  0.00    -0.485 OA
BRANCH  19  20
ATOM     20  C   UNL     1       1.137   3.924   4.824  0.00  0.00    +0.170 C 
ATOM     21  C   UNL     1       0.489   2.652   5.377  0.00  0.00    +0.026 C 
ATOM     22  C   UNL     1      -0.978   2.603   4.944  0.00  0.00    -0.075 C 
ATOM     23  C   UNL     1      -0.484   3.850   2.926  0.00  0.00    -0.075 C 
ATOM     24  C   UNL     1       0.998   3.936   3.299  0.00  0.00    +0.026 C 
ATOM     25  N   UNL     1      -1.042   2.593   3.467  0.00  0.00    +0.382 N 
ATOM     26  H   UNL     1      -0.488   1.804   3.115  0.00  0.00    -0.081 HD
BRANCH  25  27
ATOM     27  C   UNL     1      -2.443   2.431   3.024  0.00  0.00    -0.069 C 
ATOM     28  C   UNL     1      -2.970   1.046   3.451  0.00  0.00    -0.015 C 
ATOM     29  C   UNL     1      -3.844   0.531   2.294  0.00  0.00    -0.002 C 
ATOM     30  C   UNL     1      -3.818   1.622   1.203  0.00  0.00    -0.002 C 
ATOM     31  C   UNL     1      -2.508   2.401   1.476  0.00  0.00    -0.015 C 
ENDBRANCH  25  27
ENDBRANCH  19  20
ENDBRANCH   6  19
TORSDOF 5
