REMARK  Name = ZINC04236682
REMARK  14 active torsions:
REMARK  status: ('A' for Active; 'I' for Inactive)
REMARK    1  A    between atoms: C_1  and  C_2
REMARK    2  A    between atoms: C_2  and  C_3
REMARK    3  A    between atoms: C_3  and  N_4
REMARK    4  A    between atoms: C_5  and  O_7
REMARK    5  A    between atoms: O_7  and  C_8
REMARK    6  A    between atoms: C_12  and  C_36
REMARK    7  A    between atoms: C_15  and  C_16
REMARK    8  A    between atoms: C_15  and  C_17
REMARK    9  A    between atoms: C_17  and  O_18
REMARK   10  A    between atoms: C_21  and  O_35
REMARK   11  A    between atoms: C_23  and  C_25
REMARK   12  A    between atoms: C_25  and  C_26
REMARK   13  A    between atoms: N_28  and  C_29
REMARK   14  A    between atoms: C_29  and  C_30
REMARK                            x       y       z     vdW  Elec       q    Type
REMARK                         _______ _______ _______ _____ _____    ______ ____
ROOT
ATOM      1  C   UNL     1      -6.356   7.750  -6.506  0.00  0.00    +0.186 C 
ATOM      2  C   UNL     1      -5.835   8.991  -5.778  0.00  0.00    +0.046 C 
ATOM      3  C   UNL     1      -5.513   8.633  -4.326  0.00  0.00    +0.011 C 
ATOM      4  C   UNL     1      -4.445   7.538  -4.296  0.00  0.00    -0.023 C 
ATOM      5  C   UNL     1      -4.966   6.297  -5.024  0.00  0.00    +0.007 C 
ATOM      6  C   UNL     1      -5.288   6.655  -6.476  0.00  0.00    +0.031 C 
ATOM      7  C   UNL     1      -5.808   5.415  -7.204  0.00  0.00    +0.017 C 
ATOM      8  C   UNL     1      -6.233   5.793  -4.330  0.00  0.00    +0.007 C 
ATOM      9  C   UNL     1      -5.911   5.434  -2.878  0.00  0.00    +0.032 C 
ATOM     10  C   UNL     1      -5.390   6.675  -2.150  0.00  0.00    +0.119 C 
ATOM     11  C   UNL     1      -4.123   7.179  -2.844  0.00  0.00    +0.032 C 
ATOM     12  C   UNL     1      -3.178   8.042  -4.990  0.00  0.00    +0.012 C 
ENDROOT
BRANCH  10  13
ATOM     13  O   UNL     1      -5.089   6.340  -0.794  0.00  0.00    -0.391 OA
ATOM     14  H   UNL     1      -5.848   6.012  -0.292  0.00  0.00    +0.210 HD
ENDBRANCH  10  13
BRANCH   1  15
ATOM     15  O   UNL     1      -6.661   8.091  -7.885  0.00  0.00    -0.446 OA
BRANCH  15  17
ATOM     16  N   UNL     1      -8.260   8.850  -9.405  0.00  0.00    -0.281 N 
ATOM     17  C   UNL     1      -7.911   8.518  -8.146  0.00  0.00    +0.401 C 
ATOM     18  O   UNL     1      -8.725   8.603  -7.247  0.00  0.00    -0.226 OA
ATOM     19  H   UNL     1      -7.611   8.781 -10.122  0.00  0.00    +0.152 HD
BRANCH  16  20
ATOM     20  C   UNL     1      -9.620   9.314  -9.690  0.00  0.00    +0.107 C 
BRANCH  20  22
ATOM     21  C   UNL     1     -11.172  10.107 -11.480  0.00  0.00    +0.005 C 
ATOM     22  C   UNL     1      -9.752   9.622 -11.182  0.00  0.00    +0.015 C 
ENDBRANCH  20  22
ENDBRANCH  16  20
ENDBRANCH  15  17
ENDBRANCH   1  15
BRANCH   6  23
ATOM     23  C   UNL     1      -4.021   7.160  -7.170  0.00  0.00    +0.166 C 
BRANCH  23  24
ATOM     24  O   UNL     1      -4.268   7.299  -8.570  0.00  0.00    -0.394 OA
ATOM     25  H   UNL     1      -3.506   7.616  -9.075  0.00  0.00    +0.209 HD
ENDBRANCH  23  24
ENDBRANCH   6  23
BRANCH  11  26
ATOM     26  C   UNL     1      -3.055   6.084  -2.813  0.00  0.00    +0.102 C 
BRANCH  26  27
ATOM     27  C   UNL     1      -2.555   5.909  -1.403  0.00  0.00    +0.214 C 
ATOM     28  O   UNL     1      -2.875   6.702  -0.543  0.00  0.00    -0.276 OA
ATOM     29  N   UNL     1      -1.751   4.872  -1.097  0.00  0.00    -0.308 N 
ATOM     30  H   UNL     1      -1.495   4.237  -1.784  0.00  0.00    +0.149 HD
BRANCH  29  31
ATOM     31  C   UNL     1      -1.265   4.701   0.275  0.00  0.00    +0.178 C 
BRANCH  31  32
ATOM     32  C   UNL     1      -0.392   3.475   0.350  0.00  0.00    +0.122 A 
ATOM     33  C   UNL     1       0.938   3.443   0.154  0.00  0.00    +0.046 A 
ATOM     34  C   UNL     1       1.344   2.099   0.319  0.00  0.00    +0.041 A 
ATOM     35  C   UNL     1       0.238   1.390   0.605  0.00  0.00    +0.195 A 
ATOM     36  O   UNL     1      -0.812   2.228   0.617  0.00  0.00    -0.466 OA
ENDBRANCH  31  32
ENDBRANCH  29  31
ENDBRANCH  26  27
ENDBRANCH  11  26
TORSDOF 11
