REMARK  Name = ZINC64613585
REMARK  4 active torsions:
REMARK  status: ('A' for Active; 'I' for Inactive)
REMARK    1  A    between atoms: C_1  and  C_2
REMARK    2  A    between atoms: C_7  and  C_8
REMARK    3  A    between atoms: C_10  and  C_14
REMARK    4  A    between atoms: C_17  and  C_20
REMARK                            x       y       z     vdW  Elec       q    Type
REMARK                         _______ _______ _______ _____ _____    ______ ____
ROOT
ATOM      1  C   UNL     1       0.850   2.247   4.729  0.00  0.00    +0.322 C 
ATOM      2  N   UNL     1       0.914   2.318   6.197  0.00  0.00    -0.287 N 
ATOM      3  C   UNL     1       0.701   3.641   6.543  0.00  0.00    +0.169 C 
ATOM      4  N   UNL     1       0.518   4.374   5.494  0.00  0.00    -0.067 NA
ATOM      5  O   UNL     1       0.594   3.597   4.311  0.00  0.00    -0.367 OA
ATOM      6  H   UNL     1       1.074   1.580   6.806  0.00  0.00    +0.151 HD
ENDROOT
BRANCH   3   7
ATOM      7  C   UNL     1       0.683   4.149   7.932  0.00  0.00    +0.036 A 
ATOM      8  C   UNL     1       0.897   3.277   9.000  0.00  0.00    +0.013 A 
ATOM      9  C   UNL     1       0.880   3.757  10.293  0.00  0.00    +0.001 A 
ATOM     10  C   UNL     1       0.652   5.101  10.533  0.00  0.00    +0.001 A 
ATOM     11  C   UNL     1       0.440   5.972   9.480  0.00  0.00    +0.021 A 
ATOM     12  C   UNL     1       0.460   5.505   8.180  0.00  0.00    +0.051 A 
ATOM     13 CL   UNL     1       0.200   6.599   6.858  0.00  0.00    -0.083 Cl
ENDBRANCH   3   7
BRANCH   1  16
ATOM     14  C   UNL     1      -0.106  -0.132   2.574  0.00  0.00    +0.091 C 
ATOM     15  C   UNL     1      -0.309   1.184   2.776  0.00  0.00    +0.037 C 
ATOM     16  C   UNL     1      -0.289   1.326   4.288  0.00  0.00    +0.215 C 
ATOM     17  N   UNL     1      -0.058  -0.052   4.752  0.00  0.00    -0.174 NA
ATOM     18  N   UNL     1       0.024  -0.780   3.761  0.00  0.00    -0.154 NA
BRANCH  14  25
ATOM     19  C   UNL     1       2.235  -1.665   1.841  0.00  0.00    +0.044 C 
ATOM     20  C   UNL     1       1.083  -1.524   0.880  0.00  0.00    -0.041 A 
ATOM     21  C   UNL     1       1.136  -2.132  -0.358  0.00  0.00    +0.004 A 
ATOM     22  C   UNL     1       0.079  -2.003  -1.241  0.00  0.00    +0.000 A 
ATOM     23  C   UNL     1      -1.036  -1.264  -0.889  0.00  0.00    +0.001 A 
ATOM     24  C   UNL     1      -1.100  -0.652   0.346  0.00  0.00    +0.010 A 
ATOM     25  C   UNL     1      -0.041  -0.783   1.242  0.00  0.00    +0.005 A 
ENDBRANCH  14  25
ENDBRANCH   1  16
TORSDOF 3
