REMARK  Name = ZINC15226566
REMARK  4 active torsions:
REMARK  status: ('A' for Active; 'I' for Inactive)
REMARK    1  A    between atoms: C_4  and  N_7
REMARK    2  A    between atoms: C_9  and  N_24
REMARK    3  A    between atoms: C_13  and  C_15
REMARK    4  A    between atoms: C_19  and  C_21
REMARK                            x       y       z     vdW  Elec       q    Type
REMARK                         _______ _______ _______ _____ _____    ______ ____
ROOT
ATOM      1  N   UNL     1       3.620  -0.649  -0.036  0.00  0.00    -0.146 N 
ATOM      2  N   UNL     1       4.900  -0.073  -0.040  0.00  0.00    -0.232 N 
ATOM      3  C   UNL     1       5.835  -1.138  -0.058  0.00  0.00    +0.123 C 
ATOM      4  C   UNL     1       5.172  -2.292  -0.065  0.00  0.00    +0.170 C 
ATOM      5  N   UNL     1       3.803  -2.038  -0.046  0.00  0.00    -0.103 N 
ATOM      6  N   UNL     1       3.149  -3.276  -0.046  0.00  0.00    -0.143 NA
ATOM      7  C   UNL     1       4.032  -4.229  -0.060  0.00  0.00    +0.151 C 
ATOM      8  N   UNL     1       5.309  -3.684  -0.080  0.00  0.00    -0.281 N 
ATOM      9  H   UNL     1       5.106   0.874  -0.032  0.00  0.00    +0.173 HD
ATOM     10  H   UNL     1       6.144  -4.178  -0.092  0.00  0.00    +0.155 HD
ENDROOT
BRANCH   1  14
ATOM     11  C   UNL     1      -0.017   1.379   0.010  0.00  0.00    +0.000 A 
ATOM     12  C   UNL     1       1.169   2.089   0.002  0.00  0.00    +0.002 A 
ATOM     13  C   UNL     1       2.377   1.420  -0.013  0.00  0.00    +0.026 A 
ATOM     14  C   UNL     1       2.400   0.031  -0.021  0.00  0.00    +0.071 A 
ATOM     15  C   UNL     1       1.206  -0.680  -0.013  0.00  0.00    +0.026 A 
ATOM     16  C   UNL     1       0.002  -0.004   0.002  0.00  0.00    +0.002 A 
ENDBRANCH   1  14
BRANCH   7  17
ATOM     17  C   UNL     1       3.723  -5.676  -0.064  0.00  0.00    +0.017 A 
ATOM     18  C   UNL     1       4.759  -6.612  -0.073  0.00  0.00    +0.011 A 
ATOM     19  C   UNL     1       4.473  -7.963  -0.077  0.00  0.00    +0.001 A 
ATOM     20  C   UNL     1       3.163  -8.399  -0.072  0.00  0.00    +0.015 A 
ATOM     21  C   UNL     1       2.116  -7.472  -0.063  0.00  0.00    +0.064 A 
ATOM     22  C   UNL     1       2.399  -6.106  -0.053  0.00  0.00    +0.026 A 
BRANCH  21  23
ATOM     23  C   UNL     1       0.716  -7.938  -0.059  0.00  0.00    +0.387 C 
ATOM     24  O   UNL     1       0.470  -9.136  -0.063  0.00  0.00    -0.241 OA
ATOM     25  O   UNL     1      -0.199  -7.127  -0.051  0.00  0.00    -0.241 OA
ENDBRANCH  21  23
ENDBRANCH   7  17
BRANCH   3  26
ATOM     26  N   UNL     1       7.226  -0.999  -0.067  0.00  0.00    -0.402 NA
ATOM     27  H   UNL     1       7.466  -0.019  -0.059  0.00  0.00    +0.122 HD
ATOM     28  H   UNL     1       7.615  -1.447   0.750  0.00  0.00    +0.122 HD
ATOM     29  H   UNL     1       7.602  -1.430  -0.898  0.00  0.00    +0.122 HD
ENDBRANCH   3  26
TORSDOF 4
