REMARK  Name = ZINC62842862
REMARK  3 active torsions:
REMARK  status: ('A' for Active; 'I' for Inactive)
REMARK    1  A    between atoms: C_1  and  C_2
REMARK    2  A    between atoms: C_2  and  C_20
REMARK    3  A    between atoms: N_10  and  C_11
REMARK                            x       y       z     vdW  Elec       q    Type
REMARK                         _______ _______ _______ _____ _____    ______ ____
ROOT
ATOM      1  C   UNL     1      -0.019   1.525   0.012  0.00  0.00    +0.023 C 
ATOM      2  C   UNL     1       0.002  -0.005  -0.002  0.00  0.00    +0.072 C 
ATOM      3  C   UNL     1       0.719  -0.493  -1.263  0.00  0.00    +0.037 C 
ATOM      4  C   UNL     1       2.145   0.067  -1.284  0.00  0.00    +0.110 C 
ATOM      5  N   UNL     1       2.815  -0.299  -0.028  0.00  0.00    -0.286 N 
ATOM      6  C   UNL     1       2.166   0.044   1.245  0.00  0.00    +0.110 C 
ATOM      7  C   UNL     1       0.740  -0.516   1.237  0.00  0.00    +0.037 C 
ATOM      8  C   UNL     1       4.002  -0.936  -0.044  0.00  0.00    +0.302 C 
ATOM      9  O   UNL     1       4.484  -1.299  -1.099  0.00  0.00    -0.253 OA
ATOM     10  N   UNL     1       4.656  -1.171   1.111  0.00  0.00    -0.298 N 
ATOM     11  H   UNL     1       4.240  -0.947   1.958  0.00  0.00    +0.150 HD
ENDROOT
BRANCH  10  12
ATOM     12  C   UNL     1       5.995  -1.765   1.087  0.00  0.00    +0.061 C 
ATOM     13  C   UNL     1       7.041  -0.664   0.898  0.00  0.00    -0.056 C 
ATOM     14  N   UNL     1       7.960  -0.645   2.039  0.00  0.00    +0.381 N 
ATOM     15  C   UNL     1       7.236  -0.354   3.279  0.00  0.00    -0.078 C 
ATOM     16  C   UNL     1       6.196  -1.444   3.547  0.00  0.00    -0.014 C 
ATOM     17  C   UNL     1       6.263  -2.484   2.416  0.00  0.00    +0.004 C 
ATOM     18  C   UNL     1       7.683  -3.063   2.376  0.00  0.00    -0.014 C 
ATOM     19  C   UNL     1       8.676  -1.918   2.147  0.00  0.00    -0.078 C 
ATOM     20  H   UNL     1       8.635   0.091   1.893  0.00  0.00    -0.082 HD
ENDBRANCH  10  12
BRANCH   2  21
ATOM     21  C   UNL     1      -1.412  -0.527   0.004  0.00  0.00    +0.362 C 
ATOM     22  O   UNL     1      -2.174  -0.234  -0.901  0.00  0.00    -0.246 OA
ATOM     23  O   UNL     1      -1.794  -1.241   0.915  0.00  0.00    -0.246 OA
ENDBRANCH   2  21
TORSDOF 2
