REMARK  Name = ZINC12467550
REMARK  12 active torsions:
REMARK  status: ('A' for Active; 'I' for Inactive)
REMARK    1  A    between atoms: C_1  and  C_2
REMARK    2  A    between atoms: C_5  and  C_7
REMARK    3  A    between atoms: C_7  and  C_9
REMARK    4  A    between atoms: C_7  and  N_16
REMARK    5  A    between atoms: N_11  and  C_12
REMARK    6  A    between atoms: C_12  and  C_13
REMARK    7  A    between atoms: C_13  and  O_14
REMARK    8  A    between atoms: O_14  and  C_15
REMARK    9  A    between atoms: N_16  and  C_17
REMARK   10  A    between atoms: C_26  and  C_28
REMARK   11  A    between atoms: C_29  and  N_36
REMARK   12  A    between atoms: C_30  and  C_33
REMARK                            x       y       z     vdW  Elec       q    Type
REMARK                         _______ _______ _______ _____ _____    ______ ____
ROOT
ATOM      1  N   UNL     1      -1.288   2.270   0.105  0.00  0.00    -0.248 N 
ATOM      2  C   UNL     1      -1.571   3.586   0.027  0.00  0.00    +0.262 C 
ATOM      3  O   UNL     1      -2.725   3.953  -0.102  0.00  0.00    -0.269 OA
ENDROOT
BRANCH   1   4
ATOM      4  C   UNL     1       0.026   1.851   0.349  0.00  0.00    +0.042 A 
ATOM      5  C   UNL     1       0.444   1.599   1.649  0.00  0.00    +0.027 A 
ATOM      6  C   UNL     1       1.738   1.180   1.891  0.00  0.00    +0.051 A 
ATOM      7  C   UNL     1       2.622   1.009   0.838  0.00  0.00    +0.166 A 
ATOM      8  C   UNL     1       2.205   1.260  -0.468  0.00  0.00    +0.168 A 
ATOM      9  C   UNL     1       0.908   1.680  -0.709  0.00  0.00    +0.073 A 
ATOM     10  O   UNL     1       3.250   1.020  -1.313  0.00  0.00    -0.453 OA
ATOM     11  C   UNL     1       4.184   0.229  -0.555  0.00  0.00    +0.466 C 
ATOM     12  O   UNL     1       3.929   0.611   0.809  0.00  0.00    -0.453 OA
ENDBRANCH   1   4
BRANCH   2  13
ATOM     13  C   UNL     1      -0.493   4.573   0.099  0.00  0.00    +0.116 A 
ATOM     14  C   UNL     1      -0.547   5.957  -0.074  0.00  0.00    +0.076 A 
ATOM     15  C   UNL     1       0.701   6.563   0.072  0.00  0.00    +0.155 A 
ATOM     16  N   UNL     1       1.750   5.818   0.342  0.00  0.00    -0.203 NA
ATOM     17  S   UNL     1       1.239   4.330   0.437  0.00  0.00    +0.019 S 
BRANCH  15  18
ATOM     18  C   UNL     1       0.843   8.023  -0.076  0.00  0.00    +0.262 C 
ATOM     19  O   UNL     1      -0.132   8.706  -0.327  0.00  0.00    -0.269 OA
ATOM     20  N   UNL     1       2.052   8.601   0.066  0.00  0.00    -0.324 N 
ATOM     21  H   UNL     1       2.829   8.056   0.266  0.00  0.00    +0.145 HD
ATOM     22  H   UNL     1       2.145   9.561  -0.032  0.00  0.00    +0.145 HD
ENDBRANCH  15  18
BRANCH  14  23
ATOM     23  N   UNL     1      -1.714   6.654  -0.360  0.00  0.00    -0.355 N 
ATOM     24  H   UNL     1      -2.554   6.177  -0.450  0.00  0.00    +0.142 HD
ATOM     25  H   UNL     1      -1.689   7.617  -0.469  0.00  0.00    +0.142 HD
ENDBRANCH  14  23
ENDBRANCH   2  13
BRANCH   1  26
ATOM     26  C   UNL     1      -2.353   1.280  -0.067  0.00  0.00    +0.233 C 
BRANCH  26  31
ATOM     27  C   UNL     1      -0.737  -1.788   3.596  0.00  0.00    +0.086 C 
ATOM     28  C   UNL     1      -1.656  -0.995   2.704  0.00  0.00    +0.102 A 
ATOM     29  C   UNL     1      -2.998  -0.950   2.796  0.00  0.00    +0.045 A 
ATOM     30  C   UNL     1      -3.450  -0.086   1.773  0.00  0.00    +0.047 A 
ATOM     31  C   UNL     1      -2.359   0.339   1.111  0.00  0.00    +0.135 A 
ATOM     32  O   UNL     1      -1.275  -0.212   1.681  0.00  0.00    -0.462 OA
ENDBRANCH  26  31
BRANCH  26  33
ATOM     33  C   UNL     1      -2.114   0.498  -1.333  0.00  0.00    +0.242 C 
ATOM     34  O   UNL     1      -1.148   0.744  -2.024  0.00  0.00    -0.273 OA
ATOM     35  N   UNL     1      -2.973  -0.474  -1.697  0.00  0.00    -0.311 N 
ATOM     36  H   UNL     1      -3.745  -0.671  -1.144  0.00  0.00    +0.149 HD
BRANCH  35  37
ATOM     37  C   UNL     1      -2.740  -1.234  -2.928  0.00  0.00    +0.132 C 
BRANCH  37  38
ATOM     38  C   UNL     1      -3.853  -2.269  -3.106  0.00  0.00    +0.178 C 
BRANCH  38  39
ATOM     39  O   UNL     1      -5.099  -1.598  -3.306  0.00  0.00    -0.381 OA
ATOM     40  C   UNL     1      -6.210  -2.478  -3.485  0.00  0.00    +0.194 C 
ENDBRANCH  38  39
ENDBRANCH  37  38
ENDBRANCH  35  37
ENDBRANCH  26  33
ENDBRANCH   1  26
TORSDOF 10
