REMARK  Name = ZINC21686239
REMARK  6 active torsions:
REMARK  status: ('A' for Active; 'I' for Inactive)
REMARK    1  A    between atoms: C_1  and  C_2
REMARK    2  A    between atoms: C_2  and  O_3
REMARK    3  A    between atoms: O_3  and  C_4
REMARK    4  A    between atoms: C_14  and  N_19
REMARK    5  A    between atoms: C_16  and  C_18
REMARK    6  A    between atoms: C_20  and  C_22
REMARK                            x       y       z     vdW  Elec       q    Type
REMARK                         _______ _______ _______ _____ _____    ______ ____
ROOT
ATOM      1  C   UNL     1       5.862   8.519  -0.009  0.00  0.00    +0.147 A 
ATOM      2  C   UNL     1       5.002   9.592   0.005  0.00  0.00    +0.048 A 
ATOM      3  C   UNL     1       3.626   9.418   0.017  0.00  0.00    +0.005 A 
ATOM      4  C   UNL     1       3.105   8.137   0.015  0.00  0.00    +0.017 A 
ATOM      5  C   UNL     1       3.954   7.057   0.001  0.00  0.00    +0.045 A 
ATOM      6  C   UNL     1       5.361   7.192  -0.011  0.00  0.00    +0.122 A 
ATOM      7  N   UNL     1       6.059   6.037  -0.024  0.00  0.00    -0.217 NA
ATOM      8  C   UNL     1       5.479   4.861  -0.025  0.00  0.00    +0.197 A 
ATOM      9  S   UNL     1       3.744   5.293  -0.013  0.00  0.00    -0.048 S 
ATOM     10  N   UNL     1       6.063   3.599  -0.038  0.00  0.00    -0.194 N 
ATOM     11  C   UNL     1       5.402   2.407  -0.038  0.00  0.00    +0.131 A 
ATOM     12  C   UNL     1       6.340   1.421  -0.047  0.00  0.00    +0.068 A 
ATOM     13  C   UNL     1       7.600   2.027  -0.061  0.00  0.00    +0.062 A 
ATOM     14  N   UNL     1       7.437   3.326  -0.052  0.00  0.00    -0.168 NA
ATOM     15  C   UNL     1       8.924   1.307  -0.077  0.00  0.00    +0.067 C 
ENDROOT
BRANCH  11  16
ATOM     16  N   UNL     1       4.021   2.231  -0.025  0.00  0.00    -0.264 N 
ATOM     17  C   UNL     1       3.501   0.987  -0.027  0.00  0.00    +0.287 C 
ATOM     18  O   UNL     1       4.237   0.020  -0.040  0.00  0.00    -0.266 OA
ATOM     19  H   UNL     1       3.355   3.106  -0.013  0.00  0.00    +0.157 HD
BRANCH  17  20
ATOM     20  C   UNL     1       2.038   0.800  -0.013  0.00  0.00    +0.222 A 
ATOM     21  C   UNL     1       1.361  -0.389  -0.013  0.00  0.00    +0.077 A 
ATOM     22  C   UNL     1       0.002  -0.004   0.002  0.00  0.00    +0.157 A 
ATOM     23  N   UNL     1      -0.016   1.297   0.009  0.00  0.00    -0.086 NA
ATOM     24  O   UNL     1       1.099   1.765   0.001  0.00  0.00    -0.350 OA
ENDBRANCH  17  20
ENDBRANCH  11  16
BRANCH   1  25
ATOM     25  O   UNL     1       7.204   8.731  -0.021  0.00  0.00    -0.490 OA
BRANCH  25  27
ATOM     26  C   UNL     1       9.175  10.130  -0.032  0.00  0.00    +0.048 C 
ATOM     27  C   UNL     1       7.646  10.090  -0.018  0.00  0.00    +0.226 C 
ENDBRANCH  25  27
ENDBRANCH   1  25
TORSDOF 4
