REMARK  Name = ZINC36142298
REMARK  10 active torsions:
REMARK  status: ('A' for Active; 'I' for Inactive)
REMARK    1  A    between atoms: C_1  and  C_2
REMARK    2  A    between atoms: C_2  and  O_3
REMARK    3  A    between atoms: O_3  and  C_4
REMARK    4  A    between atoms: C_8  and  O_10
REMARK    5  A    between atoms: O_10  and  C_11
REMARK    6  A    between atoms: C_11  and  C_12
REMARK    7  A    between atoms: C_13  and  C_19
REMARK    8  A    between atoms: C_13  and  N_22
REMARK    9  A    between atoms: C_15  and  C_17
REMARK   10  A    between atoms: C_15  and  C_18
REMARK                            x       y       z     vdW  Elec       q    Type
REMARK                         _______ _______ _______ _____ _____    ______ ____
ROOT
ATOM      1  C   UNL     1      -0.328  -2.733   0.286  0.00  0.00    +0.127 A 
ATOM      2  C   UNL     1      -1.704  -2.877   0.205  0.00  0.00    +0.091 A 
ATOM      3  C   UNL     1      -2.273  -4.143   0.128  0.00  0.00    +0.131 A 
ATOM      4  C   UNL     1      -1.461  -5.263   0.130  0.00  0.00    +0.036 A 
ATOM      5  C   UNL     1      -0.081  -5.118   0.214  0.00  0.00    +0.130 A 
ATOM      6  C   UNL     1       0.485  -3.856   0.286  0.00  0.00    +0.091 A 
ATOM      7  C   UNL     1      -2.039  -6.653   0.036  0.00  0.00    +0.069 C 
ATOM      8  C   UNL     1      -3.528  -6.617   0.392  0.00  0.00    +0.050 C 
ATOM      9  C   UNL     1      -4.184  -5.476  -0.395  0.00  0.00    +0.105 C 
ATOM     10  O   UNL     1      -3.627  -4.240   0.055  0.00  0.00    -0.486 OA
ATOM     11  C   UNL     1      -3.905  -5.652  -1.889  0.00  0.00    +0.055 C 
ATOM     12  C   UNL     1      -5.694  -5.480  -0.147  0.00  0.00    +0.055 C 
ENDROOT
BRANCH   7  13
ATOM     13  N   UNL     1      -1.876  -7.159  -1.333  0.00  0.00    +0.392 N 
ATOM     14  H   UNL     1      -1.158  -6.629  -1.804  0.00  0.00    -0.088 HD
ATOM     15  H   UNL     1      -1.610  -8.132  -1.302  0.00  0.00    -0.088 HD
ATOM     16  H   UNL     1      -2.747  -7.064  -1.833  0.00  0.00    -0.088 HD
ENDBRANCH   7  13
BRANCH   7  17
ATOM     17  C   UNL     1      -1.316  -7.562   0.996  0.00  0.00    +0.350 C 
ATOM     18  O   UNL     1      -1.325  -7.319   2.191  0.00  0.00    -0.248 OA
ATOM     19  O   UNL     1      -0.722  -8.542   0.577  0.00  0.00    -0.248 OA
ENDBRANCH   7  17
BRANCH   1  20
ATOM     20  O   UNL     1       0.223  -1.493   0.360  0.00  0.00    -0.492 OA
BRANCH  20  22
ATOM     21  C   UNL     1       2.081   0.045   0.511  0.00  0.00    +0.048 C 
ATOM     22  C   UNL     1       1.649  -1.421   0.435  0.00  0.00    +0.225 C 
ENDBRANCH  20  22
ENDBRANCH   1  20
BRANCH   5  23
ATOM     23  O   UNL     1       0.716  -6.219   0.220  0.00  0.00    -0.492 OA
BRANCH  23  24
ATOM     24  C   UNL     1       2.125  -5.999   0.308  0.00  0.00    +0.225 C 
ATOM     25  C   UNL     1       2.852  -7.345   0.302  0.00  0.00    +0.048 C 
ENDBRANCH  23  24
ENDBRANCH   5  23
TORSDOF 6
