REMARK  Name = ZINC65096924
REMARK  10 active torsions:
REMARK  status: ('A' for Active; 'I' for Inactive)
REMARK    1  A    between atoms: C_1  and  N_2
REMARK    2  A    between atoms: N_2  and  C_3
REMARK    3  A    between atoms: N_2  and  C_20
REMARK    4  A    between atoms: C_3  and  C_4
REMARK    5  A    between atoms: C_4  and  C_5
REMARK    6  A    between atoms: C_5  and  N_6
REMARK    7  A    between atoms: C_7  and  C_9
REMARK    8  A    between atoms: C_9  and  N_10
REMARK    9  A    between atoms: N_13  and  C_14
REMARK   10  A    between atoms: C_14  and  C_15
REMARK                            x       y       z     vdW  Elec       q    Type
REMARK                         _______ _______ _______ _____ _____    ______ ____
ROOT
ATOM      1  N   UNL     1      -0.175  -0.187  -4.885  0.00  0.00    -0.314 N 
ATOM      2  C   UNL     1       0.267  -0.518  -6.115  0.00  0.00    +0.230 C 
ATOM      3  O   UNL     1       1.304  -1.133  -6.242  0.00  0.00    -0.274 OA
ATOM      4  H   UNL     1      -1.005   0.305  -4.784  0.00  0.00    +0.149 HD
ENDROOT
BRANCH   1   5
ATOM      5  C   UNL     1       0.598  -0.571  -3.702  0.00  0.00    +0.102 C 
BRANCH   5   6
ATOM      6  C   UNL     1      -0.118  -0.077  -2.443  0.00  0.00    +0.000 C 
BRANCH   6   7
ATOM      7  C   UNL     1       0.690  -0.478  -1.207  0.00  0.00    -0.077 C 
BRANCH   7   9
ATOM      8  C   UNL     1      -0.018   1.465   0.010  0.00  0.00    -0.096 C 
ATOM      9  N   UNL     1       0.002  -0.004   0.002  0.00  0.00    +0.380 N 
ATOM     10  H   UNL     1      -0.945  -0.353   0.009  0.00  0.00    -0.082 HD
BRANCH   9  11
ATOM     11  C   UNL     1       0.713  -0.491   1.192  0.00  0.00    -0.069 C 
ATOM     12  C   UNL     1       0.733  -2.021   1.184  0.00  0.00    -0.015 C 
ATOM     13  C   UNL     1       1.473  -2.527   2.423  0.00  0.00    -0.002 C 
ATOM     14  C   UNL     1       0.757  -2.034   3.682  0.00  0.00    -0.000 C 
ATOM     15  C   UNL     1       0.736  -0.504   3.691  0.00  0.00    -0.002 C 
ATOM     16  C   UNL     1      -0.004   0.003   2.451  0.00  0.00    -0.015 C 
ENDBRANCH   9  11
ENDBRANCH   7   9
ENDBRANCH   6   7
ENDBRANCH   5   6
ENDBRANCH   1   5
BRANCH   2  17
ATOM     17  C   UNL     1      -0.528  -0.123  -7.333  0.00  0.00    +0.201 C 
BRANCH  17  18
ATOM     18  N   UNL     1       0.157  -0.596  -8.538  0.00  0.00    -0.291 N 
ATOM     19  C   UNL     1      -0.374  -0.356  -9.753  0.00  0.00    +0.300 C 
ATOM     20  O   UNL     1      -1.422   0.253  -9.849  0.00  0.00    -0.253 OA
ATOM     21  N   UNL     1       0.257  -0.790 -10.862  0.00  0.00    -0.299 N 
ATOM     22  H   UNL     1       0.993  -1.081  -8.461  0.00  0.00    +0.151 HD
ATOM     23  H   UNL     1       1.093  -1.276 -10.786  0.00  0.00    +0.150 HD
BRANCH  21  24
ATOM     24  C   UNL     1      -0.320  -0.529 -12.183  0.00  0.00    +0.109 C 
BRANCH  24  25
ATOM     25  C   UNL     1       0.587  -1.124 -13.262  0.00  0.00    +0.006 C 
ATOM     26  C   UNL     1       1.921  -0.351 -13.316  0.00  0.00    +0.005 C 
ATOM     27  C   UNL     1       2.273  -0.307 -14.824  0.00  0.00    +0.000 C 
ATOM     28  C   UNL     1       0.890  -0.105 -15.493  0.00  0.00    +0.000 C 
ATOM     29  C   UNL     1      -0.068  -0.968 -14.646  0.00  0.00    +0.005 C 
ENDBRANCH  24  25
ENDBRANCH  21  24
ENDBRANCH  17  18
ENDBRANCH   2  17
TORSDOF 9
