REMARK  Name = ZINC65740795
REMARK  11 active torsions:
REMARK  status: ('A' for Active; 'I' for Inactive)
REMARK    1  A    between atoms: C_1  and  C_2
REMARK    2  A    between atoms: C_10  and  O_43
REMARK    3  A    between atoms: C_21  and  C_22
REMARK    4  A    between atoms: C_21  and  O_24
REMARK    5  A    between atoms: O_24  and  C_25
REMARK    6  A    between atoms: C_27  and  O_42
REMARK    7  A    between atoms: C_29  and  O_41
REMARK    8  A    between atoms: C_31  and  O_40
REMARK    9  A    between atoms: C_33  and  C_36
REMARK   10  A    between atoms: C_36  and  O_38
REMARK   11  A    between atoms: O_38  and  C_39
REMARK                            x       y       z     vdW  Elec       q    Type
REMARK                         _______ _______ _______ _____ _____    ______ ____
ROOT
ATOM      1  C   UNL     1      -0.019   1.526   0.010  0.00  0.00    +0.015 C 
ATOM      2  C   UNL     1       0.002  -0.004   0.002  0.00  0.00    +0.011 C 
ATOM      3  C   UNL     1      -1.406  -0.532   0.177  0.00  0.00    +0.011 C 
ATOM      4  C   UNL     1      -1.976   0.080   1.471  0.00  0.00    +0.009 C 
ATOM      5  C   UNL     1      -1.085  -0.253   2.660  0.00  0.00    +0.023 C 
ATOM      6  C   UNL     1      -1.601   0.357   3.931  0.00  0.00    -0.041 A 
ATOM      7  C   UNL     1      -2.974   0.471   4.096  0.00  0.00    +0.008 A 
ATOM      8  C   UNL     1      -3.500   1.015   5.249  0.00  0.00    +0.046 A 
ATOM      9  C   UNL     1      -2.648   1.451   6.253  0.00  0.00    +0.117 A 
ATOM     10  C   UNL     1      -1.279   1.341   6.086  0.00  0.00    +0.049 A 
ATOM     11  C   UNL     1      -0.750   0.799   4.923  0.00  0.00    -0.040 A 
ATOM     12  C   UNL     1       0.750   0.738   4.800  0.00  0.00    +0.036 C 
ATOM     13  C   UNL     1       1.179  -0.183   3.659  0.00  0.00    +0.009 C 
ATOM     14  C   UNL     1       0.361   0.202   2.425  0.00  0.00    +0.000 C 
ATOM     15  C   UNL     1       0.860  -0.520   1.191  0.00  0.00    +0.002 C 
ATOM     16  C   UNL     1       2.277  -0.171   0.720  0.00  0.00    +0.008 C 
ATOM     17  C   UNL     1       2.249  -0.555  -0.784  0.00  0.00    +0.049 C 
ATOM     18  C   UNL     1       0.764  -0.498  -1.222  0.00  0.00    +0.138 C 
ENDROOT
BRANCH  18  19
ATOM     19  C   UNL     1       0.597   0.443  -2.341  0.00  0.00    -0.070 C 
ATOM     20  C   UNL     1       0.464   1.194  -3.234  0.00  0.00    +0.007 C 
ENDBRANCH  18  19
BRANCH   9  21
ATOM     21  O   UNL     1      -3.156   1.984   7.396  0.00  0.00    -0.507 OA
ATOM     22  H   UNL     1      -3.323   1.334   8.092  0.00  0.00    +0.292 HD
ENDBRANCH   9  21
BRANCH  18  23
ATOM     23  O   UNL     1       0.308  -1.800  -1.597  0.00  0.00    -0.329 OA
BRANCH  23  24
ATOM     24  C   UNL     1       0.972  -2.341  -2.740  0.00  0.00    +0.284 C 
ATOM     25  C   UNL     1       0.496  -3.778  -2.974  0.00  0.00    +0.201 C 
ATOM     26  C   UNL     1      -1.006  -3.768  -3.271  0.00  0.00    +0.179 C 
ATOM     27  C   UNL     1      -1.271  -2.863  -4.479  0.00  0.00    +0.185 C 
ATOM     28  C   UNL     1      -0.727  -1.462  -4.186  0.00  0.00    +0.260 C 
ATOM     29  O   UNL     1       0.668  -1.547  -3.889  0.00  0.00    -0.331 OA
BRANCH  28  30
ATOM     30  C   UNL     1      -0.931  -0.582  -5.392  0.00  0.00    +0.339 C 
ATOM     31  O   UNL     1       0.023  -0.152  -5.995  0.00  0.00    -0.248 OA
BRANCH  30  32
ATOM     32  O   UNL     1      -2.174  -0.277  -5.798  0.00  0.00    -0.466 OA
ATOM     33  C   UNL     1      -2.293   0.562  -6.948  0.00  0.00    +0.280 C 
ENDBRANCH  30  32
ENDBRANCH  28  30
BRANCH  27  34
ATOM     34  O   UNL     1      -0.617  -3.400  -5.630  0.00  0.00    -0.386 OA
ATOM     35  H   UNL     1      -0.743  -2.877  -6.433  0.00  0.00    +0.210 HD
ENDBRANCH  27  34
BRANCH  26  36
ATOM     36  O   UNL     1      -1.445  -5.096  -3.561  0.00  0.00    -0.386 OA
ATOM     37  H   UNL     1      -2.389  -5.164  -3.759  0.00  0.00    +0.210 HD
ENDBRANCH  26  36
BRANCH  25  38
ATOM     38  O   UNL     1       0.749  -4.561  -1.806  0.00  0.00    -0.384 OA
ATOM     39  H   UNL     1       0.472  -5.484  -1.884  0.00  0.00    +0.210 HD
ENDBRANCH  25  38
ENDBRANCH  23  24
ENDBRANCH  18  23
TORSDOF 9
