REMARK  Name = ZINC24923969
REMARK  5 active torsions:
REMARK  status: ('A' for Active; 'I' for Inactive)
REMARK    1  A    between atoms: C_1  and  C_2
REMARK    2  A    between atoms: C_2  and  C_4
REMARK    3  A    between atoms: C_2  and  N_11
REMARK    4  A    between atoms: N_17  and  S_20
REMARK    5  A    between atoms: S_20  and  C_23
REMARK                            x       y       z     vdW  Elec       q    Type
REMARK                         _______ _______ _______ _____ _____    ______ ____
ROOT
ATOM      1  N   UNL     1       4.885   0.487  -6.288  0.00  0.00    -0.293 N 
ATOM      2  C   UNL     1       4.431  -0.590  -5.616  0.00  0.00    +0.303 C 
ATOM      3  O   UNL     1       4.353  -1.666  -6.175  0.00  0.00    -0.253 OA
ATOM      4  N   UNL     1       4.065  -0.472  -4.324  0.00  0.00    -0.283 N 
ATOM      5  C   UNL     1       4.261   0.793  -3.603  0.00  0.00    +0.126 C 
ATOM      6  C   UNL     1       5.085   0.514  -2.340  0.00  0.00    +0.128 C 
ATOM      7  N   UNL     1       4.483  -0.622  -1.627  0.00  0.00    -0.173 NA
ATOM      8  C   UNL     1       4.292  -1.889  -2.347  0.00  0.00    +0.128 C 
ATOM      9  C   UNL     1       3.463  -1.608  -3.612  0.00  0.00    +0.126 C 
ATOM     10  H   UNL     1       5.034   1.441  -5.761  0.00  0.00    +0.151 HD
ENDROOT
BRANCH   7  11
ATOM     11  S   UNL     1       4.034  -0.478  -0.040  0.00  0.00    +0.067 S 
ATOM     12  O   UNL     1       4.817   0.572   0.511  0.00  0.00    -0.152 OA
ATOM     13  O   UNL     1       4.031  -1.792   0.502  0.00  0.00    -0.152 OA
BRANCH  11  14
ATOM     14  C   UNL     1       2.362   0.078  -0.019  0.00  0.00    +0.144 A 
ATOM     15  C   UNL     1       1.220  -0.651  -0.014  0.00  0.00    +0.038 A 
ATOM     16  C   UNL     1       0.004   0.006   0.002  0.00  0.00    +0.030 A 
ATOM     17  C   UNL     1      -0.010   1.363   0.011  0.00  0.00    +0.080 A 
ATOM     18  S   UNL     1       1.733   1.749  -0.003  0.00  0.00    -0.057 S 
ATOM     19 CL   UNL     1      -1.369   2.443   0.025  0.00  0.00    -0.076 Cl
ENDBRANCH  11  14
ENDBRANCH   7  11
BRANCH   1  21
ATOM     20  C   UNL     1       6.600  -0.149  -7.911  0.00  0.00    +0.033 C 
ATOM     21  C   UNL     1       5.180   0.387  -7.720  0.00  0.00    +0.102 C 
BRANCH  21  22
ATOM     22  C   UNL     1       5.067   1.749  -8.353  0.00  0.00    -0.027 A 
ATOM     23  C   UNL     1       5.535   2.864  -7.682  0.00  0.00    +0.007 A 
ATOM     24  C   UNL     1       5.437   4.113  -8.264  0.00  0.00    +0.020 A 
ATOM     25  C   UNL     1       4.860   4.250  -9.514  0.00  0.00    +0.041 A 
ATOM     26  C   UNL     1       4.386   3.135 -10.183  0.00  0.00    +0.020 A 
ATOM     27  C   UNL     1       4.490   1.885  -9.602  0.00  0.00    +0.007 A 
ATOM     28 CL   UNL     1       4.729   5.820 -10.244  0.00  0.00    -0.084 Cl
ENDBRANCH  21  22
ENDBRANCH   1  21
TORSDOF 4
