REMARK  Name = ZINC50351642
REMARK  4 active torsions:
REMARK  status: ('A' for Active; 'I' for Inactive)
REMARK    1  A    between atoms: C_4  and  N_10
REMARK    2  A    between atoms: C_6  and  N_9
REMARK    3  A    between atoms: N_10  and  S_11
REMARK    4  A    between atoms: S_11  and  C_14
REMARK                            x       y       z     vdW  Elec       q    Type
REMARK                         _______ _______ _______ _____ _____    ______ ____
ROOT
ATOM      1  N   UNL     1       2.767  -0.392   2.291  0.00  0.00    -0.193 NA
ATOM      2  H   UNL     1       2.277  -0.469   3.124  0.00  0.00    +0.148 HD
ENDROOT
BRANCH   1   6
ATOM      3  C   UNL     1       0.138   2.001  -0.068  0.00  0.00    -0.001 C 
ATOM      4  C   UNL     1       1.629   2.345  -0.071  0.00  0.00    +0.001 C 
ATOM      5  C   UNL     1       2.298   1.724   1.156  0.00  0.00    +0.019 C 
ATOM      6  C   UNL     1       2.126   0.204   1.116  0.00  0.00    +0.062 C 
ATOM      7  C   UNL     1       0.635  -0.141   1.119  0.00  0.00    -0.056 C 
ATOM      8  C   UNL     1      -0.034   0.481  -0.108  0.00  0.00    -0.015 C 
BRANCH   7   9
ATOM      9  N   UNL     1       0.470  -1.600   1.081  0.00  0.00    +0.381 N 
ATOM     10  H   UNL     1       0.824  -2.001   1.936  0.00  0.00    -0.090 HD
ATOM     11  H   UNL     1      -0.509  -1.825   0.983  0.00  0.00    -0.090 HD
ATOM     12  H   UNL     1       0.981  -1.976   0.296  0.00  0.00    -0.090 HD
ENDBRANCH   7   9
ENDBRANCH   1   6
BRANCH   1  13
ATOM     13  S   UNL     1       4.330  -0.933   2.196  0.00  0.00    +0.033 S 
ATOM     14  O   UNL     1       5.054   0.148   1.625  0.00  0.00    -0.158 OA
ATOM     15  O   UNL     1       4.632  -1.396   3.505  0.00  0.00    -0.158 OA
BRANCH  13  16
ATOM     16  C   UNL     1       4.270  -2.328   1.038  0.00  0.00    +0.151 C 
ATOM     17  C   UNL     1       3.346  -3.406   1.596  0.00  0.00    +0.050 C 
ATOM     18  C   UNL     1       3.069  -4.463   0.524  0.00  0.00    +0.168 C 
ATOM     19  S   UNL     1       4.632  -5.281   0.088  0.00  0.00    -0.031 S 
ATOM     20  O   UNL     1       4.426  -6.052  -1.088  0.00  0.00    -0.174 OA
ATOM     21  O   UNL     1       5.151  -5.914   1.249  0.00  0.00    -0.174 OA
ATOM     22  C   UNL     1       5.696  -3.867  -0.328  0.00  0.00    +0.168 C 
ATOM     23  C   UNL     1       5.680  -2.876   0.839  0.00  0.00    +0.050 C 
ENDBRANCH  13  16
ENDBRANCH   1  13
TORSDOF 4
