REMARK  Name = ZINC43681927
REMARK  9 active torsions:
REMARK  status: ('A' for Active; 'I' for Inactive)
REMARK    1  A    between atoms: C_1  and  N_2
REMARK    2  A    between atoms: N_2  and  C_3
REMARK    3  A    between atoms: N_2  and  C_4
REMARK    4  A    between atoms: C_13  and  N_28
REMARK    5  A    between atoms: C_24  and  O_25
REMARK    6  A    between atoms: C_24  and  O_26
REMARK    7  A    between atoms: O_26  and  C_27
REMARK    8  A    between atoms: N_28  and  C_29
REMARK    9  A    between atoms: N_28  and  C_30
REMARK                            x       y       z     vdW  Elec       q    Type
REMARK                         _______ _______ _______ _____ _____    ______ ____
ROOT
ATOM      1  C   UNL     1      -1.315  -0.748   0.891  0.00  0.00    +0.033 A 
ATOM      2  C   UNL     1      -1.230  -2.123   0.703  0.00  0.00    +0.024 A 
ATOM      3  C   UNL     1      -2.370  -2.855   0.429  0.00  0.00    +0.014 A 
ATOM      4  C   UNL     1      -3.596  -2.205   0.343  0.00  0.00    +0.026 A 
ATOM      5  C   UNL     1      -3.686  -0.813   0.526  0.00  0.00    +0.138 A 
ATOM      6  C   UNL     1      -2.540  -0.095   0.809  0.00  0.00    +0.070 A 
ATOM      7  O   UNL     1      -4.887  -0.191   0.418  0.00  0.00    -0.455 OA
ATOM      8  C   UNL     1      -6.026  -0.867   0.713  0.00  0.00    +0.138 A 
ATOM      9  C   UNL     1      -7.142  -0.201   1.183  0.00  0.00    +0.070 A 
ATOM     10  C   UNL     1      -8.303  -0.911   1.472  0.00  0.00    +0.033 A 
ATOM     11  C   UNL     1      -8.354  -2.288   1.292  0.00  0.00    +0.024 A 
ATOM     12  C   UNL     1      -7.245  -2.967   0.826  0.00  0.00    +0.014 A 
ATOM     13  C   UNL     1      -6.082  -2.261   0.541  0.00  0.00    +0.026 A 
ATOM     14  C   UNL     1      -4.853  -2.943   0.066  0.00  0.00    +0.004 C 
ATOM     15  C   UNL     1      -4.877  -4.178  -0.589  0.00  0.00    -0.003 A 
ATOM     16  C   UNL     1      -3.942  -5.188  -0.265  0.00  0.00    +0.009 A 
ATOM     17  C   UNL     1      -3.981  -6.379  -0.911  0.00  0.00    +0.001 A 
ATOM     18  C   UNL     1      -4.930  -6.646  -1.904  0.00  0.00    +0.001 A 
ATOM     19  C   UNL     1      -5.856  -5.727  -2.269  0.00  0.00    +0.015 A 
ATOM     20  C   UNL     1      -5.883  -4.461  -1.633  0.00  0.00    +0.062 A 
ATOM     21  C   UNL     1      -6.828  -3.507  -1.988  0.00  0.00    +0.287 C 
ENDROOT
BRANCH   1  23
ATOM     22  C   UNL     1      -0.239   1.433   1.377  0.00  0.00    +0.129 C 
ATOM     23  N   UNL     1      -0.157  -0.015   1.172  0.00  0.00    -0.336 N 
ATOM     24  C   UNL     1       1.137  -0.696   1.260  0.00  0.00    +0.129 C 
ENDBRANCH   1  23
BRANCH  10  25
ATOM     25  N   UNL     1      -9.428  -0.232   1.950  0.00  0.00    -0.336 N 
ATOM     26  C   UNL     1      -9.382   1.219   2.143  0.00  0.00    +0.129 C 
ATOM     27  C   UNL     1     -10.655  -0.973   2.256  0.00  0.00    +0.129 C 
ENDBRANCH  10  25
BRANCH  21  28
ATOM     28  O   UNL     1      -7.916  -3.867  -2.701  0.00  0.00    -0.480 OA
ATOM     29  H   UNL     1      -8.516  -3.135  -2.900  0.00  0.00    +0.295 HD
ENDBRANCH  21  28
BRANCH  21  30
ATOM     30  O   UNL     1      -6.658  -2.219  -1.618  0.00  0.00    -0.467 OA
ATOM     31  C   UNL     1      -7.605  -1.272  -2.116  0.00  0.00    +0.280 C 
ENDBRANCH  21  30
TORSDOF 4
