REMARK  Name = ZINC39665896
REMARK  8 active torsions:
REMARK  status: ('A' for Active; 'I' for Inactive)
REMARK    1  A    between atoms: C_1  and  C_2
REMARK    2  A    between atoms: C_5  and  O_8
REMARK    3  A    between atoms: O_8  and  C_9
REMARK    4  A    between atoms: C_9  and  C_11
REMARK    5  A    between atoms: C_9  and  C_12
REMARK    6  A    between atoms: C_12  and  N_13
REMARK    7  A    between atoms: C_14  and  C_16
REMARK    8  A    between atoms: C_27  and  C_29
REMARK                            x       y       z     vdW  Elec       q    Type
REMARK                         _______ _______ _______ _____ _____    ______ ____
ROOT
ATOM      1  C   UNL     1       4.656  -6.550   0.310  0.00  0.00    +0.100 C 
ATOM      2  C   UNL     1       4.937  -5.632  -0.900  0.00  0.00    +0.121 C 
ATOM      3  N   UNL     1       6.229  -6.113  -1.443  0.00  0.00    -0.296 N 
ATOM      4  C   UNL     1       6.152  -7.589  -1.327  0.00  0.00    +0.115 C 
ATOM      5  C   UNL     1       5.455  -7.834   0.026  0.00  0.00    -0.004 C 
ATOM      6  C   UNL     1       4.513  -9.030  -0.074  0.00  0.00    -0.010 C 
ATOM      7  C   UNL     1       5.334 -10.303  -0.298  0.00  0.00    -0.082 C 
ATOM      8  N   UNL     1       6.272 -10.485   0.816  0.00  0.00    +0.379 N 
ATOM      9  C   UNL     1       7.233  -9.376   0.848  0.00  0.00    -0.082 C 
ATOM     10  C   UNL     1       6.492  -8.064   1.121  0.00  0.00    -0.010 C 
ATOM     11  C   UNL     1       7.246  -5.376  -1.932  0.00  0.00    +0.247 C 
ATOM     12  O   UNL     1       7.137  -4.168  -2.011  0.00  0.00    -0.270 OA
ATOM     13  H   UNL     1       5.760 -10.509   1.685  0.00  0.00    -0.086 HD
ATOM     14  H   UNL     1       6.769 -11.355   0.697  0.00  0.00    -0.086 HD
ENDROOT
BRANCH  11  15
ATOM     15  C   UNL     1       8.493  -6.036  -2.373  0.00  0.00    +0.038 A 
ATOM     16  C   UNL     1       8.459  -7.344  -2.861  0.00  0.00    +0.014 A 
ATOM     17  C   UNL     1       9.625  -7.955  -3.270  0.00  0.00    +0.022 A 
ATOM     18  C   UNL     1      10.829  -7.274  -3.198  0.00  0.00    +0.059 A 
ATOM     19  C   UNL     1      10.870  -5.976  -2.715  0.00  0.00    +0.060 A 
ATOM     20  C   UNL     1       9.708  -5.352  -2.308  0.00  0.00    +0.034 A 
ATOM     21 CL   UNL     1      12.384  -5.131  -2.627  0.00  0.00    -0.082 Cl
ATOM     22 CL   UNL     1      12.293  -8.051  -3.714  0.00  0.00    -0.082 Cl
ENDBRANCH  11  15
BRANCH   1  24
ATOM     23  N   UNL     1       2.622  -7.097   1.607  0.00  0.00    -0.312 N 
ATOM     24  C   UNL     1       3.184  -6.858   0.406  0.00  0.00    +0.218 C 
ATOM     25  O   UNL     1       2.505  -6.890  -0.599  0.00  0.00    -0.275 OA
ATOM     26  H   UNL     1       3.165  -7.071   2.410  0.00  0.00    +0.149 HD
BRANCH  23  27
ATOM     27  C   UNL     1       1.191  -7.396   1.699  0.00  0.00    +0.148 C 
BRANCH  27  28
ATOM     28  C   UNL     1       0.811  -7.626   3.164  0.00  0.00    +0.187 C 
ATOM     29  C   UNL     1      -0.653  -8.060   3.249  0.00  0.00    +0.053 C 
BRANCH  28  30
ATOM     30  O   UNL     1       0.992  -6.414   3.898  0.00  0.00    -0.488 OA
BRANCH  30  35
ATOM     31  C   UNL     1       2.243  -6.902   9.368  0.00  0.00    +0.044 C 
ATOM     32  C   UNL     1       1.908  -6.771   7.905  0.00  0.00    -0.050 A 
ATOM     33  C   UNL     1       1.612  -7.899   7.161  0.00  0.00    +0.007 A 
ATOM     34  C   UNL     1       1.305  -7.782   5.819  0.00  0.00    +0.046 A 
ATOM     35  C   UNL     1       1.294  -6.532   5.218  0.00  0.00    +0.121 A 
ATOM     36  C   UNL     1       1.591  -5.402   5.967  0.00  0.00    +0.046 A 
ATOM     37  C   UNL     1       1.892  -5.524   7.309  0.00  0.00    +0.007 A 
ENDBRANCH  30  35
ENDBRANCH  28  30
ENDBRANCH  27  28
ENDBRANCH  23  27
ENDBRANCH   1  24
TORSDOF 6
