REMARK  Name = ZINC16613193
REMARK  9 active torsions:
REMARK  status: ('A' for Active; 'I' for Inactive)
REMARK    1  A    between atoms: C_1  and  C_2
REMARK    2  A    between atoms: C_2  and  C_3
REMARK    3  A    between atoms: C_2  and  C_4
REMARK    4  A    between atoms: C_2  and  N_5
REMARK    5  A    between atoms: N_16  and  C_25
REMARK    6  A    between atoms: N_18  and  C_19
REMARK    7  A    between atoms: C_25  and  C_26
REMARK    8  A    between atoms: N_28  and  C_29
REMARK    9  A    between atoms: C_29  and  C_30
REMARK                            x       y       z     vdW  Elec       q    Type
REMARK                         _______ _______ _______ _____ _____    ______ ____
ROOT
ATOM      1  N   UNL     1      -7.915  -1.326   3.326  0.00  0.00    -0.294 N 
ATOM      2  C   UNL     1      -6.683  -1.872   3.334  0.00  0.00    +0.303 C 
ATOM      3  O   UNL     1      -6.476  -2.900   3.950  0.00  0.00    -0.253 OA
ATOM      4  N   UNL     1      -5.679  -1.279   2.658  0.00  0.00    -0.285 N 
ATOM      5  C   UNL     1      -4.360  -1.920   2.563  0.00  0.00    +0.112 C 
ATOM      6  C   UNL     1      -3.971  -2.028   1.084  0.00  0.00    +0.054 C 
ATOM      7  C   UNL     1      -4.061  -0.650   0.435  0.00  0.00    +0.115 C 
ATOM      8  C   UNL     1      -5.482  -0.103   0.529  0.00  0.00    +0.054 C 
ATOM      9  C   UNL     1      -5.883   0.021   2.003  0.00  0.00    +0.112 C 
ATOM     10  C   UNL     1      -3.087   0.302   1.084  0.00  0.00    +0.241 C 
ATOM     11  O   UNL     1      -2.904   0.428   2.276  0.00  0.00    -0.273 OA
ATOM     12  N   UNL     1      -2.453   0.991   0.111  0.00  0.00    -0.275 N 
ATOM     13  C   UNL     1      -2.963   0.571  -1.200  0.00  0.00    +0.217 C 
ATOM     14  N   UNL     1      -3.642  -0.729  -0.981  0.00  0.00    -0.300 N 
ATOM     15  H   UNL     1      -8.098  -0.549   2.776  0.00  0.00    +0.151 HD
ENDROOT
BRANCH  14  16
ATOM     16  C   UNL     1      -4.748  -0.861  -1.823  0.00  0.00    +0.032 A 
ATOM     17  C   UNL     1      -5.625  -1.926  -1.659  0.00  0.00    +0.023 A 
ATOM     18  C   UNL     1      -6.720  -2.051  -2.492  0.00  0.00    +0.002 A 
ATOM     19  C   UNL     1      -6.938  -1.124  -3.494  0.00  0.00    +0.000 A 
ATOM     20  C   UNL     1      -6.064  -0.066  -3.663  0.00  0.00    +0.002 A 
ATOM     21  C   UNL     1      -4.970   0.069  -2.831  0.00  0.00    +0.023 A 
ENDBRANCH  14  16
BRANCH   1  23
ATOM     22  C   UNL     1      -8.564  -1.865   5.622  0.00  0.00    +0.031 C 
ATOM     23  C   UNL     1      -8.978  -1.907   4.150  0.00  0.00    +0.028 C 
ATOM     24  C   UNL     1     -10.267  -1.105   3.959  0.00  0.00    +0.031 C 
ATOM     25  C   UNL     1      -9.214  -3.359   3.728  0.00  0.00    +0.031 C 
ENDBRANCH   1  23
BRANCH  12  26
ATOM     26  C   UNL     1      -1.420   2.006   0.331  0.00  0.00    +0.205 C 
BRANCH  26  27
ATOM     27  C   UNL     1      -0.064   1.348   0.345  0.00  0.00    +0.231 C 
ATOM     28  O   UNL     1       0.030   0.149   0.188  0.00  0.00    -0.274 OA
ATOM     29  N   UNL     1       1.044   2.093   0.528  0.00  0.00    -0.312 N 
ATOM     30  H   UNL     1       0.969   3.052   0.653  0.00  0.00    +0.149 HD
BRANCH  29  31
ATOM     31  C   UNL     1       2.363   1.454   0.536  0.00  0.00    +0.135 C 
BRANCH  31  32
ATOM     32  C   UNL     1       3.442   2.515   0.760  0.00  0.00    +0.135 C 
ATOM     33  C   UNL     1       4.848   1.884   0.648  0.00  0.00    +0.035 C 
ATOM     34  C   UNL     1       5.675   2.617   1.727  0.00  0.00    +0.031 C 
ATOM     35  C   UNL     1       4.672   3.604   2.363  0.00  0.00    +0.160 C 
ATOM     36  O   UNL     1       3.373   3.026   2.109  0.00  0.00    -0.375 OA
ENDBRANCH  31  32
ENDBRANCH  29  31
ENDBRANCH  26  27
ENDBRANCH  12  26
TORSDOF 6
