REMARK  Name = ZINC16678042
REMARK  8 active torsions:
REMARK  status: ('A' for Active; 'I' for Inactive)
REMARK    1  A    between atoms: C_1  and  C_2
REMARK    2  A    between atoms: C_7  and  N_8
REMARK    3  A    between atoms: C_11  and  C_16
REMARK    4  A    between atoms: C_16  and  S_17
REMARK    5  A    between atoms: S_17  and  C_18
REMARK    6  A    between atoms: C_21  and  C_24
REMARK    7  A    between atoms: C_24  and  O_25
REMARK    8  A    between atoms: O_25  and  C_26
REMARK                            x       y       z     vdW  Elec       q    Type
REMARK                         _______ _______ _______ _____ _____    ______ ____
ROOT
ATOM      1  N   UNL     1     -11.270   5.441   2.431  0.00  0.00    -0.283 N 
ATOM      2  C   UNL     1     -10.588   5.471   1.230  0.00  0.00    +0.224 A 
ATOM      3  N   UNL     1      -9.258   5.528   1.221  0.00  0.00    -0.198 NA
ATOM      4  C   UNL     1      -8.604   5.557   0.073  0.00  0.00    +0.146 A 
ATOM      5  N   UNL     1      -9.267   5.535  -1.070  0.00  0.00    -0.199 NA
ATOM      6  C   UNL     1     -10.597   5.473  -1.069  0.00  0.00    +0.217 A 
ATOM      7  N   UNL     1     -11.258   5.444   0.084  0.00  0.00    -0.181 NA
ATOM      8  N   UNL     1     -11.288   5.445  -2.263  0.00  0.00    -0.327 N 
ATOM      9  H   UNL     1     -10.715   5.365   3.377  0.00  0.00    +0.155 HD
ATOM     10  H   UNL     1     -12.387   5.393  -2.261  0.00  0.00    +0.145 HD
ATOM     11  H   UNL     1     -10.741   5.473  -3.216  0.00  0.00    +0.145 HD
ENDROOT
BRANCH   1  18
ATOM     12  C   UNL     1     -12.646   4.343   4.667  0.00  0.00    +0.045 C 
ATOM     13  C   UNL     1     -13.378   4.981   3.515  0.00  0.00    -0.029 A 
ATOM     14  C   UNL     1     -14.758   5.047   3.523  0.00  0.00    +0.005 A 
ATOM     15  C   UNL     1     -15.431   5.633   2.467  0.00  0.00    +0.000 A 
ATOM     16  C   UNL     1     -14.725   6.155   1.398  0.00  0.00    +0.002 A 
ATOM     17  C   UNL     1     -13.345   6.098   1.386  0.00  0.00    +0.023 A 
ATOM     18  C   UNL     1     -12.667   5.505   2.443  0.00  0.00    +0.036 A 
ENDBRANCH   1  18
BRANCH   4  19
ATOM     19  C   UNL     1      -7.098   5.621   0.067  0.00  0.00    +0.153 C 
BRANCH  19  20
ATOM     20  S   UNL     1      -6.423   3.942   0.063  0.00  0.00    -0.079 S 
BRANCH  20  21
ATOM     21  C   UNL     1      -4.699   4.306   0.056  0.00  0.00    +0.185 A 
ATOM     22  N   UNL     1      -3.678   3.399   0.051  0.00  0.00    -0.202 NA
ATOM     23  H   UNL     1      -4.623   6.494   0.053  0.00  0.00    +0.191 HD
ATOM     24  C   UNL     1      -2.527   4.138   0.046  0.00  0.00    +0.189 A 
ATOM     25  N   UNL     1      -2.872   5.394   0.055  0.00  0.00    -0.153 NA
ATOM     26  N   UNL     1      -4.153   5.500   0.054  0.00  0.00    -0.253 N 
BRANCH  24  27
ATOM     27  C   UNL     1      -1.120   3.598   0.034  0.00  0.00    +0.306 C 
BRANCH  27  28
ATOM     28  O   UNL     1      -1.157   2.170   0.036  0.00  0.00    -0.484 OA
BRANCH  28  29
ATOM     29  C   UNL     1       0.037   1.521   0.025  0.00  0.00    +0.121 A 
ATOM     30  C   UNL     1       1.220   2.245   0.008  0.00  0.00    +0.047 A 
ATOM     31  C   UNL     1       2.433   1.584  -0.007  0.00  0.00    +0.023 A 
ATOM     32  C   UNL     1       2.469   0.201  -0.007  0.00  0.00    +0.041 A 
ATOM     33  C   UNL     1       1.289  -0.523   0.010  0.00  0.00    +0.023 A 
ATOM     34  C   UNL     1       0.074   0.134   0.026  0.00  0.00    +0.047 A 
ATOM     35 CL   UNL     1       3.994  -0.628  -0.026  0.00  0.00    -0.084 Cl
ENDBRANCH  28  29
ENDBRANCH  27  28
ENDBRANCH  24  27
ENDBRANCH  20  21
ENDBRANCH  19  20
ENDBRANCH   4  19
TORSDOF 7
