REMARK  Name = ZINC20764549
REMARK  6 active torsions:
REMARK  status: ('A' for Active; 'I' for Inactive)
REMARK    1  A    between atoms: C_1  and  O_2
REMARK    2  A    between atoms: O_2  and  C_3
REMARK    3  A    between atoms: C_6  and  C_9
REMARK    4  A    between atoms: C_11  and  C_25
REMARK    5  A    between atoms: C_14  and  C_17
REMARK    6  A    between atoms: C_22  and  O_23
REMARK                            x       y       z     vdW  Elec       q    Type
REMARK                         _______ _______ _______ _____ _____    ______ ____
ROOT
ATOM      1  C   UNL     1       1.032   2.186   0.004  0.00  0.00    +0.047 C 
ATOM      2  N   UNL     1      -0.018   1.453   0.010  0.00  0.00    -0.264 NA
ATOM      3  C   UNL     1       0.002  -0.004   0.002  0.00  0.00    +0.206 C 
ATOM      4  N   UNL     1       1.313  -0.502  -0.432  0.00  0.00    -0.284 NA
ATOM      5  C   UNL     1       2.385   0.138   0.350  0.00  0.00    +0.095 C 
ATOM      6  C   UNL     1       2.426   1.623  -0.023  0.00  0.00    +0.079 C 
ATOM      7  H   UNL     1       1.359  -1.591  -0.282  0.00  0.00    +0.125 HD
ENDROOT
BRANCH   5   8
ATOM      8  C   UNL     1       3.707  -0.506   0.022  0.00  0.00    +0.013 A 
ATOM      9  C   UNL     1       3.888  -1.133  -1.196  0.00  0.00    +0.028 A 
ATOM     10  C   UNL     1       5.101  -1.724  -1.498  0.00  0.00    +0.042 A 
ATOM     11  C   UNL     1       6.137  -1.689  -0.580  0.00  0.00    +0.023 A 
ATOM     12  C   UNL     1       5.960  -1.063   0.638  0.00  0.00    +0.047 A 
ATOM     13  C   UNL     1       4.746  -0.464   0.940  0.00  0.00    +0.122 A 
ATOM     14 CL   UNL     1       5.326  -2.511  -3.029  0.00  0.00    -0.084 Cl
BRANCH  13  15
ATOM     15  O   UNL     1       4.572   0.157   2.136  0.00  0.00    -0.506 OA
ATOM     16  H   UNL     1       5.396   0.189   2.864  0.00  0.00    +0.292 HD
ENDBRANCH  13  15
ENDBRANCH   5   8
BRANCH   3  17
ATOM     17  C   UNL     1      -0.287  -0.512   1.391  0.00  0.00    +0.026 A 
ATOM     18  C   UNL     1      -1.003   0.270   2.278  0.00  0.00    +0.010 A 
ATOM     19  C   UNL     1      -1.269  -0.196   3.552  0.00  0.00    +0.001 A 
ATOM     20  C   UNL     1      -0.820  -1.445   3.940  0.00  0.00    +0.003 A 
ATOM     21  C   UNL     1      -0.105  -2.228   3.055  0.00  0.00    +0.039 A 
ATOM     22  C   UNL     1       0.159  -1.765   1.777  0.00  0.00    +0.130 A 
ATOM     23  F   UNL     1       0.854  -2.532   0.909  0.00  0.00    -0.205 F 
ENDBRANCH   3  17
BRANCH   1  27
ATOM     24  C   UNL     1       0.556   6.404   0.061  0.00  0.00    +0.120 A 
ATOM     25  C   UNL     1      -0.563   5.580   0.067  0.00  0.00    +0.046 A 
ATOM     26  C   UNL     1      -0.413   4.211   0.049  0.00  0.00    +0.013 A 
ATOM     27  C   UNL     1       0.867   3.651   0.024  0.00  0.00    -0.004 A 
ATOM     28  C   UNL     1       1.990   4.483   0.024  0.00  0.00    +0.013 A 
ATOM     29  C   UNL     1       1.830   5.851   0.037  0.00  0.00    +0.046 A 
BRANCH  24  31
ATOM     30  C   UNL     1       1.595   8.541   0.071  0.00  0.00    +0.277 C 
ATOM     31  O   UNL     1       0.403   7.753   0.079  0.00  0.00    -0.495 OA
ENDBRANCH  24  31
ENDBRANCH   1  27
TORSDOF 5
