REMARK  Name = ZINC39684711
REMARK  9 active torsions:
REMARK  status: ('A' for Active; 'I' for Inactive)
REMARK    1  A    between atoms: C_1  and  C_2
REMARK    2  A    between atoms: C_6  and  C_7
REMARK    3  A    between atoms: C_11  and  C_20
REMARK    4  A    between atoms: N_22  and  C_23
REMARK    5  A    between atoms: C_23  and  C_25
REMARK    6  A    between atoms: C_23  and  C_26
REMARK    7  A    between atoms: C_26  and  C_27
REMARK    8  A    between atoms: C_26  and  C_28
REMARK    9  A    between atoms: C_26  and  C_29
REMARK                            x       y       z     vdW  Elec       q    Type
REMARK                         _______ _______ _______ _____ _____    ______ ____
ROOT
ATOM      1  C   UNL     1       0.031  -0.285   2.559  0.00  0.00    +0.254 C 
ATOM      2  O   UNL     1       0.119   0.904   2.802  0.00  0.00    -0.269 OA
ATOM      3  N   UNL     1      -0.050  -1.175   3.568  0.00  0.00    -0.296 N 
ATOM      4  C   UNL     1      -0.040  -2.654   3.478  0.00  0.00    +0.121 C 
ATOM      5  C   UNL     1       0.813  -3.113   4.682  0.00  0.00    +0.100 C 
ATOM      6  C   UNL     1       0.723  -1.955   5.691  0.00  0.00    -0.004 C 
ATOM      7  C   UNL     1      -0.162  -0.894   5.020  0.00  0.00    +0.115 C 
ATOM      8  C   UNL     1       2.110  -1.381   5.961  0.00  0.00    -0.010 C 
ATOM      9  C   UNL     1       2.002  -0.270   7.009  0.00  0.00    -0.082 C 
ATOM     10  N   UNL     1       1.427  -0.815   8.245  0.00  0.00    +0.379 N 
ATOM     11  C   UNL     1       0.057  -1.280   7.996  0.00  0.00    -0.082 C 
ATOM     12  C   UNL     1       0.083  -2.434   6.990  0.00  0.00    -0.010 C 
ATOM     13  H   UNL     1       1.991  -1.588   8.565  0.00  0.00    -0.086 HD
ATOM     14  H   UNL     1       1.413  -0.096   8.953  0.00  0.00    -0.086 HD
ENDROOT
BRANCH   1  20
ATOM     15  C   UNL     1      -0.012   1.501   0.007  0.00  0.00    +0.045 C 
ATOM     16  C   UNL     1      -0.007  -0.006  -0.001  0.00  0.00    -0.031 A 
ATOM     17  C   UNL     1      -0.016  -0.730  -1.169  0.00  0.00    +0.011 A 
ATOM     18  C   UNL     1      -0.010  -2.085  -1.104  0.00  0.00    +0.046 A 
ATOM     19  S   UNL     1       0.007  -2.418   0.542  0.00  0.00    -0.092 S 
ATOM     20  C   UNL     1       0.013  -0.750   1.169  0.00  0.00    +0.077 A 
ENDBRANCH   1  20
BRANCH   5  21
ATOM     21  C   UNL     1       0.244  -4.375   5.277  0.00  0.00    +0.218 C 
ATOM     22  O   UNL     1      -0.933  -4.634   5.138  0.00  0.00    -0.275 OA
ATOM     23  N   UNL     1       1.043  -5.216   5.963  0.00  0.00    -0.312 N 
ATOM     24  H   UNL     1       1.984  -5.009   6.074  0.00  0.00    +0.149 HD
BRANCH  23  25
ATOM     25  C   UNL     1       0.490  -6.443   6.542  0.00  0.00    +0.075 C 
ATOM     26  C   UNL     1       0.483  -7.548   5.483  0.00  0.00    +0.028 C 
BRANCH  25  27
ATOM     27  C   UNL     1       1.351  -6.880   7.729  0.00  0.00    -0.020 C 
ATOM     28  C   UNL     1       1.358  -5.776   8.787  0.00  0.00    +0.012 C 
ATOM     29  C   UNL     1       0.773  -8.162   8.333  0.00  0.00    +0.012 C 
ATOM     30  C   UNL     1       2.782  -7.140   7.253  0.00  0.00    +0.012 C 
ENDBRANCH  25  27
ENDBRANCH  23  25
ENDBRANCH   5  21
TORSDOF 4
