REMARK  Name = ZINC39559493
REMARK  9 active torsions:
REMARK  status: ('A' for Active; 'I' for Inactive)
REMARK    1  A    between atoms: C_1  and  N_2
REMARK    2  A    between atoms: N_2  and  C_3
REMARK    3  A    between atoms: C_9  and  C_11
REMARK    4  A    between atoms: C_11  and  S_12
REMARK    5  A    between atoms: S_12  and  C_13
REMARK    6  A    between atoms: C_18  and  C_19
REMARK    7  A    between atoms: N_21  and  C_22
REMARK    8  A    between atoms: C_22  and  C_23
REMARK    9  A    between atoms: N_25  and  C_26
REMARK                            x       y       z     vdW  Elec       q    Type
REMARK                         _______ _______ _______ _____ _____    ______ ____
ROOT
ATOM      1  C   UNL     1      -0.024  -2.090  -6.725  0.00  0.00    +0.246 C 
ATOM      2  O   UNL     1       0.004  -2.808  -5.744  0.00  0.00    -0.270 OA
ATOM      3  N   UNL     1      -0.035  -2.634  -7.958  0.00  0.00    -0.303 N 
ATOM      4  H   UNL     1      -0.058  -2.062  -8.741  0.00  0.00    +0.150 HD
ENDROOT
BRANCH   1  10
ATOM      5  C   UNL     1      -0.036  -0.053  -5.284  0.00  0.00    +0.020 A 
ATOM      6  C   UNL     1      -0.052   1.331  -5.148  0.00  0.00    +0.015 A 
ATOM      7  C   UNL     1      -0.085   2.135  -6.268  0.00  0.00    +0.001 A 
ATOM      8  C   UNL     1      -0.102   1.573  -7.535  0.00  0.00    +0.001 A 
ATOM      9  C   UNL     1      -0.086   0.204  -7.691  0.00  0.00    +0.014 A 
ATOM     10  C   UNL     1      -0.047  -0.625  -6.566  0.00  0.00    +0.050 A 
BRANCH   5  11
ATOM     11  S   UNL     1       0.005  -1.083  -3.855  0.00  0.00    -0.115 S 
BRANCH  11  12
ATOM     12  C   UNL     1       0.008   0.088  -2.469  0.00  0.00    +0.170 C 
BRANCH  12  15
ATOM     13  C   UNL     1       0.024   1.460   0.011  0.00  0.00    +0.132 C 
ATOM     14  N   UNL     1       0.050  -0.005   0.002  0.00  0.00    -0.301 N 
ATOM     15  C   UNL     1       0.042  -0.672  -1.169  0.00  0.00    +0.226 C 
ATOM     16  O   UNL     1       0.063  -1.885  -1.176  0.00  0.00    -0.275 OA
BRANCH  14  17
ATOM     17  C   UNL     1       0.083  -0.744   1.266  0.00  0.00    +0.076 C 
ATOM     18  C   UNL     1       1.339  -0.357   2.050  0.00  0.00    +0.022 C 
ATOM     19  C   UNL     1       1.374  -1.129   3.371  0.00  0.00    +0.002 C 
ATOM     20  C   UNL     1       0.132  -0.785   4.196  0.00  0.00    +0.000 C 
ATOM     21  C   UNL     1      -1.124  -1.172   3.412  0.00  0.00    +0.002 C 
ATOM     22  C   UNL     1      -1.159  -0.400   2.091  0.00  0.00    +0.022 C 
ENDBRANCH  14  17
ENDBRANCH  12  15
ENDBRANCH  11  12
ENDBRANCH   5  11
ENDBRANCH   1  10
BRANCH   3  23
ATOM     23  C   UNL     1      -0.012  -4.090  -8.116  0.00  0.00    +0.200 C 
BRANCH  23  24
ATOM     24  C   UNL     1      -0.030  -4.437  -9.582  0.00  0.00    +0.234 C 
ATOM     25  O   UNL     1      -0.059  -3.554 -10.414  0.00  0.00    -0.274 OA
ATOM     26  N   UNL     1      -0.014  -5.728  -9.970  0.00  0.00    -0.284 N 
ATOM     27  H   UNL     1       0.076  -6.431  -9.309  0.00  0.00    +0.155 HD
BRANCH  26  28
ATOM     28  C   UNL     1      -0.129  -6.052 -11.328  0.00  0.00    +0.036 A 
ATOM     29  C   UNL     1      -0.819  -7.196 -11.712  0.00  0.00    +0.025 A 
ATOM     30  C   UNL     1      -0.935  -7.522 -13.048  0.00  0.00    +0.029 A 
ATOM     31  C   UNL     1      -0.361  -6.706 -14.012  0.00  0.00    +0.067 A 
ATOM     32  C   UNL     1       0.333  -5.556 -13.630  0.00  0.00    +0.069 A 
ATOM     33  C   UNL     1       0.443  -5.229 -12.287  0.00  0.00    +0.051 A 
ATOM     34  N   UNL     1       0.787  -4.952 -14.800  0.00  0.00    -0.306 N 
ATOM     35  H   UNL     1       1.304  -4.133 -14.851  0.00  0.00    +0.170 HD
ATOM     36  C   UNL     1       0.388  -5.699 -15.846  0.00  0.00    +0.325 A 
ATOM     37  O   UNL     1       0.621  -5.450 -17.014  0.00  0.00    -0.247 OA
ATOM     38  N   UNL     1      -0.307  -6.764 -15.404  0.00  0.00    -0.306 N 
ATOM     39  H   UNL     1      -0.702  -7.455 -15.960  0.00  0.00    +0.170 HD
ENDBRANCH  26  28
ENDBRANCH  23  24
ENDBRANCH   3  23
TORSDOF 8
