REMARK  Name = ZINC37631477
REMARK  5 active torsions:
REMARK  status: ('A' for Active; 'I' for Inactive)
REMARK    1  A    between atoms: C_1  and  C_2
REMARK    2  A    between atoms: C_2  and  C_3
REMARK    3  A    between atoms: C_2  and  C_6
REMARK    4  A    between atoms: C_2  and  O_12
REMARK    5  A    between atoms: N_4  and  O_5
REMARK                            x       y       z     vdW  Elec       q    Type
REMARK                         _______ _______ _______ _____ _____    ______ ____
ROOT
ATOM      1  C   UNL     1      -0.019   1.526   0.010  0.00  0.00    +0.053 C 
ATOM      2  C   UNL     1       0.002  -0.004   0.002  0.00  0.00    +0.126 C 
ENDROOT
BRANCH   2   3
ATOM      3  C   UNL     1       0.707  -0.490  -1.238  0.00  0.00    -0.011 A 
ATOM      4  C   UNL     1       1.713   0.271  -1.804  0.00  0.00    +0.007 A 
ATOM      5  C   UNL     1       2.360  -0.175  -2.942  0.00  0.00    +0.000 A 
ATOM      6  C   UNL     1       2.002  -1.382  -3.512  0.00  0.00    +0.000 A 
ATOM      7  C   UNL     1       0.997  -2.143  -2.945  0.00  0.00    +0.000 A 
ATOM      8  C   UNL     1       0.353  -1.700  -1.805  0.00  0.00    +0.007 A 
ENDBRANCH   2   3
BRANCH   2   9
ATOM      9  C   UNL     1       0.731  -0.503   1.223  0.00  0.00    +0.164 C 
ATOM     10  N   UNL     1       1.214   0.330   2.065  0.00  0.00    -0.097 NA
BRANCH  10  11
ATOM     11  O   UNL     1       1.899  -0.139   3.212  0.00  0.00    -0.409 OA
ATOM     12  H   UNL     1       2.227   0.564   3.789  0.00  0.00    +0.328 HD
ENDBRANCH  10  11
ENDBRANCH   2   9
BRANCH   2  13
ATOM     13  O   UNL     1      -1.339  -0.499   0.012  0.00  0.00    -0.379 OA
ATOM     14  H   UNL     1      -1.402  -1.464   0.008  0.00  0.00    +0.211 HD
ENDBRANCH   2  13
TORSDOF 4
