REMARK  Name = ZINC12771730
REMARK  9 active torsions:
REMARK  status: ('A' for Active; 'I' for Inactive)
REMARK    1  A    between atoms: C_1  and  N_56
REMARK    2  A    between atoms: C_2  and  C_3
REMARK    3  A    between atoms: C_2  and  N_56
REMARK    4  A    between atoms: C_14  and  C_15
REMARK    5  A    between atoms: C_14  and  N_56
REMARK    6  A    between atoms: N_17  and  C_18
REMARK    7  A    between atoms: C_19  and  C_27
REMARK    8  A    between atoms: C_27  and  O_29
REMARK    9  A    between atoms: O_29  and  C_30
REMARK                            x       y       z     vdW  Elec       q    Type
REMARK                         _______ _______ _______ _____ _____    ______ ____
ROOT
ATOM      1  C   UNL     1       0.757   9.964  -1.695  0.00  0.00    +0.201 C 
ATOM      2  O   UNL     1       1.284   9.239  -2.513  0.00  0.00    -0.278 OA
ATOM      3  N   UNL     1       0.958  11.296  -1.747  0.00  0.00    -0.281 N 
ATOM      4  H   UNL     1       0.536  11.876  -1.093  0.00  0.00    +0.155 HD
ENDROOT
BRANCH   3   5
ATOM      5  C   UNL     1       1.767  11.837  -2.733  0.00  0.00    +0.086 A 
ATOM      6  C   UNL     1       2.092  13.170  -2.948  0.00  0.00    +0.091 A 
ATOM      7  C   UNL     1       2.970  13.475  -4.065  0.00  0.00    -0.021 A 
ATOM      8  C   UNL     1       3.381  12.408  -4.782  0.00  0.00    -0.004 A 
ATOM      9  S   UNL     1       2.626  11.014  -3.993  0.00  0.00    -0.077 S 
ATOM     10  C   UNL     1       4.282  12.415  -5.979  0.00  0.00    +0.043 C 
ATOM     11  C   UNL     1       4.376  13.855  -6.503  0.00  0.00    +0.005 C 
ATOM     12  C   UNL     1       4.655  14.793  -5.325  0.00  0.00    +0.005 C 
ATOM     13  C   UNL     1       3.418  14.885  -4.430  0.00  0.00    +0.037 C 
BRANCH   6  14
ATOM     14  C   UNL     1       1.569  14.229  -2.082  0.00  0.00    +0.342 C 
ATOM     15  O   UNL     1       2.189  14.566  -1.091  0.00  0.00    -0.245 OA
BRANCH  14  16
ATOM     16  O   UNL     1       0.399  14.830  -2.382  0.00  0.00    -0.464 OA
ATOM     17  C   UNL     1      -0.058  15.870  -1.479  0.00  0.00    +0.280 C 
ENDBRANCH  14  16
ENDBRANCH   6  14
ENDBRANCH   3   5
BRANCH   1  18
ATOM     18  C   UNL     1      -0.123   9.376  -0.623  0.00  0.00    +0.019 C 
BRANCH  18  20
ATOM     19  C   UNL     1       1.132   7.307  -0.531  0.00  0.00    -0.095 C 
ATOM     20  N   UNL     1      -0.188   7.911  -0.810  0.00  0.00    +0.386 N 
ATOM     21  H   UNL     1      -0.448   7.710  -1.783  0.00  0.00    -0.081 HD
BRANCH  20  22
ATOM     22  C   UNL     1      -1.208   7.332   0.089  0.00  0.00    -0.030 C 
BRANCH  22  23
ATOM     23  C   UNL     1      -2.593   7.598  -0.505  0.00  0.00    +0.194 C 
ATOM     24  C   UNL     1      -3.672   6.998   0.407  0.00  0.00    +0.271 C 
ATOM     25  O   UNL     1      -4.951   7.253  -0.184  0.00  0.00    -0.485 OA
ATOM     26  C   UNL     1      -5.071   6.997  -1.516  0.00  0.00    +0.162 A 
ATOM     27  C   UNL     1      -6.335   6.875  -2.074  0.00  0.00    +0.049 A 
ATOM     28  C   UNL     1      -6.473   6.613  -3.424  0.00  0.00    +0.004 A 
ATOM     29  C   UNL     1      -5.352   6.482  -4.223  0.00  0.00    +0.004 A 
ATOM     30  C   UNL     1      -4.090   6.606  -3.674  0.00  0.00    +0.049 A 
ATOM     31  C   UNL     1      -3.944   6.863  -2.318  0.00  0.00    +0.162 A 
ATOM     32  O   UNL     1      -2.695   6.975  -1.790  0.00  0.00    -0.484 OA
ENDBRANCH  22  23
ENDBRANCH  20  22
ENDBRANCH  18  20
ENDBRANCH   1  18
TORSDOF 7
