REMARK  Name = ZINC36352090
REMARK  9 active torsions:
REMARK  status: ('A' for Active; 'I' for Inactive)
REMARK    1  A    between atoms: C_1  and  C_2
REMARK    2  A    between atoms: C_2  and  C_3
REMARK    3  A    between atoms: C_3  and  C_11
REMARK    4  A    between atoms: C_14  and  N_17
REMARK    5  A    between atoms: C_18  and  C_20
REMARK    6  A    between atoms: N_22  and  C_23
REMARK    7  A    between atoms: C_23  and  C_24
REMARK    8  A    between atoms: N_29  and  C_30
REMARK    9  A    between atoms: C_30  and  C_31
REMARK                            x       y       z     vdW  Elec       q    Type
REMARK                         _______ _______ _______ _____ _____    ______ ____
ROOT
ATOM      1  C   UNL     1      -0.044   0.121   2.495  0.00  0.00    -0.032 A 
ATOM      2  C   UNL     1      -1.075  -0.629   3.030  0.00  0.00    +0.006 A 
ATOM      3  C   UNL     1      -1.801  -0.143   4.100  0.00  0.00    +0.023 A 
ATOM      4  C   UNL     1      -1.495   1.101   4.637  0.00  0.00    +0.034 A 
ATOM      5  C   UNL     1      -0.459   1.852   4.097  0.00  0.00    +0.023 A 
ATOM      6  C   UNL     1       0.267   1.358   3.031  0.00  0.00    +0.006 A 
ENDROOT
BRANCH   1   7
ATOM      7  C   UNL     1       0.746  -0.412   1.328  0.00  0.00    +0.072 C 
ATOM      8  C   UNL     1       0.123  -1.726   0.844  0.00  0.00    +0.030 C 
ATOM      9  C   UNL     1       1.006  -2.304  -0.267  0.00  0.00    +0.097 C 
ATOM     10  C   UNL     1       2.413  -2.457   0.249  0.00  0.00    +0.219 C 
ATOM     11  O   UNL     1       3.122  -3.329  -0.206  0.00  0.00    -0.275 OA
ATOM     12  N   UNL     1       2.897  -1.646   1.202  0.00  0.00    -0.256 N 
ATOM     13  C   UNL     1       2.167  -0.667   1.757  0.00  0.00    +0.230 C 
ATOM     14  O   UNL     1       2.660   0.025   2.621  0.00  0.00    -0.274 OA
ATOM     15  H   UNL     1       3.811  -1.773   1.501  0.00  0.00    +0.157 HD
BRANCH   7  17
ATOM     16  C   UNL     1      -0.715   0.923  -0.196  0.00  0.00    +0.005 C 
ATOM     17  C   UNL     1       0.732   0.611   0.190  0.00  0.00    +0.017 C 
ENDBRANCH   7  17
ENDBRANCH   1   7
BRANCH   4  18
ATOM     18  N   UNL     1      -2.228   1.596   5.719  0.00  0.00    -0.278 N 
ATOM     19  C   UNL     1      -2.449   2.921   5.834  0.00  0.00    +0.303 C 
ATOM     20  O   UNL     1      -2.092   3.674   4.952  0.00  0.00    -0.265 OA
ATOM     21  H   UNL     1      -2.579   0.986   6.387  0.00  0.00    +0.155 HD
BRANCH  19  22
ATOM     22  C   UNL     1      -3.132   3.462   7.047  0.00  0.00    +0.299 C 
ATOM     23  O   UNL     1      -3.489   2.708   7.929  0.00  0.00    -0.265 OA
ATOM     24  N   UNL     1      -3.353   4.786   7.162  0.00  0.00    -0.309 N 
ATOM     25  H   UNL     1      -3.067   5.388   6.457  0.00  0.00    +0.149 HD
BRANCH  24  26
ATOM     26  C   UNL     1      -4.023   5.317   8.351  0.00  0.00    +0.089 C 
BRANCH  26  27
ATOM     27  C   UNL     1      -4.148   6.837   8.231  0.00  0.00    -0.051 C 
ATOM     28  C   UNL     1      -4.698   7.424   9.548  0.00  0.00    -0.016 C 
ATOM     29  C   UNL     1      -3.414   7.885  10.288  0.00  0.00    -0.020 C 
ATOM     30  C   UNL     1      -2.534   8.376   9.112  0.00  0.00    -0.078 C 
ATOM     31  N   UNL     1      -2.818   7.433   8.005  0.00  0.00    +0.382 N 
ATOM     32  H   UNL     1      -2.119   6.706   7.989  0.00  0.00    -0.081 HD
BRANCH  31  33
ATOM     33  C   UNL     1      -2.811   8.152   6.724  0.00  0.00    -0.082 C 
ATOM     34  C   UNL     1      -1.398   8.662   6.434  0.00  0.00    -0.017 C 
ENDBRANCH  31  33
ENDBRANCH  26  27
ENDBRANCH  24  26
ENDBRANCH  19  22
ENDBRANCH   4  18
TORSDOF 7
