REMARK  Name = ZINC00909084
REMARK  9 active torsions:
REMARK  status: ('A' for Active; 'I' for Inactive)
REMARK    1  A    between atoms: C_1  and  C_2
REMARK    2  A    between atoms: C_2  and  O_3
REMARK    3  A    between atoms: O_3  and  C_4
REMARK    4  A    between atoms: C_6  and  C_11
REMARK    5  A    between atoms: C_9  and  O_10
REMARK    6  A    between atoms: C_13  and  C_25
REMARK    7  A    between atoms: C_15  and  C_20
REMARK    8  A    between atoms: C_15  and  O_24
REMARK    9  A    between atoms: C_25  and  C_27
REMARK                            x       y       z     vdW  Elec       q    Type
REMARK                         _______ _______ _______ _____ _____    ______ ____
ROOT
ATOM      1  C   UNL     1       0.111   1.374   0.172  0.00  0.00    +0.120 C 
ATOM      2  C   UNL     1       1.543   1.607   0.663  0.00  0.00    +0.144 C 
ATOM      3  C   UNL     1       1.917   0.480   1.632  0.00  0.00    +0.243 C 
ATOM      4  N   UNL     1       1.724  -0.809   0.965  0.00  0.00    -0.264 N 
ATOM      5  C   UNL     1       0.803  -0.966   0.003  0.00  0.00    +0.302 C 
ATOM      6  O   UNL     1       0.676  -2.061  -0.510  0.00  0.00    -0.253 OA
ATOM      7  N   UNL     1       0.016   0.036  -0.415  0.00  0.00    -0.292 N 
ATOM      8  H   UNL     1       2.274  -1.565   1.225  0.00  0.00    +0.153 HD
ATOM      9  H   UNL     1      -0.629  -0.128  -1.120  0.00  0.00    +0.151 HD
ENDROOT
BRANCH   1  12
ATOM     10  C   UNL     1      -2.147   2.830   2.828  0.00  0.00    +0.162 A 
ATOM     11  C   UNL     1      -1.266   2.728   1.764  0.00  0.00    +0.055 A 
ATOM     12  C   UNL     1      -0.844   1.484   1.333  0.00  0.00    -0.023 A 
ATOM     13  C   UNL     1      -1.291   0.341   1.969  0.00  0.00    +0.009 A 
ATOM     14  C   UNL     1      -2.166   0.436   3.035  0.00  0.00    +0.049 A 
ATOM     15  C   UNL     1      -2.598   1.679   3.468  0.00  0.00    +0.158 A 
BRANCH  15  16
ATOM     16  O   UNL     1      -3.459   1.775   4.516  0.00  0.00    -0.503 OA
ATOM     17  H   UNL     1      -3.025   1.845   5.377  0.00  0.00    +0.292 HD
ENDBRANCH  15  16
BRANCH  10  18
ATOM     18  O   UNL     1      -2.568   4.053   3.249  0.00  0.00    -0.489 OA
BRANCH  18  20
ATOM     19  C   UNL     1      -2.644   6.467   3.158  0.00  0.00    +0.048 C 
ATOM     20  C   UNL     1      -2.065   5.190   2.545  0.00  0.00    +0.226 C 
ENDBRANCH  18  20
ENDBRANCH  10  18
ENDBRANCH   1  12
BRANCH   3  21
ATOM     21  C   UNL     1       3.382   0.628   2.046  0.00  0.00    +0.436 C 
ATOM     22  F   UNL     1       4.206   0.394   0.940  0.00  0.00    -0.166 F 
ATOM     23  F   UNL     1       3.603   1.923   2.526  0.00  0.00    -0.166 F 
ATOM     24  F   UNL     1       3.678  -0.299   3.052  0.00  0.00    -0.166 F 
ENDBRANCH   3  21
BRANCH   3  25
ATOM     25  O   UNL     1       1.082   0.549   2.789  0.00  0.00    -0.364 OA
ATOM     26  H   UNL     1       1.261  -0.140   3.445  0.00  0.00    +0.212 HD
ENDBRANCH   3  25
BRANCH   2  27
ATOM     27  C   UNL     1       2.488   1.599  -0.511  0.00  0.00    +0.173 C 
ATOM     28  O   UNL     1       2.754   0.555  -1.068  0.00  0.00    -0.292 OA
BRANCH  27  29
ATOM     29  C   UNL     1       3.089   2.858  -0.981  0.00  0.00    +0.018 A 
ATOM     30  C   UNL     1       2.700   4.076  -0.416  0.00  0.00    +0.011 A 
ATOM     31  C   UNL     1       3.270   5.251  -0.859  0.00  0.00    +0.001 A 
ATOM     32  C   UNL     1       4.218   5.227  -1.867  0.00  0.00    +0.000 A 
ATOM     33  C   UNL     1       4.604   4.026  -2.435  0.00  0.00    +0.001 A 
ATOM     34  C   UNL     1       4.047   2.842  -2.000  0.00  0.00    +0.011 A 
ENDBRANCH  27  29
ENDBRANCH   2  27
TORSDOF 8
