REMARK  Name = ZINC04547569
REMARK  5 active torsions:
REMARK  status: ('A' for Active; 'I' for Inactive)
REMARK    1  A    between atoms: C_5  and  C_7
REMARK    2  A    between atoms: C_7  and  C_9
REMARK    3  A    between atoms: C_7  and  N_16
REMARK    4  A    between atoms: C_17  and  C_19
REMARK    5  A    between atoms: C_19  and  N_25
REMARK                            x       y       z     vdW  Elec       q    Type
REMARK                         _______ _______ _______ _____ _____    ______ ____
ROOT
ATOM      1  C   UNL     1      -2.486   0.872  -3.102  0.00  0.00    +0.135 C 
ENDROOT
BRANCH   1   6
ATOM      2  C   UNL     1       0.536  -0.386  -4.984  0.00  0.00    +0.000 A 
ATOM      3  C   UNL     1      -0.007  -0.667  -6.224  0.00  0.00    +0.001 A 
ATOM      4  C   UNL     1      -1.352  -0.449  -6.455  0.00  0.00    +0.020 A 
ATOM      5  C   UNL     1      -2.157   0.044  -5.442  0.00  0.00    +0.046 A 
ATOM      6  C   UNL     1      -1.611   0.329  -4.204  0.00  0.00    -0.005 A 
ATOM      7  C   UNL     1      -0.266   0.112  -3.974  0.00  0.00    +0.007 A 
ATOM      8 CL   UNL     1      -3.848   0.310  -5.729  0.00  0.00    -0.083 Cl
ENDBRANCH   1   6
BRANCH   1   9
ATOM      9  C   UNL     1      -2.689   2.351  -3.305  0.00  0.00    -0.023 A 
ATOM     10  C   UNL     1      -1.710   3.244  -2.913  0.00  0.00    +0.007 A 
ATOM     11  C   UNL     1      -1.893   4.600  -3.104  0.00  0.00    +0.020 A 
ATOM     12  C   UNL     1      -3.063   5.065  -3.678  0.00  0.00    +0.041 A 
ATOM     13  C   UNL     1      -4.046   4.172  -4.065  0.00  0.00    +0.020 A 
ATOM     14  C   UNL     1      -3.858   2.815  -3.879  0.00  0.00    +0.007 A 
ATOM     15 CL   UNL     1      -3.297   6.769  -3.912  0.00  0.00    -0.084 Cl
ENDBRANCH   1   9
BRANCH   1  16
ATOM     16  N   UNL     1      -1.840   0.641  -1.808  0.00  0.00    -0.303 N 
ATOM     17  C   UNL     1      -1.999  -0.539  -1.177  0.00  0.00    +0.237 C 
ATOM     18  O   UNL     1      -2.748  -1.376  -1.635  0.00  0.00    -0.273 OA
ATOM     19  H   UNL     1      -1.298   1.337  -1.405  0.00  0.00    +0.150 HD
BRANCH  17  20
ATOM     20  C   UNL     1      -1.247  -0.819   0.099  0.00  0.00    +0.110 C 
ATOM     21  C   UNL     1      -2.018  -1.845   0.931  0.00  0.00    +0.035 C 
ATOM     22  C   UNL     1      -1.255  -2.129   2.226  0.00  0.00    +0.003 C 
ATOM     23  C   UNL     1       0.131  -2.684   1.890  0.00  0.00    +0.000 C 
ATOM     24  C   UNL     1       0.902  -1.658   1.058  0.00  0.00    +0.003 C 
ATOM     25  C   UNL     1       0.139  -1.374  -0.237  0.00  0.00    +0.035 C 
BRANCH  20  26
ATOM     26  N   UNL     1      -1.104   0.422   0.864  0.00  0.00    -0.304 N 
ATOM     27  C   UNL     1      -2.200   1.079   1.293  0.00  0.00    +0.326 C 
ATOM     28  O   UNL     1      -3.303   0.696   0.968  0.00  0.00    -0.280 OA
ATOM     29  H   UNL     1      -0.221   0.771   1.061  0.00  0.00    +0.149 HD
ENDBRANCH  20  26
ENDBRANCH  17  20
ENDBRANCH   1  16
TORSDOF 5
