REMARK  Name = ZINC41838669
REMARK  5 active torsions:
REMARK  status: ('A' for Active; 'I' for Inactive)
REMARK    1  A    between atoms: C_1  and  C_2
REMARK    2  A    between atoms: N_7  and  C_8
REMARK    3  A    between atoms: C_8  and  C_9
REMARK    4  A    between atoms: C_8  and  C_10
REMARK    5  A    between atoms: C_8  and  C_18
REMARK                            x       y       z     vdW  Elec       q    Type
REMARK                         _______ _______ _______ _____ _____    ______ ____
ROOT
ATOM      1  C   UNL     1       2.110  -0.798   0.879  0.00  0.00    +0.064 C 
ATOM      2  C   UNL     1       2.498   0.500   0.168  0.00  0.00    +0.007 C 
ENDROOT
BRANCH   1   3
ATOM      3  C   UNL     1       2.877  -0.911   2.172  0.00  0.00    -0.009 A 
ATOM      4  C   UNL     1       2.200  -0.942   3.376  0.00  0.00    +0.044 A 
ATOM      5  C   UNL     1       2.904  -1.046   4.564  0.00  0.00    +0.124 A 
ATOM      6  C   UNL     1       4.286  -1.119   4.545  0.00  0.00    +0.041 A 
ATOM      7  C   UNL     1       4.963  -1.088   3.341  0.00  0.00    +0.041 A 
ATOM      8  C   UNL     1       4.259  -0.989   2.153  0.00  0.00    +0.126 A 
ATOM      9  F   UNL     1       4.920  -0.964   0.975  0.00  0.00    -0.205 F 
ATOM     10  F   UNL     1       2.242  -1.077   5.741  0.00  0.00    -0.205 F 
ENDBRANCH   1   3
BRANCH   1  16
ATOM     11  C   UNL     1      -0.449   0.904  -0.235  0.00  0.00    -0.013 C 
ATOM     12  C   UNL     1      -0.096  -0.577  -0.084  0.00  0.00    -0.070 C 
ATOM     13  C   UNL     1      -1.383  -1.415   0.023  0.00  0.00    -0.017 C 
ATOM     14  C   UNL     1      -1.286  -2.132   1.389  0.00  0.00    -0.020 C 
ATOM     15  C   UNL     1       0.235  -2.114   1.683  0.00  0.00    -0.076 C 
ATOM     16  N   UNL     1       0.669  -0.788   1.164  0.00  0.00    +0.395 N 
ATOM     17  H   UNL     1       0.450  -0.065   1.833  0.00  0.00    -0.079 HD
ENDBRANCH   1  16
BRANCH   1  18
ATOM     18  C   UNL     1       2.440  -1.973  -0.004  0.00  0.00    +0.350 C 
ATOM     19  O   UNL     1       1.543  -2.635  -0.498  0.00  0.00    -0.248 OA
ATOM     20  O   UNL     1       3.604  -2.262  -0.226  0.00  0.00    -0.248 OA
ENDBRANCH   1  18
TORSDOF 3
