REMARK  Name = ZINC65137928
REMARK  8 active torsions:
REMARK  status: ('A' for Active; 'I' for Inactive)
REMARK    1  A    between atoms: C_1  and  C_2
REMARK    2  A    between atoms: C_2  and  C_3
REMARK    3  A    between atoms: C_2  and  C_4
REMARK    4  A    between atoms: C_4  and  C_5
REMARK    5  A    between atoms: C_5  and  N_6
REMARK    6  A    between atoms: C_7  and  C_9
REMARK    7  A    between atoms: C_11  and  C_14
REMARK    8  A    between atoms: N_24  and  C_25
REMARK                            x       y       z     vdW  Elec       q    Type
REMARK                         _______ _______ _______ _____ _____    ______ ____
ROOT
ATOM      1  C   UNL     1      -4.412  -4.402  -0.207  0.00  0.00    +0.314 A 
ATOM      2  N   UNL     1      -4.766  -5.659  -0.297  0.00  0.00    -0.183 NA
ATOM      3  C   UNL     1      -6.103  -5.763  -0.254  0.00  0.00    +0.203 A 
ATOM      4  N   UNL     1      -6.617  -4.562  -0.135  0.00  0.00    -0.055 NA
ATOM      5  O   UNL     1      -5.525  -3.656  -0.097  0.00  0.00    -0.328 OA
ENDROOT
BRANCH   3   6
ATOM      6  C   UNL     1      -6.873  -7.029  -0.330  0.00  0.00    +0.026 A 
ATOM      7  C   UNL     1      -6.203  -8.246  -0.452  0.00  0.00    +0.014 A 
ATOM      8  C   UNL     1      -6.918  -9.424  -0.522  0.00  0.00    +0.028 A 
ATOM      9  C   UNL     1      -8.303  -9.399  -0.471  0.00  0.00    +0.078 A 
ATOM     10  C   UNL     1      -8.978  -8.184  -0.350  0.00  0.00    +0.143 A 
ATOM     11  C   UNL     1      -8.266  -7.003  -0.274  0.00  0.00    +0.059 A 
ATOM     12  O   UNL     1     -10.338  -8.175  -0.304  0.00  0.00    -0.481 OA
ATOM     13  C   UNL     1     -11.012  -9.185  -1.059  0.00  0.00    +0.325 C 
ATOM     14  C   UNL     1     -10.364 -10.523  -0.806  0.00  0.00    +0.257 C 
ATOM     15  O   UNL     1     -11.028 -11.537  -0.842  0.00  0.00    -0.272 OA
ATOM     16  N   UNL     1      -9.041 -10.587  -0.540  0.00  0.00    -0.269 N 
ATOM     17  C   UNL     1      -8.388 -11.881  -0.328  0.00  0.00    +0.138 C 
ENDBRANCH   3   6
BRANCH   1  19
ATOM     18  N   UNL     1      -2.790  -2.565  -0.111  0.00  0.00    -0.307 N 
ATOM     19  C   UNL     1      -3.021  -3.888  -0.217  0.00  0.00    +0.302 C 
ATOM     20  O   UNL     1      -2.089  -4.661  -0.322  0.00  0.00    -0.265 OA
ATOM     21  H   UNL     1      -3.534  -1.948  -0.027  0.00  0.00    +0.149 HD
BRANCH  18  22
ATOM     22  C   UNL     1      -1.416  -2.058  -0.121  0.00  0.00    +0.105 C 
BRANCH  22  23
ATOM     23  C   UNL     1      -1.433  -0.534   0.013  0.00  0.00    +0.022 C 
BRANCH  23  25
ATOM     24  C   UNL     1      -0.019   1.526   0.010  0.00  0.00    +0.007 C 
ATOM     25  C   UNL     1       0.002  -0.004   0.002  0.00  0.00    -0.016 C 
ATOM     26  C   UNL     1       0.742  -0.511   1.242  0.00  0.00    +0.007 C 
ENDBRANCH  23  25
ENDBRANCH  22  23
ENDBRANCH  18  22
ENDBRANCH   1  19
TORSDOF 5
