REMARK  Name = ZINC63385060
REMARK  2 active torsions:
REMARK  status: ('A' for Active; 'I' for Inactive)
REMARK    1  A    between atoms: C_1  and  C_2
REMARK    2  A    between atoms: C_2  and  N_3
REMARK                            x       y       z     vdW  Elec       q    Type
REMARK                         _______ _______ _______ _____ _____    ______ ____
ROOT
ATOM      1  N   UNL     1       0.339  -2.686  -0.535  0.00  0.00    -0.299 N 
ATOM      2  C   UNL     1       0.827  -1.799  -1.425  0.00  0.00    +0.313 C 
ATOM      3  O   UNL     1       0.620  -0.611  -1.275  0.00  0.00    -0.252 OA
ATOM      4  N   UNL     1       1.545  -2.229  -2.481  0.00  0.00    -0.192 N 
ATOM      5  C   UNL     1       2.177  -1.388  -3.384  0.00  0.00    +0.051 A 
ATOM      6  C   UNL     1       2.218   0.007  -3.417  0.00  0.00    +0.024 A 
ATOM      7  C   UNL     1       2.934   0.596  -4.446  0.00  0.00    +0.002 A 
ATOM      8  C   UNL     1       3.584  -0.153  -5.406  0.00  0.00    +0.000 A 
ATOM      9  C   UNL     1       3.551  -1.543  -5.385  0.00  0.00    +0.008 A 
ATOM     10  C   UNL     1       2.840  -2.136  -4.364  0.00  0.00    +0.006 A 
ATOM     11  C   UNL     1       2.589  -3.573  -4.034  0.00  0.00    +0.148 C 
ATOM     12  C   UNL     1       1.738  -3.530  -2.783  0.00  0.00    +0.254 C 
ATOM     13  O   UNL     1       1.310  -4.484  -2.169  0.00  0.00    -0.272 OA
ATOM     14  C   UNL     1       1.838  -4.275  -5.162  0.00  0.00    +0.140 C 
ATOM     15  C   UNL     1       2.829  -4.416  -6.312  0.00  0.00    -0.035 C 
ATOM     16  C   UNL     1       2.245  -3.885  -7.377  0.00  0.00    -0.001 A 
ATOM     17  C   UNL     1       2.662  -3.802  -8.787  0.00  0.00    +0.010 A 
ATOM     18  C   UNL     1       1.809  -3.160  -9.627  0.00  0.00    +0.001 A 
ATOM     19  C   UNL     1       0.597  -2.599  -9.213  0.00  0.00    +0.002 A 
ATOM     20  C   UNL     1       0.131  -2.635  -7.939  0.00  0.00    +0.026 A 
ATOM     21  C   UNL     1       0.938  -3.288  -6.963  0.00  0.00    +0.043 A 
ATOM     22  N   UNL     1       0.721  -3.488  -5.680  0.00  0.00    -0.375 N 
ATOM     23  C   UNL     1       4.214  -4.978  -6.098  0.00  0.00    +0.048 C 
ATOM     24  C   UNL     1       4.793  -4.241  -4.877  0.00  0.00    +0.086 C 
ATOM     25  N   UNL     1       3.842  -4.284  -3.762  0.00  0.00    -0.297 NA
ATOM     26  H   UNL     1       0.441  -3.637  -0.694  0.00  0.00    +0.150 HD
ATOM     27  H   UNL     1       4.269  -3.951  -2.910  0.00  0.00    +0.123 HD
ATOM     28  H   UNL     1      -0.037  -3.171  -5.164  0.00  0.00    +0.160 HD
ENDROOT
BRANCH   1  30
ATOM     29  C   UNL     1      -0.799  -3.413   1.504  0.00  0.00    +0.024 C 
ATOM     30  C   UNL     1      -0.346  -2.213   0.670  0.00  0.00    +0.102 C 
ENDBRANCH   1  30
TORSDOF 1
