REMARK  Name = ZINC67614097
REMARK  6 active torsions:
REMARK  status: ('A' for Active; 'I' for Inactive)
REMARK    1  A    between atoms: C_4  and  C_7
REMARK    2  A    between atoms: C_10  and  N_12
REMARK    3  A    between atoms: N_15  and  C_16
REMARK    4  A    between atoms: C_16  and  C_17
REMARK    5  A    between atoms: C_17  and  C_19
REMARK    6  A    between atoms: C_17  and  N_24
REMARK                            x       y       z     vdW  Elec       q    Type
REMARK                         _______ _______ _______ _____ _____    ______ ____
ROOT
ATOM      1  N   UNL     1       5.345  -2.850   1.478  0.00  0.00    -0.296 N 
ATOM      2  C   UNL     1       5.693  -3.157   2.743  0.00  0.00    +0.300 C 
ATOM      3  O   UNL     1       4.908  -3.741   3.465  0.00  0.00    -0.253 OA
ATOM      4  N   UNL     1       6.912  -2.817   3.208  0.00  0.00    -0.301 N 
ATOM      5  H   UNL     1       5.971  -2.385   0.901  0.00  0.00    +0.151 HD
ATOM      6  H   UNL     1       7.538  -2.351   2.632  0.00  0.00    +0.150 HD
ENDROOT
BRANCH   1   9
ATOM      7  C   UNL     1       3.448  -2.393  -0.180  0.00  0.00    +0.041 C 
ATOM      8  C   UNL     1       3.943  -3.819  -0.434  0.00  0.00    +0.033 C 
ATOM      9  C   UNL     1       4.021  -3.221   0.972  0.00  0.00    +0.082 C 
BRANCH   7  13
ATOM     10  C   UNL     1      -0.772  -1.733  -0.230  0.00  0.00    +0.000 A 
ATOM     11  C   UNL     1       0.095  -0.658  -0.171  0.00  0.00    +0.000 A 
ATOM     12  C   UNL     1       1.460  -0.872  -0.155  0.00  0.00    +0.004 A 
ATOM     13  C   UNL     1       1.959  -2.161  -0.197  0.00  0.00    -0.042 A 
ATOM     14  C   UNL     1       1.092  -3.236  -0.255  0.00  0.00    +0.004 A 
ATOM     15  C   UNL     1      -0.274  -3.022  -0.272  0.00  0.00    +0.000 A 
ENDBRANCH   7  13
ENDBRANCH   1   9
BRANCH   4  16
ATOM     16  C   UNL     1       7.290  -3.150   4.583  0.00  0.00    +0.098 C 
BRANCH  16  17
ATOM     17  C   UNL     1       8.755  -2.774   4.814  0.00  0.00    +0.016 C 
BRANCH  17  18
ATOM     18  N   UNL     1       9.598  -3.461   3.826  0.00  0.00    +0.387 N 
ATOM     19  C   UNL     1       9.352  -4.907   3.896  0.00  0.00    -0.078 C 
ATOM     20  C   UNL     1      10.168  -5.619   2.815  0.00  0.00    -0.019 C 
ATOM     21  C   UNL     1      11.657  -5.342   3.040  0.00  0.00    -0.004 C 
ATOM     22  C   UNL     1      11.890  -3.829   3.040  0.00  0.00    -0.019 C 
ATOM     23  C   UNL     1      11.011  -3.182   4.113  0.00  0.00    -0.078 C 
ATOM     24  H   UNL     1       9.371  -3.128   2.902  0.00  0.00    -0.081 HD
ENDBRANCH  17  18
BRANCH  17  25
ATOM     25  C   UNL     1       9.168  -3.190   6.203  0.00  0.00    +0.093 A 
ATOM     26  C   UNL     1       9.406  -2.360   7.234  0.00  0.00    +0.043 A 
ATOM     27  C   UNL     1       9.762  -3.170   8.337  0.00  0.00    +0.041 A 
ATOM     28  C   UNL     1       9.720  -4.446   7.914  0.00  0.00    +0.195 A 
ATOM     29  O   UNL     1       9.354  -4.452   6.622  0.00  0.00    -0.469 OA
ENDBRANCH  17  25
ENDBRANCH  16  17
ENDBRANCH   4  16
TORSDOF 6
