REMARK  Name = ZINC67065523
REMARK  6 active torsions:
REMARK  status: ('A' for Active; 'I' for Inactive)
REMARK    1  A    between atoms: C_1  and  S_2
REMARK    2  A    between atoms: S_2  and  N_5
REMARK    3  A    between atoms: C_9  and  N_12
REMARK    4  A    between atoms: N_15  and  N_16
REMARK    5  A    between atoms: C_17  and  C_19
REMARK    6  A    between atoms: C_19  and  C_20
REMARK                            x       y       z     vdW  Elec       q    Type
REMARK                         _______ _______ _______ _____ _____    ______ ____
ROOT
ATOM      1  N   UNL     1       4.030  -2.108  -2.128  0.00  0.00    -0.294 N 
ATOM      2  C   UNL     1       4.588  -3.335  -2.137  0.00  0.00    +0.316 C 
ATOM      3  O   UNL     1       3.887  -4.323  -2.032  0.00  0.00    -0.251 OA
ATOM      4  N   UNL     1       5.924  -3.467  -2.261  0.00  0.00    -0.218 N 
ATOM      5  H   UNL     1       4.590  -1.320  -2.211  0.00  0.00    +0.151 HD
ATOM      6  H   UNL     1       6.325  -4.350  -2.268  0.00  0.00    +0.174 HD
ENDROOT
BRANCH   1  11
ATOM      7  N   UNL     1       0.795  -0.411  -1.394  0.00  0.00    -0.180 NA
ATOM      8  C   UNL     1       0.053  -0.601  -2.648  0.00  0.00    +0.109 C 
ATOM      9  C   UNL     1       0.403  -1.976  -3.225  0.00  0.00    +0.019 C 
ATOM     10  C   UNL     1       1.922  -2.092  -3.369  0.00  0.00    +0.025 C 
ATOM     11  C   UNL     1       2.579  -1.965  -1.993  0.00  0.00    +0.090 C 
ATOM     12  C   UNL     1       2.254  -0.584  -1.403  0.00  0.00    +0.131 C 
BRANCH   7  14
ATOM     13  C   UNL     1      -0.022   1.810   0.012  0.00  0.00    +0.215 C 
ATOM     14  S   UNL     1       0.002  -0.004   0.002  0.00  0.00    +0.029 S 
ATOM     15  O   UNL     1       0.835  -0.488   1.046  0.00  0.00    -0.158 OA
ATOM     16  O   UNL     1      -1.315  -0.510  -0.168  0.00  0.00    -0.158 OA
ENDBRANCH   7  14
ENDBRANCH   1  11
BRANCH   4  17
ATOM     17  N   UNL     1       6.732  -2.329  -2.381  0.00  0.00    -0.233 N 
ATOM     18  C   UNL     1       8.068  -2.461  -2.506  0.00  0.00    +0.229 C 
ATOM     19  O   UNL     1       8.569  -3.565  -2.514  0.00  0.00    -0.274 OA
ATOM     20  H   UNL     1       6.330  -1.446  -2.375  0.00  0.00    +0.173 HD
BRANCH  18  21
ATOM     21  C   UNL     1       8.937  -1.237  -2.635  0.00  0.00    +0.101 C 
BRANCH  21  22
ATOM     22  C   UNL     1      10.401  -1.663  -2.761  0.00  0.00    -0.002 C 
ATOM     23  C   UNL     1      10.848  -2.342  -1.465  0.00  0.00    +0.004 C 
ATOM     24  C   UNL     1      12.313  -2.767  -1.591  0.00  0.00    +0.000 C 
ATOM     25  C   UNL     1      13.182  -1.534  -1.847  0.00  0.00    +0.000 C 
ATOM     26  C   UNL     1      12.735  -0.855  -3.143  0.00  0.00    +0.000 C 
ATOM     27  C   UNL     1      11.270  -0.430  -3.017  0.00  0.00    +0.004 C 
ENDBRANCH  21  22
ENDBRANCH  18  21
ENDBRANCH   4  17
TORSDOF 5
