REMARK  Name = ZINC19970325
REMARK  4 active torsions:
REMARK  status: ('A' for Active; 'I' for Inactive)
REMARK    1  A    between atoms: C_3  and  C_9
REMARK    2  A    between atoms: C_9  and  C_11
REMARK    3  A    between atoms: C_9  and  N_21
REMARK    4  A    between atoms: C_13  and  N_18
REMARK                            x       y       z     vdW  Elec       q    Type
REMARK                         _______ _______ _______ _____ _____    ______ ____
ROOT
ATOM      1  C   UNL     1      -2.552   3.873   0.048  0.00  0.00    -0.010 C 
ENDROOT
BRANCH   1   4
ATOM      2  C   UNL     1       1.157   3.169   0.008  0.00  0.00    +0.039 A 
ATOM      3  C   UNL     1      -0.050   3.843   0.024  0.00  0.00    +0.008 A 
ATOM      4  C   UNL     1      -1.238   3.137   0.031  0.00  0.00    -0.022 A 
ATOM      5  C   UNL     1      -1.220   1.752   0.017  0.00  0.00    +0.128 A 
ATOM      6  C   UNL     1      -0.013   1.076   0.008  0.00  0.00    +0.077 A 
ATOM      7  C   UNL     1       1.177   1.785   0.000  0.00  0.00    +0.126 A 
ATOM      8  F   UNL     1       2.356   1.126  -0.014  0.00  0.00    -0.205 F 
ATOM      9  F   UNL     1      -2.381   1.061   0.019  0.00  0.00    -0.205 F 
ENDBRANCH   1   4
BRANCH   1  10
ATOM     10  C   UNL     1      -3.124   3.911  -1.346  0.00  0.00    -0.054 A 
ATOM     11  C   UNL     1      -4.113   3.016  -1.712  0.00  0.00    +0.035 A 
ATOM     12  C   UNL     1      -4.642   3.054  -2.988  0.00  0.00    +0.128 A 
ATOM     13  C   UNL     1      -4.175   3.979  -3.903  0.00  0.00    +0.052 A 
ATOM     14  C   UNL     1      -3.182   4.871  -3.539  0.00  0.00    +0.043 A 
ATOM     15  C   UNL     1      -2.657   4.836  -2.260  0.00  0.00    +0.022 A 
ATOM     16 CL   UNL     1      -2.595   6.032  -4.688  0.00  0.00    -0.083 Cl
BRANCH  12  17
ATOM     17  N   UNL     1      -5.704   2.099  -3.377  0.00  0.00    +0.056 N 
ATOM     18  O   UNL     1      -6.166   2.128  -4.504  0.00  0.00    -0.126 OA
ATOM     19  O   UNL     1      -6.115   1.284  -2.571  0.00  0.00    -0.126 OA
ENDBRANCH  12  17
ENDBRANCH   1  10
BRANCH   1  20
ATOM     20  N   UNL     1      -2.339   5.245   0.527  0.00  0.00    +0.385 N 
ATOM     21  H   UNL     1      -3.298   5.783   0.539  0.00  0.00    -0.089 HD
ATOM     22  H   UNL     1      -1.637   5.763  -0.144  0.00  0.00    -0.089 HD
ATOM     23  H   UNL     1      -1.921   5.218   1.544  0.00  0.00    -0.089 HD
ENDBRANCH   1  20
TORSDOF 4
