REMARK  Name = ZINC58301938
REMARK  15 active torsions:
REMARK  status: ('A' for Active; 'I' for Inactive)
REMARK    1  A    between atoms: C_1  and  C_2
REMARK    2  A    between atoms: C_2  and  C_3
REMARK    3  A    between atoms: C_3  and  C_4
REMARK    4  A    between atoms: C_4  and  C_27
REMARK    5  A    between atoms: N_7  and  C_11
REMARK    6  A    between atoms: C_11  and  C_12
REMARK    7  A    between atoms: N_14  and  C_15
REMARK    8  A    between atoms: C_18  and  N_21
REMARK    9  A    between atoms: N_21  and  C_22
REMARK   10  A    between atoms: N_21  and  C_24
REMARK   11  A    between atoms: C_22  and  C_23
REMARK   12  A    between atoms: C_24  and  C_25
REMARK   13  A    between atoms: C_24  and  C_26
REMARK   14  A    between atoms: C_27  and  C_28
REMARK   15  A    between atoms: C_28  and  C_29
REMARK                            x       y       z     vdW  Elec       q    Type
REMARK                         _______ _______ _______ _____ _____    ______ ____
ROOT
ATOM      1  C   UNL     1       0.754  -5.598  -1.625  0.00  0.00    +0.235 C 
ATOM      2  O   UNL     1       0.938  -5.970  -0.486  0.00  0.00    -0.274 OA
ATOM      3  N   UNL     1       1.102  -6.390  -2.658  0.00  0.00    -0.284 N 
ATOM      4  H   UNL     1       0.892  -6.123  -3.567  0.00  0.00    +0.155 HD
ENDROOT
BRANCH   3   5
ATOM      5  C   UNL     1       1.765  -7.599  -2.420  0.00  0.00    +0.034 A 
ATOM      6  C   UNL     1       2.733  -8.048  -3.308  0.00  0.00    +0.025 A 
ATOM      7  C   UNL     1       3.386  -9.242  -3.071  0.00  0.00    +0.023 A 
ATOM      8  C   UNL     1       3.076  -9.989  -1.949  0.00  0.00    +0.014 A 
ATOM      9  C   UNL     1       2.112  -9.545  -1.063  0.00  0.00    +0.023 A 
ATOM     10  C   UNL     1       1.460  -8.350  -1.292  0.00  0.00    +0.025 A 
BRANCH   8  11
ATOM     11  N   UNL     1       3.739 -11.197  -1.712  0.00  0.00    -0.392 NA
ATOM     12  H   UNL     1       4.404 -11.367  -2.451  0.00  0.00    +0.127 HD
BRANCH  11  13
ATOM     13  C   UNL     1       2.761 -12.293  -1.671  0.00  0.00    +0.049 C 
ATOM     14  C   UNL     1       1.946 -12.297  -2.966  0.00  0.00    +0.026 C 
ATOM     15  C   UNL     1       3.496 -13.627  -1.526  0.00  0.00    +0.026 C 
ENDBRANCH  11  13
BRANCH  11  16
ATOM     16  C   UNL     1       4.445 -11.123  -0.426  0.00  0.00    +0.082 C 
ATOM     17  C   UNL     1       5.547 -10.065  -0.509  0.00  0.00    +0.022 C 
ENDBRANCH  11  16
ENDBRANCH   8  11
ENDBRANCH   3   5
BRANCH   1  18
ATOM     18  C   UNL     1       0.136  -4.248  -1.886  0.00  0.00    +0.214 C 
BRANCH  18  22
ATOM     19  C   UNL     1       0.001  -2.333   1.294  0.00  0.00    +0.113 C 
ATOM     20  C   UNL     1       0.718  -2.783   0.037  0.00  0.00    +0.247 C 
ATOM     21  O   UNL     1       1.839  -2.483  -0.314  0.00  0.00    -0.273 OA
ATOM     22  N   UNL     1      -0.149  -3.587  -0.610  0.00  0.00    -0.215 N 
ATOM     23  C   UNL     1      -1.303  -3.706   0.057  0.00  0.00    +0.310 C 
ATOM     24  O   UNL     1      -2.239  -4.379  -0.327  0.00  0.00    -0.252 OA
ATOM     25  N   UNL     1      -1.311  -2.998   1.201  0.00  0.00    -0.285 N 
ATOM     26  H   UNL     1      -2.038  -2.937   1.840  0.00  0.00    +0.151 HD
BRANCH  19  27
ATOM     27  C   UNL     1      -0.167  -0.812   1.303  0.00  0.00    +0.035 C 
BRANCH  27  29
ATOM     28  C   UNL     1      -1.149   1.139   0.091  0.00  0.00    +0.004 C 
ATOM     29  C   UNL     1      -0.982  -0.381   0.082  0.00  0.00    -0.001 C 
ENDBRANCH  27  29
ENDBRANCH  19  27
BRANCH  19  30
ATOM     30  C   UNL     1       0.753  -2.798   2.542  0.00  0.00    +0.035 C 
BRANCH  30  31
ATOM     31  C   UNL     1       0.906  -4.320   2.509  0.00  0.00    -0.001 C 
ATOM     32  C   UNL     1       1.658  -4.785   3.757  0.00  0.00    +0.004 C 
ENDBRANCH  30  31
ENDBRANCH  19  30
ENDBRANCH  18  22
ENDBRANCH   1  18
TORSDOF 10
