REMARK  Name = ZINC02221297
REMARK  9 active torsions:
REMARK  status: ('A' for Active; 'I' for Inactive)
REMARK    1  A    between atoms: C_1  and  C_2
REMARK    2  A    between atoms: C_2  and  C_3
REMARK    3  A    between atoms: C_3  and  C_4
REMARK    4  A    between atoms: C_4  and  C_5
REMARK    5  A    between atoms: C_11  and  N_15
REMARK    6  A    between atoms: N_15  and  C_16
REMARK    7  A    between atoms: C_16  and  C_17
REMARK    8  A    between atoms: C_17  and  C_18
REMARK    9  A    between atoms: C_18  and  C_19
REMARK                            x       y       z     vdW  Elec       q    Type
REMARK                         _______ _______ _______ _____ _____    ______ ____
ROOT
ATOM      1  C   UNL     1      -0.369   1.701   2.547  0.00  0.00    +0.046 A 
ATOM      2  C   UNL     1      -0.762   1.594   1.221  0.00  0.00    -0.022 A 
ATOM      3  C   UNL     1      -2.029   1.990   0.848  0.00  0.00    -0.031 A 
ATOM      4  C   UNL     1      -2.910   2.503   1.825  0.00  0.00    +0.037 A 
ATOM      5  C   UNL     1      -4.293   2.979   1.633  0.00  0.00    +0.093 A 
ATOM      6  C   UNL     1      -4.947   3.437   2.783  0.00  0.00    +0.080 A 
ATOM      7  C   UNL     1      -6.252   3.908   2.721  0.00  0.00    +0.136 A 
ATOM      8  N   UNL     1      -6.866   3.914   1.539  0.00  0.00    -0.220 NA
ATOM      9  C   UNL     1      -6.235   3.480   0.464  0.00  0.00    +0.224 A 
ATOM     10  N   UNL     1      -5.006   3.028   0.485  0.00  0.00    -0.234 NA
ATOM     11  S   UNL     1      -3.760   3.243   4.082  0.00  0.00    -0.064 S 
ATOM     12  C   UNL     1      -2.414   2.568   3.139  0.00  0.00    +0.111 A 
ATOM     13  N   UNL     1      -1.197   2.179   3.455  0.00  0.00    -0.244 NA
ATOM     14  C   UNL     1      -2.225   1.780  -0.635  0.00  0.00    +0.036 C 
ATOM     15  C   UNL     1      -0.800   1.618  -1.209  0.00  0.00    +0.009 C 
ATOM     16  C   UNL     1      -0.013   1.086   0.008  0.00  0.00    +0.037 C 
ENDROOT
BRANCH   7  17
ATOM     17  N   UNL     1      -6.899   4.360   3.861  0.00  0.00    -0.328 N 
ATOM     18  H   UNL     1      -6.440   4.350   4.716  0.00  0.00    +0.147 HD
BRANCH  17  19
ATOM     19  C   UNL     1      -8.276   4.853   3.775  0.00  0.00    +0.103 C 
BRANCH  19  20
ATOM     20  C   UNL     1      -8.750   5.287   5.164  0.00  0.00    +0.018 C 
BRANCH  20  21
ATOM     21  C   UNL     1     -10.188   5.801   5.074  0.00  0.00    -0.002 C 
ATOM     22  C   UNL     1     -10.662   6.236   6.463  0.00  0.00    +0.004 C 
ENDBRANCH  20  21
ENDBRANCH  19  20
ENDBRANCH  17  19
ENDBRANCH   7  17
BRANCH   1  23
ATOM     23  C   UNL     1       1.016   1.268   2.952  0.00  0.00    +0.056 C 
BRANCH  23  24
ATOM     24  C   UNL     1       0.993  -0.212   3.342  0.00  0.00    +0.006 C 
BRANCH  24  26
ATOM     25  C   UNL     1       2.377  -2.131   4.144  0.00  0.00    +0.004 C 
ATOM     26  C   UNL     1       2.400  -0.652   3.754  0.00  0.00    -0.003 C 
ENDBRANCH  24  26
ENDBRANCH  23  24
ENDBRANCH   1  23
TORSDOF 7
