REMARK  Name = ZINC38655707
REMARK  6 active torsions:
REMARK  status: ('A' for Active; 'I' for Inactive)
REMARK    1  A    between atoms: C_6  and  C_7
REMARK    2  A    between atoms: C_7  and  O_9
REMARK    3  A    between atoms: O_9  and  C_10
REMARK    4  A    between atoms: C_17  and  N_31
REMARK    5  A    between atoms: C_18  and  C_29
REMARK    6  A    between atoms: C_19  and  C_21
REMARK                            x       y       z     vdW  Elec       q    Type
REMARK                         _______ _______ _______ _____ _____    ______ ____
ROOT
ATOM      1  C   UNL     1      -2.381  -2.851   0.044  0.00  0.00    +0.135 A 
ATOM      2  C   UNL     1      -3.620  -2.226   0.017  0.00  0.00    +0.047 A 
ATOM      3  C   UNL     1      -4.775  -2.981   0.059  0.00  0.00    +0.012 A 
ATOM      4  C   UNL     1      -4.704  -4.361   0.129  0.00  0.00    +0.008 A 
ATOM      5  C   UNL     1      -3.470  -4.991   0.156  0.00  0.00    +0.138 A 
ATOM      6  C   UNL     1      -2.307  -4.233   0.108  0.00  0.00    +0.093 A 
ATOM      7  O   UNL     1      -3.380  -6.342   0.225  0.00  0.00    -0.441 OA
ATOM      8  C   UNL     1      -4.434  -7.102  -0.116  0.00  0.00    +0.199 C 
ATOM      9  C   UNL     1      -5.692  -6.604  -0.159  0.00  0.00    +0.098 C 
ATOM     10  C   UNL     1      -5.976  -5.166   0.174  0.00  0.00    +0.098 C 
ENDROOT
BRANCH  10  11
ATOM     11  C   UNL     1      -6.570  -5.082   1.557  0.00  0.00    -0.033 A 
ATOM     12  C   UNL     1      -5.846  -5.526   2.648  0.00  0.00    +0.006 A 
ATOM     13  C   UNL     1      -6.390  -5.450   3.916  0.00  0.00    +0.022 A 
ATOM     14  C   UNL     1      -7.660  -4.929   4.094  0.00  0.00    +0.059 A 
ATOM     15  C   UNL     1      -8.384  -4.485   3.001  0.00  0.00    +0.060 A 
ATOM     16  C   UNL     1      -7.836  -4.557   1.733  0.00  0.00    +0.026 A 
ATOM     17 CL   UNL     1      -9.978  -3.832   3.223  0.00  0.00    -0.082 Cl
ATOM     18 CL   UNL     1      -8.344  -4.834   5.687  0.00  0.00    -0.082 Cl
ENDBRANCH  10  11
BRANCH   8  19
ATOM     19  N   UNL     1      -4.229  -8.422  -0.429  0.00  0.00    -0.328 N 
ATOM     20  H   UNL     1      -3.333  -8.794  -0.403  0.00  0.00    +0.145 HD
ATOM     21  H   UNL     1      -4.980  -8.984  -0.677  0.00  0.00    +0.145 HD
ENDBRANCH   8  19
BRANCH   9  22
ATOM     22  C   UNL     1      -6.775  -7.465  -0.531  0.00  0.00    +0.101 C 
ATOM     23  N   UNL     1      -7.634  -8.147  -0.826  0.00  0.00    -0.191 NA
ENDBRANCH   9  22
BRANCH   1  24
ATOM     24  O   UNL     1      -1.243  -2.109   0.003  0.00  0.00    -0.422 OA
BRANCH  24  25
ATOM     25  C   UNL     1      -0.854  -1.485   1.132  0.00  0.00    +0.344 C 
ATOM     26  O   UNL     1      -1.560  -1.521   2.120  0.00  0.00    -0.245 OA
BRANCH  25  32
ATOM     27  C   UNL     1       0.836  -0.110   2.337  0.00  0.00    +0.018 A 
ATOM     28  C   UNL     1       2.036   0.567   2.365  0.00  0.00    +0.039 A 
ATOM     29  C   UNL     1       2.840   0.606   1.236  0.00  0.00    +0.123 A 
ATOM     30  C   UNL     1       2.442  -0.035   0.072  0.00  0.00    +0.039 A 
ATOM     31  C   UNL     1       1.244  -0.715   0.033  0.00  0.00    +0.018 A 
ATOM     32  C   UNL     1       0.430  -0.758   1.168  0.00  0.00    +0.060 A 
ATOM     33  F   UNL     1       4.015   1.272   1.269  0.00  0.00    -0.205 F 
ENDBRANCH  25  32
ENDBRANCH  24  25
ENDBRANCH   1  24
TORSDOF 6
