REMARK  Name = ZINC04595636
REMARK  7 active torsions:
REMARK  status: ('A' for Active; 'I' for Inactive)
REMARK    1  A    between atoms: C_1  and  N_2
REMARK    2  A    between atoms: N_2  and  C_3
REMARK    3  A    between atoms: N_2  and  C_4
REMARK    4  A    between atoms: C_7  and  C_10
REMARK    5  A    between atoms: N_11  and  N_12
REMARK    6  A    between atoms: C_15  and  C_25
REMARK    7  A    between atoms: C_17  and  C_19
REMARK                            x       y       z     vdW  Elec       q    Type
REMARK                         _______ _______ _______ _____ _____    ______ ____
ROOT
ATOM      1  N   UNL     1      -2.496   1.167  -0.638  0.00  0.00    -0.221 N 
ATOM      2  C   UNL     1      -1.264   1.798  -0.583  0.00  0.00    +0.142 A 
ATOM      3  C   UNL     1      -0.126   1.173  -1.095  0.00  0.00    +0.073 A 
ATOM      4  C   UNL     1       1.091   1.849  -1.022  0.00  0.00    +0.077 A 
ATOM      5  N   UNL     1       1.126   3.059  -0.467  0.00  0.00    -0.227 NA
ATOM      6  C   UNL     1       0.026   3.619   0.013  0.00  0.00    +0.162 A 
ATOM      7  N   UNL     1      -1.148   3.005  -0.038  0.00  0.00    -0.211 NA
ATOM      8  H   UNL     1      -2.572   0.285  -1.034  0.00  0.00    +0.176 HD
ENDROOT
BRANCH   6   9
ATOM      9  C   UNL     1       0.109   4.968   0.624  0.00  0.00    +0.019 A 
ATOM     10  C   UNL     1       1.334   5.630   0.694  0.00  0.00    +0.011 A 
ATOM     11  C   UNL     1       1.404   6.887   1.257  0.00  0.00    +0.001 A 
ATOM     12  C   UNL     1       0.265   7.486   1.764  0.00  0.00    +0.000 A 
ATOM     13  C   UNL     1      -0.953   6.831   1.702  0.00  0.00    +0.001 A 
ATOM     14  C   UNL     1      -1.036   5.576   1.135  0.00  0.00    +0.011 A 
ENDBRANCH   6   9
BRANCH   4  15
ATOM     15  C   UNL     1       2.328   1.230  -1.558  0.00  0.00    +0.001 A 
ATOM     16  C   UNL     1       2.283  -0.038  -2.133  0.00  0.00    +0.010 A 
ATOM     17  C   UNL     1       3.437  -0.607  -2.635  0.00  0.00    +0.001 A 
ATOM     18  C   UNL     1       4.637   0.075  -2.556  0.00  0.00    +0.000 A 
ATOM     19  C   UNL     1       4.689   1.333  -1.982  0.00  0.00    +0.001 A 
ATOM     20  C   UNL     1       3.540   1.913  -1.482  0.00  0.00    +0.010 A 
ENDBRANCH   4  15
BRANCH   1  22
ATOM     21  C   UNL     1      -4.762   1.167  -0.063  0.00  0.00    +0.138 C 
ATOM     22  N   UNL     1      -3.632   1.803  -0.122  0.00  0.00    -0.189 NA
BRANCH  21  26
ATOM     23  C   UNL     1      -4.812  -3.079  -0.091  0.00  0.00    +0.029 A 
ATOM     24  C   UNL     1      -3.617  -2.401   0.126  0.00  0.00    +0.024 A 
ATOM     25  C   UNL     1      -3.597  -1.023   0.136  0.00  0.00    +0.011 A 
ATOM     26  C   UNL     1      -4.779  -0.307  -0.073  0.00  0.00    -0.005 A 
ATOM     27  C   UNL     1      -5.979  -0.993  -0.286  0.00  0.00    +0.011 A 
ATOM     28  C   UNL     1      -5.990  -2.370  -0.300  0.00  0.00    +0.024 A 
BRANCH  23  30
ATOM     29  C   UNL     1      -3.572  -5.222   0.000  0.00  0.00    +0.129 C 
ATOM     30  N   UNL     1      -4.828  -4.474  -0.099  0.00  0.00    -0.336 N 
ATOM     31  C   UNL     1      -6.101  -5.191  -0.207  0.00  0.00    +0.129 C 
ENDBRANCH  23  30
ENDBRANCH  21  26
ENDBRANCH   1  22
TORSDOF 5
