REMARK  Name = ZINC10800097
REMARK  8 active torsions:
REMARK  status: ('A' for Active; 'I' for Inactive)
REMARK    1  A    between atoms: C_1  and  C_2
REMARK    2  A    between atoms: C_2  and  C_4
REMARK    3  A    between atoms: C_2  and  S_23
REMARK    4  A    between atoms: N_6  and  C_7
REMARK    5  A    between atoms: C_9  and  S_14
REMARK    6  A    between atoms: S_14  and  N_17
REMARK    7  A    between atoms: S_23  and  C_24
REMARK    8  A    between atoms: N_28  and  C_29
REMARK                            x       y       z     vdW  Elec       q    Type
REMARK                         _______ _______ _______ _____ _____    ______ ____
ROOT
ATOM      1  C   UNL     1       5.298  -0.669  -2.044  0.00  0.00    +0.054 A 
ATOM      2  C   UNL     1       4.852  -0.356  -0.767  0.00  0.00    +0.053 A 
ATOM      3  C   UNL     1       3.948  -1.183  -0.131  0.00  0.00    +0.107 A 
ATOM      4  C   UNL     1       3.490  -2.326  -0.762  0.00  0.00    +0.030 A 
ATOM      5  C   UNL     1       3.927  -2.638  -2.035  0.00  0.00    +0.024 A 
ATOM      6  C   UNL     1       4.832  -1.815  -2.678  0.00  0.00    +0.062 A 
ATOM      7 CL   UNL     1       5.386  -2.211  -4.275  0.00  0.00    -0.082 Cl
ENDROOT
BRANCH   1  10
ATOM      8  C   UNL     1       7.035   0.956  -1.969  0.00  0.00    +0.230 C 
ATOM      9  O   UNL     1       7.050   0.868  -0.760  0.00  0.00    -0.274 OA
ATOM     10  N   UNL     1       6.215   0.167  -2.692  0.00  0.00    -0.283 N 
ATOM     11  H   UNL     1       6.260   0.179  -3.661  0.00  0.00    +0.155 HD
BRANCH   8  13
ATOM     12  C   UNL     1       9.168   1.222  -3.205  0.00  0.00    +0.029 C 
ATOM     13  C   UNL     1       7.934   1.946  -2.664  0.00  0.00    +0.137 C 
BRANCH  13  14
ATOM     14  S   UNL     1       8.449   3.222  -1.488  0.00  0.00    -0.074 S 
BRANCH  14  15
ATOM     15  C   UNL     1       9.335   4.295  -2.570  0.00  0.00    +0.192 A 
ATOM     16  N   UNL     1       9.521   4.125  -3.858  0.00  0.00    -0.123 NA
ATOM     17  N   UNL     1      10.210   5.101  -4.332  0.00  0.00    -0.137 NA
ATOM     18  C   UNL     1      10.509   5.940  -3.382  0.00  0.00    +0.225 A 
ATOM     19  N   UNL     1       9.963   5.457  -2.225  0.00  0.00    -0.312 N 
ATOM     20  C   UNL     1      10.036   6.061  -0.892  0.00  0.00    +0.152 C 
ENDBRANCH  14  15
ENDBRANCH  13  14
ENDBRANCH   8  13
ENDBRANCH   1  10
BRANCH   3  21
ATOM     21  S   UNL     1       3.381  -0.786   1.490  0.00  0.00    +0.061 S 
ATOM     22  O   UNL     1       4.378   0.039   2.077  0.00  0.00    -0.153 OA
ATOM     23  O   UNL     1       2.956  -2.006   2.082  0.00  0.00    -0.153 OA
BRANCH  21  24
ATOM     24  N   UNL     1       2.029   0.154   1.319  0.00  0.00    -0.177 NA
ATOM     25  C   UNL     1       0.696  -0.459   1.244  0.00  0.00    +0.109 C 
ATOM     26  C   UNL     1      -0.008   0.045  -0.019  0.00  0.00    +0.017 C 
ATOM     27  C   UNL     1      -0.019   1.575  -0.017  0.00  0.00    +0.003 C 
ATOM     28  C   UNL     1       1.419   2.098  -0.024  0.00  0.00    +0.017 C 
ATOM     29  C   UNL     1       2.139   1.617   1.239  0.00  0.00    +0.109 C 
ENDBRANCH  21  24
ENDBRANCH   3  21
TORSDOF 6
