REMARK  Name = ZINC08772356
REMARK  5 active torsions:
REMARK  status: ('A' for Active; 'I' for Inactive)
REMARK    1  A    between atoms: C_1  and  C_2
REMARK    2  A    between atoms: C_2  and  C_4
REMARK    3  A    between atoms: C_2  and  N_14
REMARK    4  A    between atoms: C_15  and  C_17
REMARK    5  A    between atoms: C_17  and  N_18
REMARK                            x       y       z     vdW  Elec       q    Type
REMARK                         _______ _______ _______ _____ _____    ______ ____
ROOT
ATOM      1  C   UNL     1       3.411  -1.791  -2.407  0.00  0.00    +0.213 C 
ENDROOT
BRANCH   1   2
ATOM      2  N   UNL     1       4.747  -2.140  -2.898  0.00  0.00    -0.215 N 
ATOM      3  C   UNL     1       5.295  -1.639  -4.025  0.00  0.00    +0.252 C 
ATOM      4  O   UNL     1       4.796  -0.847  -4.794  0.00  0.00    -0.272 OA
ATOM      5  C   UNL     1       6.663  -2.274  -4.124  0.00  0.00    +0.144 C 
ATOM      6  C   UNL     1       7.753  -1.207  -4.074  0.00  0.00    +0.081 C 
ATOM      7  C   UNL     1       7.794  -0.496  -5.433  0.00  0.00    +0.232 C 
ATOM      8  O   UNL     1       8.170  -1.446  -6.430  0.00  0.00    -0.492 OA
ATOM      9  C   UNL     1       7.509  -2.632  -6.466  0.00  0.00    +0.126 A 
ATOM     10  C   UNL     1       6.770  -3.085  -5.385  0.00  0.00    +0.027 A 
ATOM     11  C   UNL     1       6.116  -4.303  -5.460  0.00  0.00    +0.010 A 
ATOM     12  C   UNL     1       6.194  -5.066  -6.609  0.00  0.00    +0.001 A 
ATOM     13  C   UNL     1       6.928  -4.615  -7.690  0.00  0.00    +0.004 A 
ATOM     14  C   UNL     1       7.583  -3.403  -7.621  0.00  0.00    +0.046 A 
ATOM     15  N   UNL     1       6.740  -3.144  -2.944  0.00  0.00    -0.281 N 
ATOM     16  C   UNL     1       5.572  -2.998  -2.287  0.00  0.00    +0.310 C 
ATOM     17  O   UNL     1       5.300  -3.581  -1.256  0.00  0.00    -0.252 OA
ATOM     18  H   UNL     1       7.483  -3.711  -2.688  0.00  0.00    +0.152 HD
ENDBRANCH   1   2
BRANCH   1  20
ATOM     19  N   UNL     1       2.397  -0.101  -0.912  0.00  0.00    -0.307 N 
ATOM     20  C   UNL     1       3.509  -0.602  -1.487  0.00  0.00    +0.231 C 
ATOM     21  O   UNL     1       4.588  -0.095  -1.263  0.00  0.00    -0.274 OA
ATOM     22  H   UNL     1       1.534  -0.506  -1.091  0.00  0.00    +0.149 HD
BRANCH  19  24
ATOM     23  C   UNL     1       2.831   0.580   1.396  0.00  0.00    +0.033 C 
ATOM     24  C   UNL     1       2.492   1.055  -0.018  0.00  0.00    +0.100 C 
BRANCH  24  25
ATOM     25  C   UNL     1       1.174   1.786   0.000  0.00  0.00    -0.027 A 
ATOM     26  C   UNL     1      -0.013   1.076   0.008  0.00  0.00    +0.006 A 
ATOM     27  C   UNL     1      -1.215   1.752   0.017  0.00  0.00    +0.004 A 
ATOM     28  C   UNL     1      -1.244   3.140   0.030  0.00  0.00    -0.044 A 
ATOM     29  C   UNL     1      -0.063   3.847   0.026  0.00  0.00    -0.044 A 
ATOM     30  C   UNL     1       1.147   3.165   0.010  0.00  0.00    +0.009 A 
ATOM     31  C   UNL     1      -0.019   5.353   0.043  0.00  0.00    +0.035 C 
ATOM     32  C   UNL     1      -1.369   5.934  -0.372  0.00  0.00    +0.005 C 
ATOM     33  C   UNL     1      -2.462   5.271   0.475  0.00  0.00    +0.005 C 
ATOM     34  C   UNL     1      -2.592   3.813   0.038  0.00  0.00    +0.035 C 
ENDBRANCH  24  25
ENDBRANCH  19  24
ENDBRANCH   1  20
TORSDOF 4
