REMARK  Name = ZINC35567938
REMARK  6 active torsions:
REMARK  status: ('A' for Active; 'I' for Inactive)
REMARK    1  A    between atoms: C_1  and  C_2
REMARK    2  A    between atoms: C_2  and  C_4
REMARK    3  A    between atoms: C_2  and  O_16
REMARK    4  A    between atoms: O_16  and  C_17
REMARK    5  A    between atoms: C_17  and  C_19
REMARK    6  A    between atoms: C_24  and  N_25
REMARK                            x       y       z     vdW  Elec       q    Type
REMARK                         _______ _______ _______ _____ _____    ______ ____
ROOT
ATOM      1  C   UNL     1      -0.238   2.074   1.370  0.00  0.00    +0.060 C 
ATOM      2  C   UNL     1      -0.098   0.632   0.880  0.00  0.00    +0.239 C 
ENDROOT
BRANCH   2   3
ATOM      3  C   UNL     1       0.686   0.612  -0.407  0.00  0.00    +0.151 A 
ATOM      4  N   UNL     1       1.179  -0.577  -0.843  0.00  0.00    -0.307 N 
ATOM      5  H   UNL     1       1.020  -1.382  -0.325  0.00  0.00    +0.170 HD
ATOM      6  C   UNL     1       1.889  -0.648  -1.992  0.00  0.00    +0.259 A 
ATOM      7  O   UNL     1       2.336  -1.706  -2.395  0.00  0.00    -0.267 OA
ATOM      8  C   UNL     1       2.100   0.603  -2.737  0.00  0.00    +0.065 A 
ATOM      9  C   UNL     1       2.817   0.638  -3.931  0.00  0.00    +0.015 A 
ATOM     10  C   UNL     1       2.985   1.838  -4.587  0.00  0.00    +0.001 A 
ATOM     11  C   UNL     1       2.445   3.008  -4.068  0.00  0.00    +0.002 A 
ATOM     12  C   UNL     1       1.734   2.994  -2.889  0.00  0.00    +0.028 A 
ATOM     13  C   UNL     1       1.550   1.790  -2.206  0.00  0.00    +0.078 A 
ATOM     14  N   UNL     1       0.851   1.730  -1.045  0.00  0.00    -0.230 NA
ENDBRANCH   2   3
BRANCH   2  15
ATOM     15  O   UNL     1      -1.396   0.077   0.656  0.00  0.00    -0.450 OA
BRANCH  15  16
ATOM     16  C   UNL     1      -1.982  -0.549   1.695  0.00  0.00    +0.342 C 
ATOM     17  O   UNL     1      -1.407  -0.622   2.762  0.00  0.00    -0.245 OA
BRANCH  16  18
ATOM     18  C   UNL     1      -3.323  -1.146   1.536  0.00  0.00    +0.089 A 
ATOM     19  C   UNL     1      -4.388  -0.368   1.076  0.00  0.00    +0.017 A 
ATOM     20  C   UNL     1      -5.638  -0.933   0.930  0.00  0.00    +0.001 A 
ATOM     21  C   UNL     1      -5.838  -2.267   1.240  0.00  0.00    +0.002 A 
ATOM     22  C   UNL     1      -4.789  -3.043   1.697  0.00  0.00    +0.033 A 
ATOM     23  C   UNL     1      -3.532  -2.493   1.841  0.00  0.00    +0.140 A 
BRANCH  23  24
ATOM     24  N   UNL     1      -2.408  -3.326   2.324  0.00  0.00    +0.057 N 
ATOM     25  O   UNL     1      -2.613  -4.456   2.704  0.00  0.00    -0.126 OA
ATOM     26  O   UNL     1      -1.285  -2.878   2.338  0.00  0.00    -0.126 OA
ENDBRANCH  23  24
ENDBRANCH  16  18
ENDBRANCH  15  16
ENDBRANCH   2  15
TORSDOF 5
