REMARK  Name = ZINC61496755
REMARK  7 active torsions:
REMARK  status: ('A' for Active; 'I' for Inactive)
REMARK    1  A    between atoms: C_1  and  C_2
REMARK    2  A    between atoms: C_2  and  C_3
REMARK    3  A    between atoms: C_3  and  C_5
REMARK    4  A    between atoms: C_3  and  N_20
REMARK    5  A    between atoms: C_8  and  C_10
REMARK    6  A    between atoms: C_13  and  N_17
REMARK    7  A    between atoms: C_15  and  C_16
REMARK                            x       y       z     vdW  Elec       q    Type
REMARK                         _______ _______ _______ _____ _____    ______ ____
ROOT
ATOM      1  C   UNL     1       0.847  -1.998  -1.206  0.00  0.00    +0.204 A 
ATOM      2  N   UNL     1      -0.107  -2.861  -1.417  0.00  0.00    -0.114 NA
ATOM      3  N   UNL     1       0.356  -4.054  -1.293  0.00  0.00    -0.107 NA
ATOM      4  C   UNL     1       1.633  -3.994  -0.996  0.00  0.00    +0.248 A 
ATOM      5  O   UNL     1       1.969  -2.689  -0.940  0.00  0.00    -0.422 OA
ENDROOT
BRANCH   4   6
ATOM      6  C   UNL     1       2.536  -5.142  -0.769  0.00  0.00    +0.042 A 
ATOM      7  C   UNL     1       3.878  -4.927  -0.452  0.00  0.00    +0.016 A 
ATOM      8  C   UNL     1       4.715  -6.003  -0.242  0.00  0.00    +0.033 A 
ATOM      9  C   UNL     1       4.227  -7.294  -0.345  0.00  0.00    +0.126 A 
ATOM     10  C   UNL     1       2.898  -7.514  -0.658  0.00  0.00    +0.036 A 
ATOM     11  C   UNL     1       2.049  -6.446  -0.865  0.00  0.00    -0.036 A 
ATOM     12  C   UNL     1       0.599  -6.688  -1.201  0.00  0.00    +0.044 C 
BRANCH   9  13
ATOM     13  N   UNL     1       5.131  -8.444  -0.118  0.00  0.00    +0.056 N 
ATOM     14  O   UNL     1       6.293  -8.254   0.155  0.00  0.00    -0.126 OA
ATOM     15  O   UNL     1       4.707  -9.572  -0.207  0.00  0.00    -0.126 OA
ENDBRANCH   9  13
ENDBRANCH   4   6
BRANCH   1  16
ATOM     16  C   UNL     1       0.718  -0.497  -1.257  0.00  0.00    +0.014 C 
BRANCH  16  17
ATOM     17  N   UNL     1      -0.057  -0.113  -2.444  0.00  0.00    +0.386 N 
ATOM     18  H   UNL     1      -0.143   0.892  -2.478  0.00  0.00    -0.089 HD
ATOM     19  H   UNL     1       0.415  -0.438  -3.274  0.00  0.00    -0.089 HD
ATOM     20  H   UNL     1      -0.975  -0.528  -2.395  0.00  0.00    -0.089 HD
ENDBRANCH  16  17
BRANCH  16  22
ATOM     21  C   UNL     1      -0.019   1.526   0.010  0.00  0.00    +0.002 C 
ATOM     22  C   UNL     1       0.002  -0.004   0.002  0.00  0.00    -0.010 C 
ENDBRANCH  16  22
ENDBRANCH   1  16
TORSDOF 5
