REMARK  Name = ZINC04369632
REMARK  8 active torsions:
REMARK  status: ('A' for Active; 'I' for Inactive)
REMARK    1  A    between atoms: C_1  and  C_2
REMARK    2  A    between atoms: C_3  and  C_20
REMARK    3  A    between atoms: C_4  and  C_13
REMARK    4  A    between atoms: C_17  and  N_19
REMARK    5  A    between atoms: C_20  and  O_22
REMARK    6  A    between atoms: O_22  and  C_23
REMARK    7  A    between atoms: C_23  and  C_24
REMARK    8  A    between atoms: C_23  and  C_25
REMARK                            x       y       z     vdW  Elec       q    Type
REMARK                         _______ _______ _______ _____ _____    ______ ____
ROOT
ATOM      1  C   UNL     1      -0.906   6.553  -2.932  0.00  0.00    +0.066 C 
ATOM      2  C   UNL     1      -1.153   5.593  -1.797  0.00  0.00    +0.053 C 
ATOM      3  C   UNL     1      -1.457   6.081  -0.561  0.00  0.00    +0.082 C 
ATOM      4  C   UNL     1      -1.771   5.114   0.553  0.00  0.00    +0.145 C 
ATOM      5  N   UNL     1      -1.119   3.824   0.263  0.00  0.00    -0.298 N 
ATOM      6  C   UNL     1      -0.543   3.090   1.385  0.00  0.00    +0.109 C 
ATOM      7  C   UNL     1      -0.743   1.587   1.259  0.00  0.00    +0.030 C 
ATOM      8  C   UNL     1      -0.013   1.086   0.008  0.00  0.00    +0.079 C 
ATOM      9  S   UNL     1      -0.903   1.693  -1.447  0.00  0.00    -0.090 S 
ATOM     10  C   UNL     1      -1.051   3.398  -1.027  0.00  0.00    +0.157 C 
ATOM     11  N   UNL     1      -1.072   4.286  -2.017  0.00  0.00    -0.230 NA
ENDROOT
BRANCH   4  12
ATOM     12  C   UNL     1      -3.263   4.920   0.647  0.00  0.00    -0.021 A 
ATOM     13  C   UNL     1      -3.904   4.067  -0.233  0.00  0.00    +0.006 A 
ATOM     14  C   UNL     1      -5.272   3.881  -0.147  0.00  0.00    +0.002 A 
ATOM     15  C   UNL     1      -6.003   4.555   0.811  0.00  0.00    +0.023 A 
ATOM     16  C   UNL     1      -5.363   5.417   1.693  0.00  0.00    +0.025 A 
ATOM     17  C   UNL     1      -3.988   5.597   1.607  0.00  0.00    +0.028 A 
BRANCH  16  18
ATOM     18  N   UNL     1      -6.099   6.100   2.663  0.00  0.00    -0.358 N 
ATOM     19  H   UNL     1      -5.651   6.701   3.278  0.00  0.00    +0.142 HD
ATOM     20  H   UNL     1      -7.059   5.973   2.722  0.00  0.00    +0.142 HD
ENDBRANCH  16  18
ENDBRANCH   4  12
BRANCH   3  21
ATOM     21  C   UNL     1      -1.477   7.466  -0.329  0.00  0.00    +0.339 C 
ATOM     22  O   UNL     1      -1.222   8.239  -1.234  0.00  0.00    -0.245 OA
BRANCH  21  23
ATOM     23  O   UNL     1      -1.779   7.940   0.900  0.00  0.00    -0.459 OA
BRANCH  23  24
ATOM     24  C   UNL     1      -1.781   9.359   1.065  0.00  0.00    +0.171 C 
ATOM     25  C   UNL     1      -3.178   9.906   0.764  0.00  0.00    +0.052 C 
ATOM     26  C   UNL     1      -1.396   9.706   2.504  0.00  0.00    +0.052 C 
ENDBRANCH  23  24
ENDBRANCH  21  23
ENDBRANCH   3  21
TORSDOF 5
