REMARK  Name = ZINC12896444
REMARK  8 active torsions:
REMARK  status: ('A' for Active; 'I' for Inactive)
REMARK    1  A    between atoms: C_4  and  C_7
REMARK    2  A    between atoms: C_7  and  C_19
REMARK    3  A    between atoms: C_8  and  C_9
REMARK    4  A    between atoms: C_12  and  O_15
REMARK    5  A    between atoms: O_15  and  C_16
REMARK    6  A    between atoms: C_19  and  O_21
REMARK    7  A    between atoms: O_21  and  C_22
REMARK    8  A    between atoms: C_22  and  C_23
REMARK                            x       y       z     vdW  Elec       q    Type
REMARK                         _______ _______ _______ _____ _____    ______ ____
ROOT
ATOM      1  C   UNL     1       3.840  -0.511   0.041  0.00  0.00    +0.067 C 
ATOM      2  C   UNL     1       4.478  -0.659  -1.154  0.00  0.00    +0.023 C 
ENDROOT
BRANCH   1   6
ATOM      3  C   UNL     1       1.051   2.649   0.585  0.00  0.00    +0.000 A 
ATOM      4  C   UNL     1       2.390   2.938   0.392  0.00  0.00    +0.001 A 
ATOM      5  C   UNL     1       3.301   1.916   0.215  0.00  0.00    +0.009 A 
ATOM      6  C   UNL     1       2.868   0.590   0.231  0.00  0.00    -0.011 A 
ATOM      7  C   UNL     1       1.517   0.306   0.426  0.00  0.00    +0.009 A 
ATOM      8  C   UNL     1       0.616   1.336   0.602  0.00  0.00    +0.001 A 
ENDBRANCH   1   6
BRANCH   2   9
ATOM      9  C   UNL     1       4.091   0.172  -2.299  0.00  0.00    -0.024 A 
ATOM     10  C   UNL     1       2.746   0.506  -2.503  0.00  0.00    +0.011 A 
ATOM     11  C   UNL     1       2.389   1.290  -3.576  0.00  0.00    +0.046 A 
ATOM     12  C   UNL     1       3.360   1.741  -4.464  0.00  0.00    +0.127 A 
ATOM     13  C   UNL     1       4.696   1.408  -4.270  0.00  0.00    +0.046 A 
ATOM     14  C   UNL     1       5.065   0.629  -3.197  0.00  0.00    +0.011 A 
BRANCH  12  15
ATOM     15  O   UNL     1       3.002   2.509  -5.524  0.00  0.00    -0.434 OA
BRANCH  15  16
ATOM     16  C   UNL     1       1.613   2.815  -5.664  0.00  0.00    +0.541 C 
ATOM     17  F   UNL     1       0.885   1.627  -5.798  0.00  0.00    -0.166 F 
ATOM     18  F   UNL     1       1.171   3.507  -4.532  0.00  0.00    -0.166 F 
ENDBRANCH  15  16
ENDBRANCH  12  15
ENDBRANCH   2   9
BRANCH   1  19
ATOM     19  C   UNL     1       4.117  -1.444   1.141  0.00  0.00    +0.340 C 
ATOM     20  O   UNL     1       4.915  -2.348   0.986  0.00  0.00    -0.245 OA
BRANCH  19  21
ATOM     21  O   UNL     1       3.486  -1.298   2.324  0.00  0.00    -0.453 OA
BRANCH  21  22
ATOM     22  C   UNL     1       3.808  -2.256   3.366  0.00  0.00    +0.308 C 
BRANCH  22  23
ATOM     23  C   UNL     1       3.012  -1.937   4.606  0.00  0.00    +0.173 A 
ATOM     24  N   UNL     1       3.511  -1.119   5.516  0.00  0.00    -0.196 NA
ATOM     25  C   UNL     1       2.809  -0.831   6.610  0.00  0.00    +0.217 A 
ATOM     26  N   UNL     1       1.611  -1.375   6.791  0.00  0.00    -0.181 NA
ATOM     27  C   UNL     1       1.115  -2.200   5.875  0.00  0.00    +0.217 A 
ATOM     28  N   UNL     1       1.820  -2.479   4.782  0.00  0.00    -0.196 NA
ATOM     29  N   UNL     1      -0.130  -2.767   6.058  0.00  0.00    -0.327 N 
ATOM     30  N   UNL     1       3.329   0.026   7.558  0.00  0.00    -0.327 N 
ATOM     31  H   UNL     1      -0.491  -3.370   5.389  0.00  0.00    +0.145 HD
ATOM     32  H   UNL     1      -0.643  -2.563   6.855  0.00  0.00    +0.145 HD
ATOM     33  H   UNL     1       2.819   0.233   8.357  0.00  0.00    +0.145 HD
ATOM     34  H   UNL     1       4.204   0.423   7.426  0.00  0.00    +0.145 HD
ENDBRANCH  22  23
ENDBRANCH  21  22
ENDBRANCH  19  21
ENDBRANCH   1  19
TORSDOF 8
