REMARK  Name = ZINC46993671
REMARK  6 active torsions:
REMARK  status: ('A' for Active; 'I' for Inactive)
REMARK    1  A    between atoms: C_1  and  C_2
REMARK    2  A    between atoms: C_7  and  N_10
REMARK    3  A    between atoms: N_13  and  C_14
REMARK    4  A    between atoms: C_14  and  C_15
REMARK    5  A    between atoms: C_15  and  C_16
REMARK    6  A    between atoms: N_19  and  C_21
REMARK                            x       y       z     vdW  Elec       q    Type
REMARK                         _______ _______ _______ _____ _____    ______ ____
ROOT
ATOM      1  N   UNL     1       1.448  -2.513   0.028  0.00  0.00    -0.297 N 
ATOM      2  C   UNL     1       2.034  -3.727   0.018  0.00  0.00    +0.300 C 
ATOM      3  O   UNL     1       1.992  -4.431   1.008  0.00  0.00    -0.253 OA
ATOM      4  N   UNL     1       2.664  -4.162  -1.091  0.00  0.00    -0.299 N 
ATOM      5  H   UNL     1       1.482  -1.952  -0.763  0.00  0.00    +0.151 HD
ATOM      6  H   UNL     1       2.697  -3.601  -1.882  0.00  0.00    +0.150 HD
ENDROOT
BRANCH   1  12
ATOM      7  C   UNL     1      -0.019   1.526   0.010  0.00  0.00    +0.007 C 
ATOM      8  C   UNL     1       0.002  -0.004   0.002  0.00  0.00    -0.012 C 
ATOM      9  C   UNL     1      -1.433  -0.534   0.013  0.00  0.00    +0.003 C 
ATOM     10  C   UNL     1      -1.413  -2.063   0.004  0.00  0.00    +0.002 C 
ATOM     11  C   UNL     1      -0.673  -2.570   1.244  0.00  0.00    +0.022 C 
ATOM     12  C   UNL     1       0.763  -2.041   1.233  0.00  0.00    +0.075 C 
ATOM     13  C   UNL     1       0.742  -0.511   1.242  0.00  0.00    +0.025 C 
ENDBRANCH   1  12
BRANCH   4  14
ATOM     14  C   UNL     1       3.300  -5.482  -1.103  0.00  0.00    +0.110 C 
BRANCH  14  15
ATOM     15  C   UNL     1       3.940  -5.728  -2.470  0.00  0.00    +0.057 C 
BRANCH  15  16
ATOM     16  C   UNL     1       4.594  -7.086  -2.482  0.00  0.00    -0.008 A 
ATOM     17  C   UNL     1       5.914  -7.366  -2.115  0.00  0.00    +0.138 A 
ATOM     18  N   UNL     1       6.114  -8.651  -2.256  0.00  0.00    -0.180 NA
ATOM     19  N   UNL     1       4.925  -9.230  -2.719  0.00  0.00    -0.274 N 
ATOM     20  C   UNL     1       4.006  -8.249  -2.844  0.00  0.00    +0.111 A 
ATOM     21  C   UNL     1       4.714 -10.651  -3.010  0.00  0.00    +0.172 C 
ENDBRANCH  15  16
ENDBRANCH  14  15
ENDBRANCH   4  14
TORSDOF 4
