REMARK  Name = ZINC25171881
REMARK  8 active torsions:
REMARK  status: ('A' for Active; 'I' for Inactive)
REMARK    1  A    between atoms: C_1  and  C_2
REMARK    2  A    between atoms: C_6  and  C_12
REMARK    3  A    between atoms: C_10  and  C_11
REMARK    4  A    between atoms: C_12  and  C_13
REMARK    5  A    between atoms: N_15  and  C_16
REMARK    6  A    between atoms: C_16  and  C_22
REMARK    7  A    between atoms: C_22  and  O_24
REMARK    8  A    between atoms: O_24  and  C_25
REMARK                            x       y       z     vdW  Elec       q    Type
REMARK                         _______ _______ _______ _____ _____    ______ ____
ROOT
ATOM      1  C   UNL     1      -2.660   1.198  -0.406  0.00  0.00    +0.218 C 
ATOM      2  O   UNL     1      -2.152   1.719   0.564  0.00  0.00    -0.275 OA
ATOM      3  N   UNL     1      -2.299  -0.049  -0.768  0.00  0.00    -0.300 N 
ATOM      4  H   UNL     1      -2.759  -0.521  -1.649  0.00  0.00    +0.150 HD
ENDROOT
BRANCH   3   5
ATOM      5  C   UNL     1      -1.293  -0.775   0.010  0.00  0.00    +0.132 C 
ATOM      6  C   UNL     1      -1.781  -0.936   1.451  0.00  0.00    +0.037 C 
ATOM      7  C   UNL     1      -3.096  -1.719   1.460  0.00  0.00    +0.003 C 
ATOM      8  C   UNL     1      -2.871  -3.100   0.840  0.00  0.00    +0.000 C 
ATOM      9  C   UNL     1      -2.382  -2.939  -0.601  0.00  0.00    +0.003 C 
ATOM     10  C   UNL     1      -1.068  -2.156  -0.609  0.00  0.00    +0.037 C 
BRANCH   5  11
ATOM     11  C   UNL     1       0.002  -0.004   0.002  0.00  0.00    +0.331 C 
ATOM     12  O   UNL     1       1.056  -0.594  -0.011  0.00  0.00    -0.248 OA
BRANCH  11  13
ATOM     13  O   UNL     1      -0.016   1.338   0.009  0.00  0.00    -0.466 OA
ATOM     14  C   UNL     1       1.268   2.015   0.001  0.00  0.00    +0.280 C 
ENDBRANCH  11  13
ENDBRANCH   5  11
ENDBRANCH   3   5
BRANCH   1  15
ATOM     15  C   UNL     1      -3.695   1.945  -1.207  0.00  0.00    +0.134 C 
BRANCH  15  21
ATOM     16  C   UNL     1      -1.536   8.479  -0.885  0.00  0.00    +0.044 C 
ATOM     17  C   UNL     1      -2.106   7.084  -0.867  0.00  0.00    -0.044 A 
ATOM     18  C   UNL     1      -1.526   6.096  -1.649  0.00  0.00    +0.004 A 
ATOM     19  C   UNL     1      -2.030   4.824  -1.643  0.00  0.00    +0.012 A 
ATOM     20  C   UNL     1      -3.129   4.520  -0.842  0.00  0.00    +0.024 A 
ATOM     21  C   UNL     1      -3.917   3.305  -0.598  0.00  0.00    +0.007 A 
ATOM     22  C   UNL     1      -4.868   3.648   0.282  0.00  0.00    +0.200 A 
ATOM     23  O   UNL     1      -4.756   4.948   0.603  0.00  0.00    -0.462 OA
ATOM     24  C   UNL     1      -3.724   5.518  -0.052  0.00  0.00    +0.138 A 
ATOM     25  C   UNL     1      -3.197   6.803  -0.072  0.00  0.00    -0.005 A 
ATOM     26  C   UNL     1      -3.816   7.887   0.772  0.00  0.00    +0.048 C 
ENDBRANCH  15  21
ENDBRANCH   1  15
TORSDOF 5
