REMARK  Name = ZINC44021532
REMARK  8 active torsions:
REMARK  status: ('A' for Active; 'I' for Inactive)
REMARK    1  A    between atoms: C_1  and  C_2
REMARK    2  A    between atoms: C_11  and  C_28
REMARK    3  A    between atoms: C_11  and  O_32
REMARK    4  A    between atoms: C_12  and  C_27
REMARK    5  A    between atoms: C_14  and  O_26
REMARK    6  A    between atoms: C_18  and  C_25
REMARK    7  A    between atoms: C_28  and  C_30
REMARK    8  A    between atoms: C_30  and  O_31
REMARK                            x       y       z     vdW  Elec       q    Type
REMARK                         _______ _______ _______ _____ _____    ______ ____
ROOT
ATOM      1  C   UNL     1       0.185   1.790  -0.439  0.00  0.00    +0.012 C 
ATOM      2  C   UNL     1       0.112   0.265  -0.353  0.00  0.00    +0.013 C 
ATOM      3  C   UNL     1       0.835  -0.339  -1.563  0.00  0.00    +0.012 C 
ATOM      4  C   UNL     1       1.039  -1.819  -1.250  0.00  0.00    -0.000 C 
ATOM      5  C   UNL     1       1.242  -2.704  -2.432  0.00  0.00    +0.002 C 
ATOM      6  C   UNL     1       0.303  -2.557  -3.634  0.00  0.00    +0.008 C 
ATOM      7  C   UNL     1       1.033  -3.380  -4.734  0.00  0.00    +0.043 C 
ATOM      8  C   UNL     1       2.510  -3.508  -4.280  0.00  0.00    +0.131 C 
ATOM      9  C   UNL     1       2.629  -2.544  -3.087  0.00  0.00    +0.009 C 
ATOM     10  C   UNL     1       3.679  -2.898  -2.061  0.00  0.00    +0.041 C 
ATOM     11  C   UNL     1       3.560  -1.916  -0.875  0.00  0.00    +0.120 C 
ATOM     12  C   UNL     1       2.184  -1.963  -0.244  0.00  0.00    +0.035 C 
ATOM     13  C   UNL     1       1.986  -1.062   0.949  0.00  0.00    +0.013 C 
ATOM     14  C   UNL     1       0.771  -0.199   0.923  0.00  0.00    -0.053 C 
ATOM     15  C   UNL     1       0.220   0.245   2.066  0.00  0.00    +0.051 C 
ATOM     16  C   UNL     1       0.779  -0.184   3.365  0.00  0.00    +0.179 C 
ATOM     17  O   UNL     1       0.528   0.422   4.402  0.00  0.00    -0.288 OA
ATOM     18  C   UNL     1       1.631  -1.394   3.376  0.00  0.00    +0.047 C 
ATOM     19  C   UNL     1       2.172  -1.818   2.231  0.00  0.00    -0.012 C 
ATOM     20  C   UNL     1       3.135  -0.051   0.957  0.00  0.00    +0.020 C 
ATOM     21  C   UNL     1       2.865  -1.144  -3.649  0.00  0.00    +0.015 C 
ENDROOT
BRANCH  11  22
ATOM     22  O   UNL     1       4.543  -2.329   0.088  0.00  0.00    -0.391 OA
ATOM     23  H   UNL     1       5.451  -2.312  -0.244  0.00  0.00    +0.210 HD
ENDBRANCH  11  22
BRANCH   8  24
ATOM     24  C   UNL     1       3.438  -3.076  -5.383  0.00  0.00    +0.190 C 
ATOM     25  O   UNL     1       3.051  -2.312  -6.234  0.00  0.00    -0.292 OA
BRANCH  24  26
ATOM     26  C   UNL     1       4.851  -3.598  -5.425  0.00  0.00    +0.233 C 
BRANCH  26  27
ATOM     27  O   UNL     1       5.529  -3.047  -6.556  0.00  0.00    -0.387 OA
ATOM     28  H   UNL     1       6.446  -3.340  -6.647  0.00  0.00    +0.210 HD
ENDBRANCH  26  27
ENDBRANCH  24  26
ENDBRANCH   8  24
BRANCH   8  29
ATOM     29  O   UNL     1       2.797  -4.841  -3.868  0.00  0.00    -0.380 OA
ATOM     30  H   UNL     1       2.686  -5.501  -4.565  0.00  0.00    +0.211 HD
ENDBRANCH   8  29
TORSDOF 5
