REMARK  Name = ZINC20504108
REMARK  7 active torsions:
REMARK  status: ('A' for Active; 'I' for Inactive)
REMARK    1  A    between atoms: C_4  and  N_7
REMARK    2  A    between atoms: C_10  and  C_24
REMARK    3  A    between atoms: C_13  and  O_23
REMARK    4  A    between atoms: C_15  and  O_22
REMARK    5  A    between atoms: N_26  and  C_27
REMARK    6  A    between atoms: C_27  and  C_28
REMARK    7  A    between atoms: C_28  and  N_29
REMARK                            x       y       z     vdW  Elec       q    Type
REMARK                         _______ _______ _______ _____ _____    ______ ____
ROOT
ATOM      1  N   UNL     1      -1.098   3.742   2.314  0.00  0.00    -0.277 N 
ATOM      2  C   UNL     1      -1.431   2.696   1.347  0.00  0.00    +0.115 C 
ATOM      3  C   UNL     1      -0.387   1.652   1.169  0.00  0.00    +0.100 C 
ATOM      4  C   UNL     1       0.544   1.850  -0.004  0.00  0.00    +0.048 C 
ATOM      5  C   UNL     1      -0.207   2.231  -1.262  0.00  0.00    +0.146 C 
ATOM      6  C   UNL     1      -1.066   3.455  -1.072  0.00  0.00    +0.165 C 
ATOM      7  C   UNL     1      -1.972   3.422   0.137  0.00  0.00    +0.124 C 
ATOM      8  N   UNL     1      -2.132   4.813   0.627  0.00  0.00    -0.319 N 
ATOM      9  C   UNL     1      -1.570   4.909   1.841  0.00  0.00    +0.138 C 
ATOM     10  S   UNL     1      -1.466   6.380   2.710  0.00  0.00    -0.018 S 
ATOM     11  H   UNL     1      -2.647   5.559   0.005  0.00  0.00    +0.148 HD
ENDROOT
BRANCH   1  15
ATOM     12  C   UNL     1       0.955   3.201   5.898  0.00  0.00    +0.000 A 
ATOM     13  C   UNL     1       1.536   3.924   4.872  0.00  0.00    +0.002 A 
ATOM     14  C   UNL     1       0.858   4.105   3.683  0.00  0.00    +0.023 A 
ATOM     15  C   UNL     1      -0.409   3.560   3.517  0.00  0.00    +0.036 A 
ATOM     16  C   UNL     1      -0.992   2.840   4.552  0.00  0.00    +0.023 A 
ATOM     17  C   UNL     1      -0.307   2.658   5.737  0.00  0.00    +0.002 A 
ENDBRANCH   1  15
BRANCH   3  18
ATOM     18  C   UNL     1       0.442   1.598   2.426  0.00  0.00    +0.218 C 
ATOM     19  O   UNL     1       1.339   2.397   2.596  0.00  0.00    -0.275 OA
ATOM     20  N   UNL     1       0.187   0.663   3.363  0.00  0.00    -0.314 N 
ATOM     21  H   UNL     1      -0.670  -0.016   3.243  0.00  0.00    +0.149 HD
BRANCH  20  22
ATOM     22  C   UNL     1       1.051   0.551   4.540  0.00  0.00    +0.119 C 
BRANCH  22  23
ATOM     23  C   UNL     1       0.432  -0.434   5.535  0.00  0.00    +0.103 C 
BRANCH  23  24
ATOM     24  N   UNL     1       1.298  -0.547   6.716  0.00  0.00    -0.297 NA
ATOM     25  C   UNL     1       2.583  -1.171   6.369  0.00  0.00    +0.112 C 
ATOM     26  C   UNL     1       3.476  -1.214   7.612  0.00  0.00    +0.175 C 
ATOM     27  O   UNL     1       2.796  -1.917   8.656  0.00  0.00    -0.377 OA
ATOM     28  C   UNL     1       1.541  -1.336   9.020  0.00  0.00    +0.175 C 
ATOM     29  C   UNL     1       0.629  -1.294   7.791  0.00  0.00    +0.112 C 
ENDBRANCH  23  24
ENDBRANCH  22  23
ENDBRANCH  20  22
ENDBRANCH   3  18
BRANCH   6  30
ATOM     30  O   UNL     1      -0.208   4.593  -0.960  0.00  0.00    -0.387 OA
ATOM     31  H   UNL     1      -0.639   5.594  -0.815  0.00  0.00    +0.210 HD
ENDBRANCH   6  30
BRANCH   5  32
ATOM     32  O   UNL     1      -1.041   1.137  -1.651  0.00  0.00    -0.389 OA
ATOM     33  H   UNL     1      -1.671   1.219  -2.549  0.00  0.00    +0.210 HD
ENDBRANCH   5  32
TORSDOF 7
