REMARK  Name = ZINC59987501
REMARK  5 active torsions:
REMARK  status: ('A' for Active; 'I' for Inactive)
REMARK    1  A    between atoms: C_5  and  C_7
REMARK    2  A    between atoms: N_9  and  C_10
REMARK    3  A    between atoms: C_10  and  C_11
REMARK    4  A    between atoms: N_13  and  C_14
REMARK    5  A    between atoms: C_17  and  C_20
REMARK                            x       y       z     vdW  Elec       q    Type
REMARK                         _______ _______ _______ _____ _____    ______ ____
ROOT
ATOM      1  C   UNL     1      -1.227  -5.000   0.572  0.00  0.00    +0.234 C 
ATOM      2  O   UNL     1      -2.107  -4.368   1.117  0.00  0.00    -0.274 OA
ATOM      3  N   UNL     1      -1.510  -6.179  -0.017  0.00  0.00    -0.284 N 
ATOM      4  H   UNL     1      -0.822  -6.652  -0.510  0.00  0.00    +0.155 HD
ENDROOT
BRANCH   3   5
ATOM      5  C   UNL     1      -2.796  -6.720   0.084  0.00  0.00    +0.033 A 
ATOM      6  C   UNL     1      -3.904  -5.881   0.088  0.00  0.00    +0.024 A 
ATOM      7  C   UNL     1      -5.173  -6.412   0.186  0.00  0.00    +0.012 A 
ATOM      8  C   UNL     1      -5.344  -7.792   0.282  0.00  0.00    -0.000 A 
ATOM      9  C   UNL     1      -4.231  -8.632   0.278  0.00  0.00    +0.012 A 
ATOM     10  C   UNL     1      -2.965  -8.097   0.173  0.00  0.00    +0.024 A 
BRANCH   8  11
ATOM     11  C   UNL     1      -6.707  -8.366   0.389  0.00  0.00    +0.064 A 
ATOM     12  C   UNL     1      -7.874  -7.666   0.399  0.00  0.00    +0.113 A 
ATOM     13  N   UNL     1      -8.876  -8.582   0.511  0.00  0.00    -0.335 N 
ATOM     14  C   UNL     1      -8.305  -9.809   0.567  0.00  0.00    +0.087 A 
ATOM     15  N   UNL     1      -7.014  -9.677   0.487  0.00  0.00    -0.343 N 
ATOM     16  C   UNL     1      -9.084 -11.098   0.695  0.00  0.00    +0.072 C 
ATOM     17  C   UNL     1     -10.509 -10.753   1.145  0.00  0.00    +0.009 C 
ATOM     18  C   UNL     1     -11.061  -9.632   0.259  0.00  0.00    +0.022 C 
ATOM     19  C   UNL     1     -10.318  -8.327   0.563  0.00  0.00    +0.123 C 
ATOM     20  H   UNL     1      -6.372 -10.405   0.499  0.00  0.00    +0.167 HD
ENDBRANCH   8  11
ENDBRANCH   3   5
BRANCH   1  21
ATOM     21  C   UNL     1       0.182  -4.467   0.553  0.00  0.00    +0.200 C 
BRANCH  21  24
ATOM     22  C   UNL     1       1.394  -2.515   1.364  0.00  0.00    +0.246 C 
ATOM     23  O   UNL     1       2.408  -2.980   0.881  0.00  0.00    -0.270 OA
ATOM     24  N   UNL     1       0.228  -3.182   1.254  0.00  0.00    -0.303 N 
ATOM     25  H   UNL     1      -0.581  -2.810   1.639  0.00  0.00    +0.150 HD
BRANCH  22  30
ATOM     26  C   UNL     1       0.327   0.531   3.284  0.00  0.00    +0.001 A 
ATOM     27  C   UNL     1       1.525   1.214   3.395  0.00  0.00    +0.001 A 
ATOM     28  C   UNL     1       2.681   0.688   2.848  0.00  0.00    +0.016 A 
ATOM     29  C   UNL     1       2.646  -0.524   2.186  0.00  0.00    +0.030 A 
ATOM     30  C   UNL     1       1.440  -1.218   2.071  0.00  0.00    +0.051 A 
ATOM     31  C   UNL     1       0.277  -0.680   2.626  0.00  0.00    +0.014 A 
ATOM     32 BR   UNL     1       4.228  -1.242   1.438  0.00  0.00    -0.050 Br
ENDBRANCH  22  30
ENDBRANCH  21  24
ENDBRANCH   1  21
TORSDOF 5
