REMARK  Name = ZINC10000760
REMARK  13 active torsions:
REMARK  status: ('A' for Active; 'I' for Inactive)
REMARK    1  A    between atoms: C_1  and  C_2
REMARK    2  A    between atoms: C_2  and  C_3
REMARK    3  A    between atoms: C_2  and  C_4
REMARK    4  A    between atoms: C_4  and  C_6
REMARK    5  A    between atoms: C_4  and  N_24
REMARK    6  A    between atoms: N_8  and  N_9
REMARK    7  A    between atoms: C_10  and  C_11
REMARK    8  A    between atoms: C_15  and  O_22
REMARK    9  A    between atoms: C_16  and  O_17
REMARK   10  A    between atoms: O_17  and  C_18
REMARK   11  A    between atoms: C_18  and  C_19
REMARK   12  A    between atoms: O_22  and  C_23
REMARK   13  A    between atoms: C_25  and  C_27
REMARK                            x       y       z     vdW  Elec       q    Type
REMARK                         _______ _______ _______ _____ _____    ______ ____
ROOT
ATOM      1  C   UNL     1      -2.545  -4.357   0.069  0.00  0.00    +0.253 C 
ATOM      2  O   UNL     1      -1.487  -4.942   0.170  0.00  0.00    -0.272 OA
ATOM      3  N   UNL     1      -3.700  -5.051   0.056  0.00  0.00    -0.205 N 
ATOM      4  H   UNL     1      -4.540  -4.591  -0.098  0.00  0.00    +0.177 HD
ENDROOT
BRANCH   3   5
ATOM      5  N   UNL     1      -3.688  -6.436   0.264  0.00  0.00    -0.188 NA
ATOM      6  C   UNL     1      -4.800  -7.104   0.251  0.00  0.00    +0.142 C 
BRANCH   6   7
ATOM      7  C   UNL     1      -4.787  -8.562   0.471  0.00  0.00    +0.040 A 
ATOM      8  C   UNL     1      -5.983  -9.285   0.458  0.00  0.00    +0.013 A 
ATOM      9  C   UNL     1      -5.967 -10.648   0.663  0.00  0.00    +0.004 A 
ATOM     10  C   UNL     1      -4.770 -11.307   0.883  0.00  0.00    +0.049 A 
ATOM     11  C   UNL     1      -3.576 -10.603   0.898  0.00  0.00    +0.162 A 
ATOM     12  C   UNL     1      -3.576  -9.229   0.687  0.00  0.00    +0.171 A 
BRANCH  11  13
ATOM     13  O   UNL     1      -2.403 -11.258   1.115  0.00  0.00    -0.491 OA
ATOM     14  C   UNL     1      -2.477 -12.670   1.318  0.00  0.00    +0.277 C 
ENDBRANCH  11  13
BRANCH  12  15
ATOM     15  O   UNL     1      -2.407  -8.537   0.697  0.00  0.00    -0.478 OA
BRANCH  15  16
ATOM     16  C   UNL     1      -1.969  -8.019   1.954  0.00  0.00    +0.324 C 
BRANCH  16  17
ATOM     17  C   UNL     1      -0.665  -7.287   1.770  0.00  0.00    +0.248 C 
ATOM     18  O   UNL     1      -0.160  -7.216   0.670  0.00  0.00    -0.272 OA
ATOM     19  N   UNL     1      -0.060  -6.711   2.828  0.00  0.00    -0.327 N 
ATOM     20  H   UNL     1      -0.464  -6.768   3.708  0.00  0.00    +0.145 HD
ATOM     21  H   UNL     1       0.779  -6.240   2.709  0.00  0.00    +0.145 HD
ENDBRANCH  16  17
ENDBRANCH  15  16
ENDBRANCH  12  15
ENDBRANCH   6   7
ENDBRANCH   3   5
BRANCH   1  22
ATOM     22  C   UNL     1      -2.567  -2.854  -0.041  0.00  0.00    +0.163 C 
BRANCH  22  23
ATOM     23  N   UNL     1      -1.394  -2.297   0.636  0.00  0.00    -0.300 N 
ATOM     24  C   UNL     1      -1.426  -1.037   1.114  0.00  0.00    +0.246 C 
ATOM     25  O   UNL     1      -2.429  -0.363   0.982  0.00  0.00    -0.270 OA
ATOM     26  H   UNL     1      -0.594  -2.835   0.742  0.00  0.00    +0.150 HD
BRANCH  24  27
ATOM     27  C   UNL     1      -0.242  -0.476   1.797  0.00  0.00    +0.055 A 
ATOM     28  C   UNL     1       0.911  -1.247   1.950  0.00  0.00    +0.014 A 
ATOM     29  C   UNL     1       2.012  -0.717   2.589  0.00  0.00    +0.001 A 
ATOM     30  C   UNL     1       1.977   0.578   3.078  0.00  0.00    +0.001 A 
ATOM     31  C   UNL     1       0.838   1.348   2.931  0.00  0.00    +0.021 A 
ATOM     32  C   UNL     1      -0.273   0.830   2.293  0.00  0.00    +0.053 A 
ATOM     33 CL   UNL     1      -1.699   1.801   2.103  0.00  0.00    -0.083 Cl
ENDBRANCH  24  27
ENDBRANCH  22  23
BRANCH  22  35
ATOM     34  C   UNL     1      -3.795  -2.988  -2.213  0.00  0.00    +0.009 C 
ATOM     35  C   UNL     1      -2.543  -2.451  -1.517  0.00  0.00    +0.012 C 
ATOM     36  C   UNL     1      -2.513  -0.925  -1.628  0.00  0.00    +0.009 C 
ENDBRANCH  22  35
ENDBRANCH   1  22
TORSDOF 10
