REMARK  Name = ZINC66222468
REMARK  7 active torsions:
REMARK  status: ('A' for Active; 'I' for Inactive)
REMARK    1  A    between atoms: C_1  and  C_2
REMARK    2  A    between atoms: C_4  and  C_25
REMARK    3  A    between atoms: C_6  and  N_8
REMARK    4  A    between atoms: C_9  and  C_11
REMARK    5  A    between atoms: C_17  and  C_20
REMARK    6  A    between atoms: C_20  and  C_21
REMARK    7  A    between atoms: C_21  and  C_22
REMARK                            x       y       z     vdW  Elec       q    Type
REMARK                         _______ _______ _______ _____ _____    ______ ____
ROOT
ATOM      1  C   UNL     1       0.278  -2.893   4.840  0.00  0.00    +0.302 C 
ATOM      2  O   UNL     1       0.317  -4.106   4.823  0.00  0.00    -0.265 OA
ATOM      3  N   UNL     1       0.274  -2.236   6.017  0.00  0.00    -0.294 N 
ATOM      4  C   UNL     1       0.249  -0.767   6.054  0.00  0.00    +0.108 C 
ATOM      5  C   UNL     1      -0.920  -0.316   6.934  0.00  0.00    +0.019 C 
ATOM      6  C   UNL     1      -0.803  -0.977   8.309  0.00  0.00    +0.006 C 
ATOM      7  C   UNL     1      -0.874  -2.498   8.154  0.00  0.00    +0.007 C 
ATOM      8  C   UNL     1       0.290  -2.974   7.287  0.00  0.00    +0.111 C 
ENDROOT
BRANCH   1  10
ATOM      9  N   UNL     1       0.097  -2.784   2.388  0.00  0.00    -0.278 N 
ATOM     10  C   UNL     1       0.233  -2.129   3.558  0.00  0.00    +0.303 C 
ATOM     11  O   UNL     1       0.318  -0.918   3.569  0.00  0.00    -0.265 OA
ATOM     12  H   UNL     1      -0.048  -3.743   2.382  0.00  0.00    +0.155 HD
BRANCH   9  18
ATOM     13  C   UNL     1      -1.367  -2.221  -2.270  0.00  0.00    +0.044 C 
ATOM     14  C   UNL     1      -0.532  -1.786  -1.093  0.00  0.00    -0.048 A 
ATOM     15  C   UNL     1       0.304  -0.691  -1.207  0.00  0.00    +0.006 A 
ATOM     16  C   UNL     1       1.071  -0.289  -0.129  0.00  0.00    -0.048 A 
ATOM     17  C   UNL     1       1.005  -0.980   1.065  0.00  0.00    +0.026 A 
ATOM     18  C   UNL     1       0.166  -2.081   1.182  0.00  0.00    +0.034 A 
ATOM     19  C   UNL     1      -0.608  -2.479   0.099  0.00  0.00    +0.026 A 
ATOM     20  C   UNL     1       1.982   0.906  -0.257  0.00  0.00    +0.044 C 
ENDBRANCH   9  18
ENDBRANCH   1  10
BRANCH   7  21
ATOM     21  C   UNL     1      -0.791  -3.157   9.532  0.00  0.00    +0.014 C 
BRANCH  21  22
ATOM     22  C   UNL     1      -0.987  -4.668   9.388  0.00  0.00    +0.096 C 
BRANCH  22  23
ATOM     23  C   UNL     1      -0.905  -5.317  10.745  0.00  0.00    +0.210 C 
ATOM     24  O   UNL     1      -0.708  -4.638  11.731  0.00  0.00    -0.276 OA
ATOM     25  N   UNL     1      -1.049  -6.651  10.864  0.00  0.00    -0.329 N 
ATOM     26  H   UNL     1      -1.206  -7.194  10.076  0.00  0.00    +0.145 HD
ATOM     27  H   UNL     1      -0.996  -7.069  11.738  0.00  0.00    +0.145 HD
ENDBRANCH  22  23
ENDBRANCH  21  22
ENDBRANCH   7  21
TORSDOF 5
