REMARK  Name = ZINC63105079
REMARK  6 active torsions:
REMARK  status: ('A' for Active; 'I' for Inactive)
REMARK    1  A    between atoms: C_1  and  C_2
REMARK    2  A    between atoms: C_2  and  O_3
REMARK    3  A    between atoms: O_3  and  C_4
REMARK    4  A    between atoms: C_8  and  O_10
REMARK    5  A    between atoms: O_10  and  C_11
REMARK    6  A    between atoms: C_16  and  N_20
REMARK                            x       y       z     vdW  Elec       q    Type
REMARK                         _______ _______ _______ _____ _____    ______ ____
ROOT
ATOM      1  C   UNL     1       2.571  -3.342  -4.660  0.00  0.00    +0.263 A 
ATOM      2  N   UNL     1       2.541  -2.031  -4.651  0.00  0.00    -0.206 NA
ATOM      3  C   UNL     1       2.996  -1.286  -5.684  0.00  0.00    +0.082 A 
ATOM      4  C   UNL     1       3.019   0.123  -5.799  0.00  0.00    +0.031 A 
ATOM      5  C   UNL     1       3.513   0.725  -6.914  0.00  0.00    +0.025 A 
ATOM      6  C   UNL     1       4.015  -0.016  -7.982  0.00  0.00    +0.026 A 
ATOM      7  C   UNL     1       4.009  -1.403  -7.905  0.00  0.00    +0.040 A 
ATOM      8  C   UNL     1       3.510  -2.013  -6.781  0.00  0.00    +0.044 A 
ATOM      9  S   UNL     1       3.310  -3.696  -6.248  0.00  0.00    -0.029 S 
ENDROOT
BRANCH   6  10
ATOM     10  N   UNL     1       4.517   0.629  -9.117  0.00  0.00    -0.358 N 
ATOM     11  H   UNL     1       4.518   1.598  -9.164  0.00  0.00    +0.142 HD
ATOM     12  H   UNL     1       4.865   0.107  -9.857  0.00  0.00    +0.142 HD
ENDBRANCH   6  10
BRANCH   1  13
ATOM     13  O   UNL     1       2.155  -4.207  -3.706  0.00  0.00    -0.432 OA
BRANCH  13  18
ATOM     14  C   UNL     1       0.626  -1.826  -1.413  0.00  0.00    +0.124 A 
ATOM     15  C   UNL     1       0.301  -2.663  -0.355  0.00  0.00    +0.046 A 
ATOM     16  C   UNL     1       0.596  -4.011  -0.422  0.00  0.00    +0.007 A 
ATOM     17  C   UNL     1       1.216  -4.529  -1.543  0.00  0.00    +0.046 A 
ATOM     18  C   UNL     1       1.544  -3.697  -2.604  0.00  0.00    +0.134 A 
ATOM     19  C   UNL     1       1.243  -2.345  -2.541  0.00  0.00    +0.092 A 
BRANCH  14  20
ATOM     20  O   UNL     1       0.336  -0.500  -1.347  0.00  0.00    -0.492 OA
BRANCH  20  22
ATOM     21  C   UNL     1      -0.546   1.471  -0.262  0.00  0.00    +0.048 C 
ATOM     22  C   UNL     1      -0.300  -0.035  -0.154  0.00  0.00    +0.225 C 
ENDBRANCH  20  22
ENDBRANCH  14  20
ENDBRANCH  13  18
ENDBRANCH   1  13
TORSDOF 5
