REMARK  Name = ZINC09389487
REMARK  9 active torsions:
REMARK  status: ('A' for Active; 'I' for Inactive)
REMARK    1  A    between atoms: C_1  and  C_2
REMARK    2  A    between atoms: C_2  and  C_4
REMARK    3  A    between atoms: C_2  and  N_52
REMARK    4  A    between atoms: C_7  and  S_10
REMARK    5  A    between atoms: S_10  and  N_13
REMARK    6  A    between atoms: C_14  and  C_15
REMARK    7  A    between atoms: C_14  and  N_52
REMARK    8  A    between atoms: N_17  and  C_18
REMARK    9  A    between atoms: C_19  and  C_28
REMARK                            x       y       z     vdW  Elec       q    Type
REMARK                         _______ _______ _______ _____ _____    ______ ____
ROOT
ATOM      1  C   UNL     1      -4.720   4.768   5.585  0.00  0.00    +0.016 C 
ENDROOT
BRANCH   1   2
ATOM      2  C   UNL     1      -5.091   6.221   5.434  0.00  0.00    +0.201 C 
ATOM      3  O   UNL     1      -4.425   6.947   4.728  0.00  0.00    -0.278 OA
ATOM      4  N   UNL     1      -6.164   6.713   6.085  0.00  0.00    -0.281 N 
ATOM      5  H   UNL     1      -6.698   6.133   6.650  0.00  0.00    +0.155 HD
BRANCH   4   6
ATOM      6  C   UNL     1      -6.506   8.051   5.946  0.00  0.00    +0.090 A 
ATOM      7  C   UNL     1      -7.565   8.734   6.522  0.00  0.00    +0.084 A 
ATOM      8  C   UNL     1      -7.703  10.152   6.220  0.00  0.00    -0.018 A 
ATOM      9  C   UNL     1      -6.770  10.647   5.378  0.00  0.00    -0.004 A 
ATOM     10  S   UNL     1      -5.718   9.272   5.003  0.00  0.00    -0.077 S 
ATOM     11  C   UNL     1      -6.656  12.047   4.860  0.00  0.00    +0.043 C 
ATOM     12  C   UNL     1      -6.767  13.031   6.032  0.00  0.00    +0.005 C 
ATOM     13  C   UNL     1      -8.239  13.380   6.230  0.00  0.00    +0.001 C 
ATOM     14  C   UNL     1      -9.116  12.181   5.879  0.00  0.00    +0.005 C 
ATOM     15  C   UNL     1      -8.815  11.010   6.809  0.00  0.00    +0.037 C 
BRANCH   7  16
ATOM     16  C   UNL     1      -8.490   8.069   7.389  0.00  0.00    +0.102 C 
ATOM     17  N   UNL     1      -9.224   7.541   8.077  0.00  0.00    -0.191 NA
ENDBRANCH   7  16
ENDBRANCH   4   6
ENDBRANCH   1   2
BRANCH   1  18
ATOM     18  N   UNL     1      -3.518   4.490   4.776  0.00  0.00    +0.389 N 
ATOM     19  H   UNL     1      -3.718   4.698   3.791  0.00  0.00    -0.084 HD
ATOM     20  H   UNL     1      -2.746   5.083   5.102  0.00  0.00    -0.084 HD
BRANCH  18  22
ATOM     21  C   UNL     1      -2.260   2.892   6.150  0.00  0.00    -0.009 C 
ATOM     22  C   UNL     1      -3.132   3.072   4.905  0.00  0.00    -0.043 C 
BRANCH  22  23
ATOM     23  C   UNL     1      -2.354   2.659   3.683  0.00  0.00    -0.062 A 
ATOM     24  C   UNL     1      -2.559   1.412   3.122  0.00  0.00    +0.004 A 
ATOM     25  C   UNL     1      -1.846   1.033   2.000  0.00  0.00    +0.029 A 
ATOM     26  C   UNL     1      -0.927   1.900   1.439  0.00  0.00    +0.105 A 
ATOM     27  C   UNL     1      -0.717   3.145   2.004  0.00  0.00    +0.029 A 
ATOM     28  C   UNL     1      -1.434   3.526   3.123  0.00  0.00    +0.004 A 
BRANCH  26  29
ATOM     29  S   UNL     1      -0.017   1.417   0.010  0.00  0.00    +0.056 S 
ATOM     30  O   UNL     1       0.002  -0.004   0.002  0.00  0.00    -0.153 OA
ATOM     31  O   UNL     1       1.172   2.195   0.003  0.00  0.00    -0.153 OA
BRANCH  29  32
ATOM     32  N   UNL     1      -0.897   1.885  -1.312  0.00  0.00    -0.204 NA
ATOM     33  H   UNL     1      -1.747   2.338  -1.194  0.00  0.00    +0.144 HD
ATOM     34  H   UNL     1      -0.563   1.708  -2.205  0.00  0.00    +0.144 HD
ENDBRANCH  29  32
ENDBRANCH  26  29
ENDBRANCH  22  23
ENDBRANCH  18  22
ENDBRANCH   1  18
TORSDOF 8
