REMARK  Name = ZINC22265129
REMARK  7 active torsions:
REMARK  status: ('A' for Active; 'I' for Inactive)
REMARK    1  A    between atoms: C_1  and  C_2
REMARK    2  A    between atoms: C_3  and  C_30
REMARK    3  A    between atoms: C_11  and  C_13
REMARK    4  A    between atoms: C_13  and  C_15
REMARK    5  A    between atoms: C_13  and  S_16
REMARK    6  A    between atoms: S_16  and  C_17
REMARK    7  A    between atoms: C_20  and  C_23
REMARK                            x       y       z     vdW  Elec       q    Type
REMARK                         _______ _______ _______ _____ _____    ______ ____
ROOT
ATOM      1  C   UNL     1       0.090  -3.432   4.547  0.00  0.00    +0.117 C 
ATOM      2  C   UNL     1       1.535  -3.832   4.850  0.00  0.00    +0.027 C 
ENDROOT
BRANCH   1  13
ATOM      3  C   UNL     1      -0.018   1.503   0.010  0.00  0.00    +0.045 C 
ATOM      4  C   UNL     1       0.002  -0.004   0.002  0.00  0.00    -0.026 A 
ATOM      5  C   UNL     1       0.006  -0.677  -1.160  0.00  0.00    -0.008 A 
ATOM      6  S   UNL     1       0.032  -2.385  -0.648  0.00  0.00    -0.073 S 
ATOM      7  C   UNL     1       0.037  -2.144   1.110  0.00  0.00    +0.116 A 
ATOM      8  C   UNL     1       0.024  -0.745   1.250  0.00  0.00    +0.075 A 
ATOM      9  C   UNL     1       0.029  -0.257   2.597  0.00  0.00    +0.260 A 
ATOM     10  O   UNL     1       0.014   0.942   2.821  0.00  0.00    -0.267 OA
ATOM     11  N   UNL     1       0.051  -1.142   3.611  0.00  0.00    -0.309 N 
ATOM     12  H   UNL     1       0.054  -0.817   4.525  0.00  0.00    +0.170 HD
ATOM     13  C   UNL     1       0.067  -2.480   3.380  0.00  0.00    +0.124 A 
ATOM     14  N   UNL     1       0.053  -2.956   2.163  0.00  0.00    -0.225 NA
ATOM     15  C   UNL     1      -0.009  -0.122  -2.561  0.00  0.00    +0.052 C 
ENDBRANCH   1  13
BRANCH   1  16
ATOM     16  S   UNL     1      -0.631  -2.623   6.002  0.00  0.00    -0.077 S 
BRANCH  16  17
ATOM     17  C   UNL     1      -0.668  -3.894   7.222  0.00  0.00    +0.168 A 
ATOM     18  N   UNL     1      -0.253  -5.126   7.054  0.00  0.00    -0.222 NA
ATOM     19  H   UNL     1      -1.490  -2.949   8.893  0.00  0.00    +0.167 HD
ATOM     20  C   UNL     1      -0.435  -5.817   8.207  0.00  0.00    +0.090 A 
ATOM     21  C   UNL     1      -0.984  -4.975   9.117  0.00  0.00    +0.113 A 
ATOM     22  N   UNL     1      -1.127  -3.757   8.497  0.00  0.00    -0.339 N 
BRANCH  20  23
ATOM     23  C   UNL     1      -0.095  -7.243   8.433  0.00  0.00    +0.002 A 
ATOM     24  C   UNL     1      -0.342  -7.834   9.671  0.00  0.00    +0.011 A 
ATOM     25  C   UNL     1      -0.023  -9.161   9.876  0.00  0.00    +0.016 A 
ATOM     26  C   UNL     1       0.541  -9.905   8.855  0.00  0.00    +0.018 A 
ATOM     27  C   UNL     1       0.789  -9.323   7.623  0.00  0.00    +0.016 A 
ATOM     28  C   UNL     1       0.469  -7.999   7.406  0.00  0.00    +0.011 A 
ATOM     29 BR   UNL     1       0.976 -11.723   9.143  0.00  0.00    -0.050 Br
ENDBRANCH  20  23
ENDBRANCH  16  17
ENDBRANCH   1  16
TORSDOF 4
