REMARK  Name = ZINC39359193
REMARK  4 active torsions:
REMARK  status: ('A' for Active; 'I' for Inactive)
REMARK    1  A    between atoms: C_4  and  C_30
REMARK    2  A    between atoms: C_5  and  C_7
REMARK    3  A    between atoms: C_10  and  O_29
REMARK    4  A    between atoms: C_21  and  C_24
REMARK                            x       y       z     vdW  Elec       q    Type
REMARK                         _______ _______ _______ _____ _____    ______ ____
ROOT
ATOM      1  C   UNL     1       1.481  -2.169  -0.149  0.00  0.00    +0.089 C 
ATOM      2  C   UNL     1       0.916  -2.678  -1.441  0.00  0.00    +0.048 C 
ATOM      3  C   UNL     1       0.639  -2.132  -2.605  0.00  0.00    +0.235 C 
ATOM      4  N   UNL     1       0.008  -3.032  -3.408  0.00  0.00    -0.114 NA
ATOM      5  N   UNL     1      -0.130  -4.156  -2.907  0.00  0.00    -0.157 NA
ATOM      6  C   UNL     1       0.505  -4.146  -1.588  0.00  0.00    +0.245 C 
ATOM      7  N   UNL     1      -0.450  -4.356  -0.497  0.00  0.00    -0.321 N 
ATOM      8  C   UNL     1      -0.184  -3.831   0.744  0.00  0.00    +0.014 C 
ATOM      9  C   UNL     1       0.692  -2.829   0.973  0.00  0.00    +0.023 C 
ATOM     10  C   UNL     1       0.924  -2.339   2.270  0.00  0.00    +0.162 C 
ATOM     11  O   UNL     1       1.712  -1.428   2.429  0.00  0.00    -0.292 OA
ATOM     12  C   UNL     1       0.219  -2.917   3.465  0.00  0.00    +0.088 C 
ATOM     13  C   UNL     1      -0.115  -4.385   3.174  0.00  0.00    +0.039 C 
ATOM     14  C   UNL     1      -0.959  -4.441   1.894  0.00  0.00    +0.060 C 
ATOM     15  H   UNL     1      -1.263  -4.862  -0.649  0.00  0.00    +0.148 HD
ENDROOT
BRANCH   1  20
ATOM     16  C   UNL     1      -0.072   1.268   0.038  0.00  0.00    +0.000 A 
ATOM     17  C   UNL     1       1.045   2.086   0.063  0.00  0.00    +0.001 A 
ATOM     18  C   UNL     1       2.308   1.534   0.019  0.00  0.00    +0.015 A 
ATOM     19  C   UNL     1       2.460   0.147  -0.050  0.00  0.00    +0.067 A 
ATOM     20  C   UNL     1       1.328  -0.672  -0.074  0.00  0.00    -0.021 A 
ATOM     21  C   UNL     1       0.071  -0.107  -0.030  0.00  0.00    +0.005 A 
BRANCH  19  22
ATOM     22  C   UNL     1       3.808  -0.450  -0.097  0.00  0.00    +0.387 C 
ATOM     23  O   UNL     1       4.791   0.268  -0.219  0.00  0.00    -0.241 OA
ATOM     24  O   UNL     1       3.943  -1.663  -0.014  0.00  0.00    -0.241 OA
ENDBRANCH  19  22
ENDBRANCH   1  20
BRANCH  13  25
ATOM     25  C   UNL     1      -0.896  -4.966   4.324  0.00  0.00    -0.006 A 
ATOM     26  C   UNL     1      -0.582  -6.011   5.129  0.00  0.00    +0.011 A 
ATOM     27  C   UNL     1      -1.460  -6.371   6.133  0.00  0.00    +0.008 A 
ATOM     28  C   UNL     1      -2.610  -5.670   6.284  0.00  0.00    +0.045 A 
ATOM     29  S   UNL     1      -2.473  -4.452   4.986  0.00  0.00    -0.101 S 
ENDBRANCH  13  25
BRANCH   3  30
ATOM     30  O   UNL     1       0.940  -0.854  -2.956  0.00  0.00    -0.491 OA
ATOM     31  H   UNL     1       0.664  -0.617  -3.852  0.00  0.00    +0.294 HD
ENDBRANCH   3  30
TORSDOF 4
