REMARK  Name = ZINC53111819
REMARK  5 active torsions:
REMARK  status: ('A' for Active; 'I' for Inactive)
REMARK    1  A    between atoms: C_6  and  N_7
REMARK    2  A    between atoms: C_9  and  C_11
REMARK    3  A    between atoms: N_13  and  C_14
REMARK    4  A    between atoms: C_14  and  C_20
REMARK    5  A    between atoms: C_20  and  O_21
REMARK                            x       y       z     vdW  Elec       q    Type
REMARK                         _______ _______ _______ _____ _____    ______ ____
ROOT
ATOM      1  C   UNL     1       5.787   2.314   0.863  0.00  0.00    +0.280 C 
ATOM      2  O   UNL     1       6.251   2.827   1.864  0.00  0.00    -0.267 OA
ATOM      3  N   UNL     1       6.597   1.991  -0.165  0.00  0.00    -0.301 N 
ATOM      4  H   UNL     1       6.240   1.518  -0.933  0.00  0.00    +0.150 HD
ENDROOT
BRANCH   1  12
ATOM      5  C   UNL     1       0.062   0.898  -0.313  0.00  0.00    +0.026 A 
ATOM      6  C   UNL     1       1.344   0.879  -0.816  0.00  0.00    +0.048 A 
ATOM      7  C   UNL     1       2.397   1.377  -0.058  0.00  0.00    +0.136 A 
ATOM      8  C   UNL     1       2.140   1.899   1.223  0.00  0.00    +0.023 A 
ATOM      9  C   UNL     1       0.837   1.914   1.726  0.00  0.00    +0.034 A 
ATOM     10  C   UNL     1      -0.197   1.413   0.956  0.00  0.00    +0.025 A 
ATOM     11  C   UNL     1       3.437   2.331   1.744  0.00  0.00    +0.063 A 
ATOM     12  C   UNL     1       4.345   2.048   0.774  0.00  0.00    +0.190 A 
ATOM     13  O   UNL     1       3.723   1.487  -0.283  0.00  0.00    -0.450 OA
BRANCH  10  14
ATOM     14  N   UNL     1      -1.505   1.424   1.452  0.00  0.00    -0.358 N 
ATOM     15  H   UNL     1      -2.231   1.073   0.913  0.00  0.00    +0.142 HD
ATOM     16  H   UNL     1      -1.686   1.782   2.335  0.00  0.00    +0.142 HD
ENDBRANCH  10  14
ENDBRANCH   1  12
BRANCH   3  17
ATOM     17  C   UNL     1       8.015   2.355  -0.123  0.00  0.00    +0.058 C 
ATOM     18  C   UNL     1       8.693   1.918  -1.423  0.00  0.00    +0.028 C 
ATOM     19  C   UNL     1       8.022   2.616  -2.608  0.00  0.00    +0.002 C 
ATOM     20  C   UNL     1       8.155   4.132  -2.448  0.00  0.00    +0.000 C 
ATOM     21  C   UNL     1       7.478   4.569  -1.148  0.00  0.00    +0.002 C 
ATOM     22  C   UNL     1       8.148   3.871   0.037  0.00  0.00    +0.028 C 
BRANCH  17  23
ATOM     23  C   UNL     1       8.686   1.657   1.062  0.00  0.00    +0.181 C 
BRANCH  23  24
ATOM     24  O   UNL     1       8.496   0.245   0.952  0.00  0.00    -0.393 OA
ATOM     25  H   UNL     1       8.896  -0.263   1.671  0.00  0.00    +0.209 HD
ENDBRANCH  23  24
ENDBRANCH  17  23
ENDBRANCH   3  17
TORSDOF 5
