REMARK  Name = ZINC59307055
REMARK  3 active torsions:
REMARK  status: ('A' for Active; 'I' for Inactive)
REMARK    1  A    between atoms: C_9  and  C_11
REMARK    2  A    between atoms: N_13  and  C_14
REMARK    3  A    between atoms: C_17  and  C_20
REMARK                            x       y       z     vdW  Elec       q    Type
REMARK                         _______ _______ _______ _____ _____    ______ ____
ROOT
ATOM      1  C   UNL     1       7.336  -2.486  -0.214  0.00  0.00    +0.034 A 
ATOM      2  C   UNL     1       7.367  -3.857  -0.447  0.00  0.00    +0.024 A 
ATOM      3  C   UNL     1       8.574  -4.514  -0.537  0.00  0.00    +0.015 A 
ATOM      4  C   UNL     1       9.768  -3.801  -0.394  0.00  0.00    +0.037 A 
ATOM      5  C   UNL     1       9.733  -2.424  -0.160  0.00  0.00    +0.015 A 
ATOM      6  C   UNL     1       8.523  -1.772  -0.076  0.00  0.00    +0.024 A 
ENDROOT
BRANCH   4   7
ATOM      7  C   UNL     1      11.063  -4.502  -0.490  0.00  0.00    +0.251 C 
ATOM      8  O   UNL     1      12.039  -3.920  -0.922  0.00  0.00    -0.270 OA
ATOM      9  N   UNL     1      11.164  -5.788  -0.098  0.00  0.00    -0.257 N 
ATOM     10  C   UNL     1      10.032  -6.479   0.537  0.00  0.00    +0.210 C 
ATOM     11  C   UNL     1      10.545  -7.305   1.689  0.00  0.00    +0.235 C 
ATOM     12  O   UNL     1       9.823  -7.520   2.640  0.00  0.00    -0.274 OA
ATOM     13  N   UNL     1      11.794  -7.807   1.676  0.00  0.00    -0.283 N 
ATOM     14  C   UNL     1      12.664  -7.532   0.615  0.00  0.00    +0.055 A 
ATOM     15  C   UNL     1      12.351  -6.511  -0.289  0.00  0.00    +0.058 A 
ATOM     16  C   UNL     1      13.200  -6.227  -1.343  0.00  0.00    +0.025 A 
ATOM     17  C   UNL     1      14.361  -6.962  -1.508  0.00  0.00    +0.002 A 
ATOM     18  C   UNL     1      14.671  -7.977  -0.622  0.00  0.00    +0.002 A 
ATOM     19  C   UNL     1      13.829  -8.262   0.447  0.00  0.00    +0.025 A 
ATOM     20  H   UNL     1      12.094  -8.365   2.410  0.00  0.00    +0.155 HD
ENDBRANCH   4   7
BRANCH   1  23
ATOM     21  C   UNL     1       5.988  -0.571  -0.603  0.00  0.00    +0.267 C 
ATOM     22  O   UNL     1       6.961   0.014  -1.036  0.00  0.00    -0.268 OA
ATOM     23  N   UNL     1       6.113  -1.824  -0.124  0.00  0.00    -0.280 N 
ATOM     24  H   UNL     1       5.351  -2.266   0.284  0.00  0.00    +0.155 HD
BRANCH  21  33
ATOM     25  C   UNL     1      -0.103   1.196  -0.079  0.00  0.00    +0.001 A 
ATOM     26  C   UNL     1       0.071  -0.100   0.407  0.00  0.00    +0.002 A 
ATOM     27  C   UNL     1       1.294  -0.694   0.399  0.00  0.00    +0.028 A 
ATOM     28  C   UNL     1       2.407   0.005  -0.108  0.00  0.00    +0.072 A 
ATOM     29  C   UNL     1       2.227   1.323  -0.602  0.00  0.00    +0.000 A 
ATOM     30  C   UNL     1       0.948   1.903  -0.576  0.00  0.00    +0.010 A 
ATOM     31  C   UNL     1       3.337   2.023  -1.109  0.00  0.00    +0.012 A 
ATOM     32  C   UNL     1       4.551   1.400  -1.104  0.00  0.00    +0.033 A 
ATOM     33  C   UNL     1       4.663   0.095  -0.602  0.00  0.00    +0.126 A 
ATOM     34  N   UNL     1       3.617  -0.554  -0.129  0.00  0.00    -0.242 NA
ENDBRANCH  21  33
ENDBRANCH   1  23
TORSDOF 3
