REMARK  Name = ZINC57716890
REMARK  5 active torsions:
REMARK  status: ('A' for Active; 'I' for Inactive)
REMARK    1  A    between atoms: C_1  and  N_2
REMARK    2  A    between atoms: C_8  and  N_13
REMARK    3  A    between atoms: C_14  and  C_16
REMARK    4  A    between atoms: C_16  and  O_17
REMARK    5  A    between atoms: O_17  and  C_18
REMARK                            x       y       z     vdW  Elec       q    Type
REMARK                         _______ _______ _______ _____ _____    ______ ____
ROOT
ATOM      1  N   UNL     1       0.089  -5.807   1.342  0.00  0.00    -0.283 N 
ATOM      2  C   UNL     1       0.000  -6.965   0.658  0.00  0.00    +0.255 C 
ATOM      3  O   UNL     1      -0.006  -6.954  -0.555  0.00  0.00    -0.272 OA
ATOM      4  H   UNL     1       0.171  -5.820   2.308  0.00  0.00    +0.155 HD
ENDROOT
BRANCH   1  12
ATOM      5  C   UNL     1       1.455   1.228  -0.458  0.00  0.00    +0.142 C 
ATOM      6  N   UNL     1       1.026  -0.166  -0.324  0.00  0.00    -0.237 N 
ATOM      7  C   UNL     1       0.192  -0.790  -1.174  0.00  0.00    +0.254 C 
ATOM      8  O   UNL     1      -0.318  -0.294  -2.159  0.00  0.00    -0.270 OA
ATOM      9  C   UNL     1      -0.002  -2.178  -0.712  0.00  0.00    +0.050 A 
ATOM     10  C   UNL     1      -0.736  -3.260  -1.178  0.00  0.00    +0.015 A 
ATOM     11  C   UNL     1      -0.702  -4.460  -0.493  0.00  0.00    +0.024 A 
ATOM     12  C   UNL     1       0.063  -4.591   0.660  0.00  0.00    +0.034 A 
ATOM     13  C   UNL     1       0.805  -3.511   1.138  0.00  0.00    +0.037 A 
ATOM     14  C   UNL     1       0.776  -2.307   0.458  0.00  0.00    +0.051 A 
ATOM     15  C   UNL     1       1.420  -0.992   0.662  0.00  0.00    +0.254 C 
ATOM     16  O   UNL     1       2.175  -0.705   1.569  0.00  0.00    -0.270 OA
ENDBRANCH   1  12
BRANCH   2  17
ATOM     17  C   UNL     1      -0.092  -8.274   1.400  0.00  0.00    +0.325 C 
BRANCH  17  18
ATOM     18  O   UNL     1      -0.176  -9.348   0.463  0.00  0.00    -0.481 OA
BRANCH  18  19
ATOM     19  C   UNL     1      -0.266 -10.605   0.971  0.00  0.00    +0.147 A 
ATOM     20  C   UNL     1      -0.278 -10.799   2.323  0.00  0.00    +0.049 A 
ATOM     21  C   UNL     1      -0.369 -12.079   2.863  0.00  0.00    +0.024 A 
ATOM     22  C   UNL     1      -0.448 -13.175   2.057  0.00  0.00    +0.050 A 
ATOM     23  C   UNL     1      -0.438 -13.016   0.661  0.00  0.00    +0.022 A 
ATOM     24  C   UNL     1      -0.352 -11.715   0.106  0.00  0.00    +0.114 A 
ATOM     25  N   UNL     1      -0.347 -11.558  -1.221  0.00  0.00    -0.251 NA
ATOM     26  C   UNL     1      -0.426 -12.586  -2.030  0.00  0.00    +0.111 A 
ATOM     27  C   UNL     1      -0.519 -13.891  -1.550  0.00  0.00    +0.020 A 
ATOM     28  C   UNL     1      -0.517 -14.123  -0.203  0.00  0.00    +0.013 A 
ATOM     29 CL   UNL     1      -0.559 -14.762   2.752  0.00  0.00    -0.083 Cl
ENDBRANCH  18  19
ENDBRANCH  17  18
ENDBRANCH   2  17
TORSDOF 4
