REMARK  Name = ZINC03670327
REMARK  10 active torsions:
REMARK  status: ('A' for Active; 'I' for Inactive)
REMARK    1  A    between atoms: C_1  and  N_61
REMARK    2  A    between atoms: C_2  and  C_3
REMARK    3  A    between atoms: C_2  and  N_61
REMARK    4  A    between atoms: C_3  and  C_4
REMARK    5  A    between atoms: C_4  and  N_5
REMARK    6  A    between atoms: C_6  and  C_8
REMARK    7  A    between atoms: C_8  and  O_27
REMARK    8  A    between atoms: N_18  and  C_19
REMARK    9  A    between atoms: C_28  and  C_29
REMARK   10  A    between atoms: C_28  and  N_61
REMARK                            x       y       z     vdW  Elec       q    Type
REMARK                         _______ _______ _______ _____ _____    ______ ____
ROOT
ATOM      1  C   UNL     1      -3.715   1.746   0.140  0.00  0.00    +0.247 C 
ATOM      2  C   UNL     1      -4.964   0.896   0.132  0.00  0.00    +0.033 A 
ATOM      3  C   UNL     1      -6.214   1.461   0.240  0.00  0.00    +0.010 A 
ATOM      4  C   UNL     1      -7.337   0.651   0.230  0.00  0.00    +0.001 A 
ATOM      5  C   UNL     1      -7.200  -0.721   0.112  0.00  0.00    +0.002 A 
ATOM      6  C   UNL     1      -5.947  -1.290   0.003  0.00  0.00    +0.024 A 
ATOM      7  C   UNL     1      -4.817  -0.482   0.013  0.00  0.00    +0.043 A 
ATOM      8  N   UNL     1      -3.542  -1.038  -0.094  0.00  0.00    -0.269 N 
ATOM      9  C   UNL     1      -2.424  -0.301  -0.095  0.00  0.00    +0.314 C 
ATOM     10  O   UNL     1      -1.355  -0.871  -0.199  0.00  0.00    -0.252 OA
ATOM     11  N   UNL     1      -2.428   1.039   0.019  0.00  0.00    -0.214 N 
ATOM     12  H   UNL     1      -3.463  -2.001  -0.176  0.00  0.00    +0.156 HD
ENDROOT
BRANCH  11  13
ATOM     13  C   UNL     1      -1.224   1.754   0.017  0.00  0.00    +0.043 A 
ATOM     14  C   UNL     1      -0.748   2.311  -1.162  0.00  0.00    +0.025 A 
ATOM     15  C   UNL     1       0.436   3.021  -1.161  0.00  0.00    +0.023 A 
ATOM     16  C   UNL     1       1.152   3.174   0.014  0.00  0.00    +0.059 A 
ATOM     17  C   UNL     1       0.683   2.615   1.190  0.00  0.00    +0.061 A 
ATOM     18  C   UNL     1      -0.503   1.903   1.194  0.00  0.00    +0.045 A 
ATOM     19 CL   UNL     1       1.583   2.808   2.662  0.00  0.00    -0.082 Cl
ATOM     20 CL   UNL     1       2.640   4.067   0.012  0.00  0.00    -0.082 Cl
ENDBRANCH  11  13
BRANCH   1  22
ATOM     21  N   UNL     1      -3.437   1.907   2.592  0.00  0.00    -0.311 N 
ATOM     22  C   UNL     1      -3.695   2.531   1.426  0.00  0.00    +0.269 C 
ATOM     23  O   UNL     1      -3.912   3.724   1.411  0.00  0.00    -0.270 OA
ATOM     24  H   UNL     1      -3.264   0.953   2.604  0.00  0.00    +0.149 HD
BRANCH  21  25
ATOM     25  C   UNL     1      -3.418   2.670   3.843  0.00  0.00    +0.102 C 
BRANCH  25  26
ATOM     26  C   UNL     1      -3.103   1.731   5.009  0.00  0.00    +0.000 C 
BRANCH  26  27
ATOM     27  C   UNL     1      -3.084   2.529   6.315  0.00  0.00    -0.077 C 
BRANCH  27  29
ATOM     28  C   UNL     1      -1.416   1.095   7.329  0.00  0.00    -0.096 C 
ATOM     29  N   UNL     1      -2.800   1.605   7.433  0.00  0.00    +0.381 N 
ATOM     30  H   UNL     1      -3.451   0.813   7.385  0.00  0.00    -0.082 HD
BRANCH  29  31
ATOM     31  C   UNL     1      -2.986   2.301   8.723  0.00  0.00    -0.043 C 
BRANCH  31  32
ATOM     32  C   UNL     1      -2.907   1.290   9.838  0.00  0.00    -0.064 A 
ATOM     33  C   UNL     1      -4.051   0.642  10.264  0.00  0.00    +0.002 A 
ATOM     34  C   UNL     1      -3.979  -0.290  11.283  0.00  0.00    +0.000 A 
ATOM     35  C   UNL     1      -2.764  -0.565  11.882  0.00  0.00    +0.000 A 
ATOM     36  C   UNL     1      -1.621   0.086  11.459  0.00  0.00    +0.000 A 
ATOM     37  C   UNL     1      -1.692   1.014  10.437  0.00  0.00    +0.002 A 
ENDBRANCH  31  32
ENDBRANCH  29  31
ENDBRANCH  27  29
ENDBRANCH  26  27
ENDBRANCH  25  26
ENDBRANCH  21  25
ENDBRANCH   1  22
BRANCH   1  38
ATOM     38  O   UNL     1      -3.809   2.677  -0.940  0.00  0.00    -0.360 OA
ATOM     39  H   UNL     1      -4.627   3.192  -0.944  0.00  0.00    +0.213 HD
ENDBRANCH   1  38
TORSDOF 9
