REMARK  Name = ZINC15729948
REMARK  7 active torsions:
REMARK  status: ('A' for Active; 'I' for Inactive)
REMARK    1  A    between atoms: C_1  and  C_2
REMARK    2  A    between atoms: C_2  and  C_3
REMARK    3  A    between atoms: C_3  and  N_4
REMARK    4  A    between atoms: N_7  and  C_8
REMARK    5  A    between atoms: C_10  and  C_22
REMARK    6  A    between atoms: C_18  and  C_20
REMARK    7  A    between atoms: C_20  and  C_21
REMARK                            x       y       z     vdW  Elec       q    Type
REMARK                         _______ _______ _______ _____ _____    ______ ____
ROOT
ATOM      1  C   UNL     1      -5.624   3.830   0.053  0.00  0.00    +0.036 A 
ATOM      2  C   UNL     1      -5.882   2.472  -0.117  0.00  0.00    +0.028 A 
ATOM      3  C   UNL     1      -4.880   1.552  -0.123  0.00  0.00    -0.022 A 
ATOM      4  C   UNL     1      -3.532   1.944   0.042  0.00  0.00    +0.083 A 
ATOM      5  C   UNL     1      -3.299   3.328   0.213  0.00  0.00    +0.043 A 
ATOM      6  C   UNL     1      -4.312   4.254   0.220  0.00  0.00    +0.040 A 
ATOM      7  S   UNL     1      -1.532   3.396   0.382  0.00  0.00    -0.052 S 
ATOM      8  C   UNL     1      -1.223   1.643   0.221  0.00  0.00    +0.165 A 
ATOM      9  N   UNL     1      -2.431   1.160   0.053  0.00  0.00    -0.224 NA
ATOM     10  N   UNL     1      -0.013   0.967   0.259  0.00  0.00    -0.265 N 
ATOM     11  C   UNL     1       1.136   1.649   0.432  0.00  0.00    +0.218 C 
ATOM     12  O   UNL     1       1.111   2.855   0.560  0.00  0.00    -0.275 OA
ATOM     13  C   UNL     1      -5.212   0.094  -0.310  0.00  0.00    +0.046 C 
ATOM     14  H   UNL     1       0.006   0.002   0.156  0.00  0.00    +0.157 HD
ENDROOT
BRANCH   1  18
ATOM     15  N   UNL     1      -7.456   6.922  -0.330  0.00  0.00    -0.299 N 
ATOM     16  C   UNL     1      -6.480   5.998  -0.430  0.00  0.00    +0.304 C 
ATOM     17  O   UNL     1      -5.424   6.284  -0.961  0.00  0.00    -0.253 OA
ATOM     18  N   UNL     1      -6.675   4.757   0.057  0.00  0.00    -0.269 N 
ATOM     19  H   UNL     1      -8.298   6.694   0.093  0.00  0.00    +0.150 HD
ATOM     20  H   UNL     1      -7.542   4.505   0.410  0.00  0.00    +0.156 HD
BRANCH  15  21
ATOM     21  C   UNL     1      -7.245   8.272  -0.860  0.00  0.00    +0.105 C 
BRANCH  21  23
ATOM     22  C   UNL     1      -8.276  10.525  -1.172  0.00  0.00    +0.005 C 
ATOM     23  C   UNL     1      -8.497   9.116  -0.619  0.00  0.00    +0.015 C 
ENDBRANCH  21  23
ENDBRANCH  15  21
ENDBRANCH   1  18
BRANCH  11  24
ATOM     24  C   UNL     1       2.451   0.914   0.467  0.00  0.00    +0.093 C 
ATOM     25  C   UNL     1       3.589   1.916   0.673  0.00  0.00    +0.013 C 
ENDBRANCH  11  24
TORSDOF 4
