REMARK  Name = ZINC67470834
REMARK  9 active torsions:
REMARK  status: ('A' for Active; 'I' for Inactive)
REMARK    1  A    between atoms: C_1  and  C_2
REMARK    2  A    between atoms: C_2  and  C_3
REMARK    3  A    between atoms: C_2  and  C_4
REMARK    4  A    between atoms: C_2  and  N_11
REMARK    5  A    between atoms: N_14  and  N_15
REMARK    6  A    between atoms: C_16  and  C_18
REMARK    7  A    between atoms: C_18  and  O_19
REMARK    8  A    between atoms: O_19  and  C_20
REMARK    9  A    between atoms: C_23  and  C_26
REMARK                            x       y       z     vdW  Elec       q    Type
REMARK                         _______ _______ _______ _____ _____    ______ ____
ROOT
ATOM      1  N   UNL     1       0.556  -0.272  -1.327  0.00  0.00    -0.289 N 
ATOM      2  C   UNL     1       1.849   0.005  -1.587  0.00  0.00    +0.317 C 
ATOM      3  O   UNL     1       2.556   0.479  -0.718  0.00  0.00    -0.251 OA
ATOM      4  N   UNL     1       2.359  -0.241  -2.810  0.00  0.00    -0.218 N 
ATOM      5  H   UNL     1      -0.008  -0.650  -2.021  0.00  0.00    +0.151 HD
ATOM      6  H   UNL     1       3.289  -0.041  -2.997  0.00  0.00    +0.174 HD
ENDROOT
BRANCH   4   7
ATOM      7  N   UNL     1       1.544  -0.787  -3.812  0.00  0.00    -0.230 N 
ATOM      8  C   UNL     1       2.054  -1.033  -5.035  0.00  0.00    +0.267 C 
ATOM      9  O   UNL     1       3.218  -0.783  -5.268  0.00  0.00    -0.271 OA
ATOM     10  H   UNL     1       0.614  -0.987  -3.624  0.00  0.00    +0.173 HD
BRANCH   8  11
ATOM     11  C   UNL     1       1.178  -1.620  -6.112  0.00  0.00    +0.326 C 
BRANCH  11  12
ATOM     12  O   UNL     1       1.942  -1.788  -7.308  0.00  0.00    -0.483 OA
BRANCH  12  13
ATOM     13  C   UNL     1       1.297  -2.309  -8.383  0.00  0.00    +0.121 A 
ATOM     14  C   UNL     1      -0.047  -2.647  -8.287  0.00  0.00    +0.047 A 
ATOM     15  C   UNL     1      -0.706  -3.176  -9.375  0.00  0.00    +0.022 A 
ATOM     16  C   UNL     1      -0.019  -3.373 -10.576  0.00  0.00    +0.052 A 
ATOM     17  C   UNL     1       1.333  -3.031 -10.668  0.00  0.00    +0.022 A 
ATOM     18  C   UNL     1       1.982  -2.498  -9.577  0.00  0.00    +0.047 A 
BRANCH  16  19
ATOM     19  C   UNL     1      -0.700  -3.923 -11.710  0.00  0.00    +0.099 C 
ATOM     20  N   UNL     1      -1.239  -4.359 -12.610  0.00  0.00    -0.191 NA
ENDBRANCH  16  19
ENDBRANCH  12  13
ENDBRANCH  11  12
ENDBRANCH   8  11
ENDBRANCH   4   7
BRANCH   1  22
ATOM     21  C   UNL     1       0.155   1.483   0.328  0.00  0.00    +0.036 C 
ATOM     22  C   UNL     1       0.002  -0.004   0.002  0.00  0.00    +0.056 C 
ATOM     23  C   UNL     1       0.753  -0.835   1.045  0.00  0.00    +0.036 C 
BRANCH  22  24
ATOM     24  C   UNL     1      -1.458  -0.375   0.022  0.00  0.00    -0.025 A 
ATOM     25  C   UNL     1      -2.073  -0.700   1.217  0.00  0.00    +0.007 A 
ATOM     26  C   UNL     1      -3.412  -1.040   1.235  0.00  0.00    +0.020 A 
ATOM     27  C   UNL     1      -4.138  -1.055   0.058  0.00  0.00    +0.041 A 
ATOM     28  C   UNL     1      -3.523  -0.729  -1.138  0.00  0.00    +0.020 A 
ATOM     29  C   UNL     1      -2.185  -0.384  -1.155  0.00  0.00    +0.007 A 
ATOM     30 CL   UNL     1      -5.821  -1.482   0.080  0.00  0.00    -0.084 Cl
ENDBRANCH  22  24
ENDBRANCH   1  22
TORSDOF 7
