REMARK  Name = ZINC03237928
REMARK  5 active torsions:
REMARK  status: ('A' for Active; 'I' for Inactive)
REMARK    1  A    between atoms: C_4  and  N_27
REMARK    2  A    between atoms: C_5  and  C_7
REMARK    3  A    between atoms: C_8  and  C_9
REMARK    4  A    between atoms: C_15  and  S_22
REMARK    5  A    between atoms: S_22  and  N_25
REMARK                            x       y       z     vdW  Elec       q    Type
REMARK                         _______ _______ _______ _____ _____    ______ ____
ROOT
ATOM      1  C   UNL     1       0.442  -5.011   0.403  0.00  0.00    +0.184 C 
ATOM      2  N   UNL     1       0.652  -4.063  -0.688  0.00  0.00    -0.323 N 
ATOM      3  C   UNL     1       0.559  -2.682  -0.530  0.00  0.00    +0.057 A 
ATOM      4  C   UNL     1       1.197  -1.856  -1.454  0.00  0.00    +0.047 A 
ATOM      5  C   UNL     1       1.099  -0.484  -1.342  0.00  0.00    +0.069 A 
ATOM      6  C   UNL     1       0.377   0.082  -0.305  0.00  0.00    +0.125 A 
ATOM      7  C   UNL     1      -0.253  -0.732   0.619  0.00  0.00    +0.060 A 
ATOM      8  C   UNL     1      -0.157  -2.104   0.510  0.00  0.00    +0.128 A 
ATOM      9  S   UNL     1      -0.934  -3.139   1.713  0.00  0.00    +0.062 S 
ATOM     10  O   UNL     1      -0.118  -3.110   2.876  0.00  0.00    -0.153 OA
ATOM     11  O   UNL     1      -2.312  -2.792   1.731  0.00  0.00    -0.153 OA
ATOM     12  N   UNL     1      -0.828  -4.679   1.081  0.00  0.00    -0.166 NA
ATOM     13 CL   UNL     1       1.891   0.537  -2.501  0.00  0.00    -0.081 Cl
ATOM     14  H   UNL     1       0.868  -4.412  -1.567  0.00  0.00    +0.148 HD
ATOM     15  H   UNL     1      -1.554  -5.318   1.155  0.00  0.00    +0.150 HD
ENDROOT
BRANCH   6  16
ATOM     16  S   UNL     1       0.255   1.834  -0.167  0.00  0.00    +0.057 S 
ATOM     17  O   UNL     1      -0.108   2.318  -1.452  0.00  0.00    -0.153 OA
ATOM     18  O   UNL     1      -0.522   2.096   0.994  0.00  0.00    -0.153 OA
BRANCH  16  19
ATOM     19  N   UNL     1       1.777   2.408   0.144  0.00  0.00    -0.203 NA
ATOM     20  H   UNL     1       2.033   3.293  -0.160  0.00  0.00    +0.144 HD
ATOM     21  H   UNL     1       2.413   1.859   0.629  0.00  0.00    +0.144 HD
ENDBRANCH  16  19
ENDBRANCH   6  16
BRANCH   1  23
ATOM     22  C   UNL     1       2.337  -5.974   1.631  0.00  0.00    +0.009 C 
ATOM     23  C   UNL     1       1.581  -4.913   1.385  0.00  0.00    +0.013 C 
BRANCH  22  28
ATOM     24  C   UNL     1       4.969  -4.545   3.897  0.00  0.00    +0.001 A 
ATOM     25  C   UNL     1       5.546  -5.697   4.399  0.00  0.00    +0.002 A 
ATOM     26  C   UNL     1       5.082  -6.939   4.004  0.00  0.00    +0.033 A 
ATOM     27  C   UNL     1       4.037  -7.036   3.109  0.00  0.00    +0.133 A 
ATOM     28  C   UNL     1       3.454  -5.878   2.594  0.00  0.00    +0.005 A 
ATOM     29  C   UNL     1       3.926  -4.628   2.997  0.00  0.00    +0.010 A 
BRANCH  27  30
ATOM     30  N   UNL     1       3.538  -8.365   2.692  0.00  0.00    +0.057 N 
ATOM     31  O   UNL     1       2.346  -8.540   2.513  0.00  0.00    -0.126 OA
ATOM     32  O   UNL     1       4.320  -9.285   2.528  0.00  0.00    -0.126 OA
ENDBRANCH  27  30
ENDBRANCH  22  28
ENDBRANCH   1  23
TORSDOF 5
