REMARK  Name = ZINC59435031
REMARK  8 active torsions:
REMARK  status: ('A' for Active; 'I' for Inactive)
REMARK    1  A    between atoms: C_1  and  O_2
REMARK    2  A    between atoms: O_2  and  C_3
REMARK    3  A    between atoms: C_6  and  C_9
REMARK    4  A    between atoms: C_17  and  S_27
REMARK    5  A    between atoms: C_20  and  C_21
REMARK    6  A    between atoms: S_27  and  C_28
REMARK    7  A    between atoms: C_28  and  C_29
REMARK    8  A    between atoms: C_29  and  N_30
REMARK                            x       y       z     vdW  Elec       q    Type
REMARK                         _______ _______ _______ _____ _____    ______ ____
ROOT
ATOM      1  C   UNL     1       2.539  -2.623   4.196  0.00  0.00    +0.055 C 
ATOM      2  C   UNL     1       3.626  -3.564   3.676  0.00  0.00    +0.027 C 
ATOM      3  C   UNL     1       4.575  -2.737   2.802  0.00  0.00    +0.006 C 
ATOM      4  C   UNL     1       5.735  -3.599   2.310  0.00  0.00    +0.000 C 
ATOM      5  C   UNL     1       6.515  -4.113   3.525  0.00  0.00    +0.002 C 
ATOM      6  C   UNL     1       5.585  -4.977   4.374  0.00  0.00    +0.029 C 
ATOM      7  C   UNL     1       4.376  -4.174   4.870  0.00  0.00    +0.070 C 
ATOM      8  S   UNL     1       3.228  -5.311   5.715  0.00  0.00    -0.115 S 
ATOM      9  C   UNL     1       1.728  -4.391   5.787  0.00  0.00    +0.046 C 
ATOM     10  C   UNL     1       1.568  -3.278   5.112  0.00  0.00    -0.026 C 
ENDROOT
BRANCH   1  14
ATOM     11  C   UNL     1       0.402  -1.032   0.855  0.00  0.00    +0.120 A 
ATOM     12  C   UNL     1       1.046  -0.178   1.738  0.00  0.00    +0.046 A 
ATOM     13  C   UNL     1       1.736  -0.695   2.817  0.00  0.00    +0.008 A 
ATOM     14  C   UNL     1       1.785  -2.062   3.018  0.00  0.00    -0.039 A 
ATOM     15  C   UNL     1       1.143  -2.915   2.139  0.00  0.00    +0.008 A 
ATOM     16  C   UNL     1       0.447  -2.403   1.061  0.00  0.00    +0.046 A 
BRANCH  11  18
ATOM     17  C   UNL     1      -0.282   0.895  -0.358  0.00  0.00    +0.277 C 
ATOM     18  O   UNL     1      -0.278  -0.526  -0.208  0.00  0.00    -0.495 OA
ENDBRANCH  11  18
ENDBRANCH   1  14
BRANCH  10  19
ATOM     19  C   UNL     1       0.252  -2.627   5.250  0.00  0.00    -0.021 A 
ATOM     20  C   UNL     1      -0.896  -3.254   4.758  0.00  0.00    +0.008 A 
ATOM     21  C   UNL     1      -2.124  -2.639   4.891  0.00  0.00    +0.001 A 
ATOM     22  C   UNL     1      -2.220  -1.406   5.511  0.00  0.00    +0.000 A 
ATOM     23  C   UNL     1      -1.087  -0.779   6.000  0.00  0.00    +0.001 A 
ATOM     24  C   UNL     1       0.146  -1.384   5.878  0.00  0.00    +0.008 A 
ENDBRANCH  10  19
BRANCH   7  25
ATOM     25  S   UNL     1       4.938  -2.865   5.992  0.00  0.00    -0.144 S 
BRANCH  25  26
ATOM     26  C   UNL     1       5.654  -3.766   7.394  0.00  0.00    +0.051 C 
BRANCH  26  27
ATOM     27  C   UNL     1       6.175  -2.768   8.430  0.00  0.00    -0.076 C 
BRANCH  27  28
ATOM     28  N   UNL     1       6.755  -3.498   9.565  0.00  0.00    +0.379 N 
ATOM     29  H   UNL     1       6.048  -4.082   9.986  0.00  0.00    -0.090 HD
ATOM     30  H   UNL     1       7.517  -4.074   9.241  0.00  0.00    -0.090 HD
ATOM     31  H   UNL     1       7.098  -2.840  10.248  0.00  0.00    -0.090 HD
ENDBRANCH  27  28
ENDBRANCH  26  27
ENDBRANCH  25  26
ENDBRANCH   7  25
TORSDOF 7
