REMARK  Name = ZINC01158034
REMARK  5 active torsions:
REMARK  status: ('A' for Active; 'I' for Inactive)
REMARK    1  A    between atoms: C_1  and  C_2
REMARK    2  A    between atoms: C_5  and  N_8
REMARK    3  A    between atoms: C_9  and  C_20
REMARK    4  A    between atoms: C_23  and  S_26
REMARK    5  A    between atoms: S_26  and  C_27
REMARK                            x       y       z     vdW  Elec       q    Type
REMARK                         _______ _______ _______ _____ _____    ______ ____
ROOT
ATOM      1  N   UNL     1      -0.697   1.971   1.219  0.00  0.00    -0.244 N 
ATOM      2  C   UNL     1      -0.028   1.434   0.034  0.00  0.00    +0.198 C 
ATOM      3  N   UNL     1      -0.695   1.912  -1.183  0.00  0.00    -0.321 N 
ATOM      4  C   UNL     1      -2.085   1.919  -1.226  0.00  0.00    +0.041 A 
ATOM      5  C   UNL     1      -2.778   1.776  -2.416  0.00  0.00    +0.024 A 
ATOM      6  C   UNL     1      -4.159   1.800  -2.410  0.00  0.00    +0.002 A 
ATOM      7  C   UNL     1      -4.856   1.967  -1.223  0.00  0.00    +0.001 A 
ATOM      8  C   UNL     1      -4.181   2.108  -0.029  0.00  0.00    +0.015 A 
ATOM      9  C   UNL     1      -2.788   2.080  -0.019  0.00  0.00    +0.058 A 
ATOM     10  C   UNL     1      -2.021   2.201   1.233  0.00  0.00    +0.254 C 
ATOM     11  O   UNL     1      -2.582   2.504   2.269  0.00  0.00    -0.270 OA
ATOM     12  H   UNL     1      -0.176   2.217  -1.944  0.00  0.00    +0.148 HD
ENDROOT
BRANCH   1  17
ATOM     13  C   UNL     1       2.356   3.107   5.864  0.00  0.00    +0.044 C 
ATOM     14  C   UNL     1       1.545   2.806   4.630  0.00  0.00    -0.050 A 
ATOM     15  C   UNL     1       1.857   3.421   3.431  0.00  0.00    +0.005 A 
ATOM     16  C   UNL     1       1.116   3.147   2.299  0.00  0.00    +0.024 A 
ATOM     17  C   UNL     1       0.056   2.252   2.364  0.00  0.00    +0.039 A 
ATOM     18  C   UNL     1      -0.259   1.639   3.571  0.00  0.00    +0.024 A 
ATOM     19  C   UNL     1       0.490   1.913   4.698  0.00  0.00    +0.005 A 
ENDBRANCH   1  17
BRANCH   2  20
ATOM     20  C   UNL     1      -0.079  -0.072   0.072  0.00  0.00    -0.009 A 
ATOM     21  C   UNL     1      -0.098  -0.731   1.288  0.00  0.00    +0.008 A 
ATOM     22  C   UNL     1      -0.150  -2.110   1.326  0.00  0.00    +0.015 A 
ATOM     23  C   UNL     1      -0.172  -2.836   0.142  0.00  0.00    +0.008 A 
ATOM     24  C   UNL     1      -0.147  -2.171  -1.078  0.00  0.00    +0.015 A 
ATOM     25  C   UNL     1      -0.100  -0.791  -1.109  0.00  0.00    +0.008 A 
BRANCH  23  26
ATOM     26  S   UNL     1      -0.232  -4.597   0.186  0.00  0.00    -0.129 S 
ATOM     27  C   UNL     1      -0.249  -4.991   1.957  0.00  0.00    +0.090 C 
ENDBRANCH  23  26
ENDBRANCH   2  20
TORSDOF 3
