REMARK  Name = ZINC51037737
REMARK  7 active torsions:
REMARK  status: ('A' for Active; 'I' for Inactive)
REMARK    1  A    between atoms: C_1  and  C_2
REMARK    2  A    between atoms: C_5  and  S_7
REMARK    3  A    between atoms: S_7  and  C_8
REMARK    4  A    between atoms: C_8  and  C_10
REMARK    5  A    between atoms: C_8  and  C_11
REMARK    6  A    between atoms: N_13  and  C_14
REMARK    7  A    between atoms: C_19  and  N_20
REMARK                            x       y       z     vdW  Elec       q    Type
REMARK                         _______ _______ _______ _____ _____    ______ ____
ROOT
ATOM      1  C   UNL     1       0.218  -6.200   1.064  0.00  0.00    +0.230 C 
ATOM      2  O   UNL     1      -0.146  -6.320   2.215  0.00  0.00    -0.274 OA
ATOM      3  N   UNL     1       0.744  -7.255   0.410  0.00  0.00    -0.283 N 
ATOM      4  H   UNL     1       0.961  -7.182  -0.533  0.00  0.00    +0.155 HD
ENDROOT
BRANCH   3   5
ATOM      5  C   UNL     1       0.975  -8.459   1.092  0.00  0.00    +0.054 A 
ATOM      6  C   UNL     1       1.168  -8.453   2.465  0.00  0.00    +0.028 A 
ATOM      7  C   UNL     1       1.397  -9.640   3.136  0.00  0.00    +0.040 A 
ATOM      8  C   UNL     1       1.434 -10.837   2.440  0.00  0.00    +0.125 A 
ATOM      9  C   UNL     1       1.242 -10.850   1.070  0.00  0.00    +0.063 A 
ATOM     10  C   UNL     1       1.007  -9.664   0.391  0.00  0.00    +0.049 A 
ATOM     11  F   UNL     1       1.658 -11.993   3.101  0.00  0.00    -0.205 F 
BRANCH  10  12
ATOM     12  N   UNL     1       0.807  -9.676  -0.993  0.00  0.00    -0.356 N 
ATOM     13  H   UNL     1       0.646  -8.845  -1.467  0.00  0.00    +0.142 HD
ATOM     14  H   UNL     1       0.829 -10.515  -1.480  0.00  0.00    +0.142 HD
ENDBRANCH  10  12
ENDBRANCH   3   5
BRANCH   1  15
ATOM     15  C   UNL     1       0.085  -4.871   0.366  0.00  0.00    +0.139 C 
ATOM     16  C   UNL     1      -1.222  -4.842  -0.429  0.00  0.00    +0.029 C 
BRANCH  15  17
ATOM     17  S   UNL     1       0.073  -3.540   1.598  0.00  0.00    -0.053 S 
BRANCH  17  22
ATOM     18  C   UNL     1       0.035   1.508   0.034  0.00  0.00    +0.111 C 
ATOM     19  C   UNL     1       0.047   0.001   0.021  0.00  0.00    +0.215 A 
ATOM     20  N   UNL     1       0.053  -0.758  -1.035  0.00  0.00    -0.112 NA
ATOM     21  N   UNL     1       0.062  -1.994  -0.677  0.00  0.00    -0.101 NA
ATOM     22  C   UNL     1       0.062  -2.066   0.632  0.00  0.00    +0.278 A 
ATOM     23  O   UNL     1       0.058  -0.804   1.101  0.00  0.00    -0.416 OA
ENDBRANCH  17  22
ENDBRANCH  15  17
ENDBRANCH   1  15
TORSDOF 5
