REMARK  Name = ZINC18041187
REMARK  9 active torsions:
REMARK  status: ('A' for Active; 'I' for Inactive)
REMARK    1  A    between atoms: C_1  and  C_2
REMARK    2  A    between atoms: C_6  and  N_9
REMARK    3  A    between atoms: C_7  and  C_8
REMARK    4  A    between atoms: C_10  and  C_12
REMARK    5  A    between atoms: C_12  and  N_13
REMARK    6  A    between atoms: N_13  and  C_14
REMARK    7  A    between atoms: C_15  and  C_17
REMARK    8  A    between atoms: C_20  and  N_26
REMARK    9  A    between atoms: C_21  and  N_23
REMARK                            x       y       z     vdW  Elec       q    Type
REMARK                         _______ _______ _______ _____ _____    ______ ____
ROOT
ATOM      1  N   UNL     1      -1.495   5.720  -0.337  0.00  0.00    -0.292 N 
ATOM      2  C   UNL     1      -2.413   5.570   0.794  0.00  0.00    +0.133 C 
ATOM      3  C   UNL     1      -1.963   6.122  -1.536  0.00  0.00    +0.247 C 
ATOM      4  O   UNL     1      -1.190   6.331  -2.451  0.00  0.00    -0.270 OA
ENDROOT
BRANCH   3   5
ATOM      5  C   UNL     1      -3.413   6.306  -1.738  0.00  0.00    +0.039 A 
ATOM      6  C   UNL     1      -4.223   6.706  -0.670  0.00  0.00    +0.015 A 
ATOM      7  C   UNL     1      -5.574   6.882  -0.863  0.00  0.00    +0.026 A 
ATOM      8  C   UNL     1      -6.136   6.653  -2.116  0.00  0.00    +0.055 A 
ATOM      9  C   UNL     1      -5.333   6.250  -3.179  0.00  0.00    +0.147 A 
ATOM     10  C   UNL     1      -3.980   6.077  -2.994  0.00  0.00    +0.047 A 
BRANCH   9  11
ATOM     11  N   UNL     1      -5.934   6.007  -4.510  0.00  0.00    +0.058 N 
ATOM     12  O   UNL     1      -5.254   5.551  -5.411  0.00  0.00    -0.126 OA
ATOM     13  O   UNL     1      -7.109   6.263  -4.703  0.00  0.00    -0.126 OA
ENDBRANCH   9  11
BRANCH   8  14
ATOM     14  N   UNL     1      -7.503   6.827  -2.306  0.00  0.00    -0.356 N 
ATOM     15  H   UNL     1      -7.979   6.266  -2.938  0.00  0.00    +0.142 HD
ATOM     16  H   UNL     1      -7.979   7.509  -1.807  0.00  0.00    +0.142 HD
ENDBRANCH   8  14
ENDBRANCH   3   5
BRANCH   1  17
ATOM     17  C   UNL     1      -0.069   5.435  -0.166  0.00  0.00    +0.203 C 
BRANCH  17  19
ATOM     18  N   UNL     1       1.444   3.489  -0.380  0.00  0.00    -0.284 N 
ATOM     19  C   UNL     1       0.193   3.982  -0.472  0.00  0.00    +0.235 C 
ATOM     20  O   UNL     1      -0.722   3.257  -0.801  0.00  0.00    -0.274 OA
ATOM     21  H   UNL     1       2.161   4.047  -0.041  0.00  0.00    +0.155 HD
BRANCH  18  27
ATOM     22  C   UNL     1       4.249  -0.537  -0.080  0.00  0.00    +0.044 C 
ATOM     23  C   UNL     1       3.061   0.197  -0.645  0.00  0.00    -0.046 A 
ATOM     24  C   UNL     1       2.229  -0.430  -1.554  0.00  0.00    +0.004 A 
ATOM     25  C   UNL     1       1.138   0.240  -2.075  0.00  0.00    +0.002 A 
ATOM     26  C   UNL     1       0.875   1.540  -1.688  0.00  0.00    +0.023 A 
ATOM     27  C   UNL     1       1.707   2.173  -0.774  0.00  0.00    +0.037 A 
ATOM     28  C   UNL     1       2.803   1.496  -0.253  0.00  0.00    -0.026 A 
ATOM     29  C   UNL     1       3.709   2.179   0.738  0.00  0.00    +0.046 C 
ENDBRANCH  18  27
ENDBRANCH  17  19
ENDBRANCH   1  17
TORSDOF 6
