REMARK  Name = ZINC04823328
REMARK  7 active torsions:
REMARK  status: ('A' for Active; 'I' for Inactive)
REMARK    1  A    between atoms: N_7  and  C_10
REMARK    2  A    between atoms: C_12  and  O_34
REMARK    3  A    between atoms: C_14  and  O_33
REMARK    4  A    between atoms: C_16  and  C_19
REMARK    5  A    between atoms: C_19  and  O_20
REMARK    6  A    between atoms: O_20  and  C_21
REMARK    7  A    between atoms: C_21  and  C_23
REMARK                            x       y       z     vdW  Elec       q    Type
REMARK                         _______ _______ _______ _____ _____    ______ ____
ROOT
ATOM      1  C   UNL     1       1.852   2.367  -2.232  0.00  0.00    +0.253 C 
ATOM      2  C   UNL     1       2.065   1.173  -1.282  0.00  0.00    +0.195 C 
ATOM      3  C   UNL     1       1.286   1.562  -0.002  0.00  0.00    +0.179 C 
ATOM      4  C   UNL     1       1.183   3.102  -0.140  0.00  0.00    +0.189 C 
ATOM      5  O   UNL     1       0.992   3.301  -1.557  0.00  0.00    -0.345 OA
ENDROOT
BRANCH   1  12
ATOM      6  C   UNL     1       5.059   1.543  -5.262  0.00  0.00    +0.225 A 
ATOM      7  N   UNL     1       6.099   2.356  -5.221  0.00  0.00    -0.219 NA
ATOM      8  C   UNL     1       6.168   3.343  -4.333  0.00  0.00    +0.147 A 
ATOM      9  C   UNL     1       5.102   3.507  -3.431  0.00  0.00    +0.147 A 
ATOM     10  C   UNL     1       4.021   2.613  -3.512  0.00  0.00    +0.167 A 
ATOM     11  N   UNL     1       4.039   1.659  -4.438  0.00  0.00    -0.216 NA
ATOM     12  N   UNL     1       3.138   2.999  -2.535  0.00  0.00    -0.286 N 
ATOM     13  C   UNL     1       3.680   4.074  -1.896  0.00  0.00    +0.203 A 
ATOM     14  N   UNL     1       4.832   4.370  -2.423  0.00  0.00    -0.231 NA
ATOM     15  N   UNL     1       7.262   4.189  -4.298  0.00  0.00    -0.341 N 
ATOM     16  H   UNL     1       6.962   5.129  -4.458  0.00  0.00    +0.144 HD
ATOM     17  H   UNL     1       7.991   4.066  -4.926  0.00  0.00    +0.144 HD
ENDBRANCH   1  12
BRANCH   3  18
ATOM     18  O   UNL     1      -0.011   0.963   0.007  0.00  0.00    -0.386 OA
ATOM     19  H   UNL     1       0.002  -0.004   0.002  0.00  0.00    +0.210 HD
ENDBRANCH   3  18
BRANCH   2  20
ATOM     20  O   UNL     1       3.454   1.004  -0.990  0.00  0.00    -0.385 OA
ATOM     21  H   UNL     1       3.640   0.302  -0.352  0.00  0.00    +0.210 HD
ENDBRANCH   2  20
BRANCH   4  22
ATOM     22  C   UNL     1      -0.017   3.635   0.646  0.00  0.00    +0.266 C 
BRANCH  22  23
ATOM     23  O   UNL     1      -0.021   5.086   0.597  0.00  0.00    -0.462 OA
BRANCH  23  24
ATOM     24  C   UNL     1      -1.017   5.714   1.242  0.00  0.00    +0.311 C 
ATOM     25  O   UNL     1      -1.857   5.072   1.828  0.00  0.00    -0.251 OA
BRANCH  24  26
ATOM     26  C   UNL     1      -1.088   7.219   1.236  0.00  0.00    +0.104 C 
ATOM     27  C   UNL     1       0.182   7.792   1.869  0.00  0.00    +0.004 C 
ATOM     28  C   UNL     1       0.110   9.320   1.863  0.00  0.00    +0.008 C 
ATOM     29  C   UNL     1      -1.110   9.777   2.665  0.00  0.00    -0.010 C 
ATOM     30  C   UNL     1      -0.989   9.278   4.106  0.00  0.00    +0.007 C 
ATOM     31  C   UNL     1      -0.917   7.749   4.112  0.00  0.00    -0.010 C 
ATOM     32  C   UNL     1       0.303   7.293   3.311  0.00  0.00    +0.008 C 
ATOM     33  C   UNL     1      -2.187   7.177   3.479  0.00  0.00    +0.008 C 
ATOM     34  C   UNL     1      -2.308   7.676   2.038  0.00  0.00    +0.004 C 
ATOM     35  C   UNL     1      -2.380   9.204   2.032  0.00  0.00    +0.008 C 
ENDBRANCH  24  26
ENDBRANCH  23  24
ENDBRANCH  22  23
ENDBRANCH   4  22
TORSDOF 7
