REMARK  Name = ZINC04453495
REMARK  11 active torsions:
REMARK  status: ('A' for Active; 'I' for Inactive)
REMARK    1  A    between atoms: C_1  and  C_2
REMARK    2  A    between atoms: C_2  and  O_3
REMARK    3  A    between atoms: O_3  and  C_4
REMARK    4  A    between atoms: C_7  and  C_13
REMARK    5  A    between atoms: C_9  and  O_10
REMARK    6  A    between atoms: O_10  and  C_11
REMARK    7  A    between atoms: C_11  and  C_12
REMARK    8  A    between atoms: C_21  and  C_29
REMARK    9  A    between atoms: C_23  and  C_24
REMARK   10  A    between atoms: C_23  and  C_26
REMARK   11  A    between atoms: C_31  and  N_55
REMARK                            x       y       z     vdW  Elec       q    Type
REMARK                         _______ _______ _______ _____ _____    ______ ____
ROOT
ATOM      1  C   UNL     1      -1.560   0.471   1.904  0.00  0.00    +0.064 C 
ATOM      2  C   UNL     1      -0.776   1.662   1.352  0.00  0.00    +0.010 C 
ATOM      3  C   UNL     1      -0.092   1.338   0.044  0.00  0.00    -0.070 C 
ATOM      4  C   UNL     1      -0.954   3.333  -0.999  0.00  0.00    -0.051 C 
ATOM      5  C   UNL     1      -1.780   3.631   0.228  0.00  0.00    -0.044 C 
ATOM      6  C   UNL     1      -1.702   2.841   1.283  0.00  0.00    -0.051 C 
ATOM      7  C   UNL     1      -2.557   3.098   2.468  0.00  0.00    +0.163 C 
ATOM      8  C   UNL     1      -2.700   2.126   3.405  0.00  0.00    +0.065 C 
ATOM      9  C   UNL     1      -2.016   0.794   3.327  0.00  0.00    +0.188 C 
ATOM     10  N   UNL     1      -3.511   2.374   4.476  0.00  0.00    -0.304 NA
ATOM     11  C   UNL     1      -0.181   1.487  -2.368  0.00  0.00    -0.096 C 
ATOM     12  H   UNL     1      -3.967   3.227   4.551  0.00  0.00    +0.186 HD
ATOM     13  N   UNL     1      -0.852   1.863  -1.102  0.00  0.00    +0.381 N 
ATOM     14  H   UNL     1      -1.796   1.459  -1.092  0.00  0.00    -0.082 HD
ENDROOT
BRANCH   1  18
ATOM     15  C   UNL     1      -4.980  -0.250  -0.561  0.00  0.00    +0.162 A 
ATOM     16  C   UNL     1      -5.062   0.637   0.500  0.00  0.00    +0.050 A 
ATOM     17  C   UNL     1      -3.956   0.864   1.298  0.00  0.00    +0.008 A 
ATOM     18  C   UNL     1      -2.764   0.216   1.034  0.00  0.00    -0.037 A 
ATOM     19  C   UNL     1      -2.675  -0.671  -0.023  0.00  0.00    +0.053 A 
ATOM     20  C   UNL     1      -3.782  -0.907  -0.824  0.00  0.00    +0.162 A 
BRANCH  15  21
ATOM     21  O   UNL     1      -6.068  -0.478  -1.344  0.00  0.00    -0.489 OA
BRANCH  21  23
ATOM     22  C   UNL     1      -8.371  -0.152  -2.000  0.00  0.00    +0.048 C 
ATOM     23  C   UNL     1      -7.264   0.231  -1.015  0.00  0.00    +0.226 C 
ENDBRANCH  21  23
ENDBRANCH  15  21
BRANCH  20  24
ATOM     24  O   UNL     1      -3.696  -1.779  -1.864  0.00  0.00    -0.489 OA
BRANCH  24  25
ATOM     25  C   UNL     1      -2.435  -2.417  -2.074  0.00  0.00    +0.226 C 
ATOM     26  C   UNL     1      -2.532  -3.354  -3.279  0.00  0.00    +0.048 C 
ENDBRANCH  24  25
ENDBRANCH  20  24
ENDBRANCH   1  18
BRANCH   9  27
ATOM     27  C   UNL     1      -0.843   0.805   4.216  0.00  0.00    +0.091 C 
ATOM     28  N   UNL     1       0.063   0.814   4.901  0.00  0.00    -0.195 NA
ENDBRANCH   9  27
BRANCH   9  29
ATOM     29  C   UNL     1      -2.949  -0.251   3.779  0.00  0.00    +0.091 C 
ATOM     30  N   UNL     1      -3.669  -1.058   4.128  0.00  0.00    -0.195 NA
ENDBRANCH   9  29
BRANCH   7  31
ATOM     31  C   UNL     1      -3.223   4.356   2.622  0.00  0.00    +0.076 C 
ATOM     32  N   UNL     1      -3.752   5.354   2.744  0.00  0.00    -0.196 NA
ENDBRANCH   7  31
TORSDOF 8
