REMARK  Name = ZINC15236050
REMARK  6 active torsions:
REMARK  status: ('A' for Active; 'I' for Inactive)
REMARK    1  A    between atoms: C_1  and  C_2
REMARK    2  A    between atoms: C_2  and  C_23
REMARK    3  A    between atoms: N_5  and  C_9
REMARK    4  A    between atoms: C_9  and  C_10
REMARK    5  A    between atoms: C_10  and  C_11
REMARK    6  A    between atoms: N_16  and  C_17
REMARK                            x       y       z     vdW  Elec       q    Type
REMARK                         _______ _______ _______ _____ _____    ______ ____
ROOT
ATOM      1  C   UNL     1      -0.706   1.964   1.271  0.00  0.00    +0.047 C 
ATOM      2  C   UNL     1      -0.024   1.440   0.006  0.00  0.00    +0.135 C 
ATOM      3  C   UNL     1       1.442   1.824  -0.008  0.00  0.00    +0.251 C 
ATOM      4  O   UNL     1       1.905   2.945  -0.013  0.00  0.00    -0.272 OA
ATOM      5  N   UNL     1       2.124   0.662  -0.015  0.00  0.00    -0.224 N 
ATOM      6  C   UNL     1       1.301  -0.393  -0.008  0.00  0.00    +0.310 C 
ATOM      7  O   UNL     1       1.681  -1.547  -0.012  0.00  0.00    -0.252 OA
ATOM      8  N   UNL     1       0.004  -0.033   0.005  0.00  0.00    -0.281 N 
ATOM      9  H   UNL     1      -0.762  -0.628   0.012  0.00  0.00    +0.152 HD
ENDROOT
BRANCH   2  10
ATOM     10  C   UNL     1      -0.720   1.957  -1.226  0.00  0.00    -0.015 A 
ATOM     11  C   UNL     1      -0.341   3.167  -1.777  0.00  0.00    +0.007 A 
ATOM     12  C   UNL     1      -0.975   3.640  -2.911  0.00  0.00    +0.020 A 
ATOM     13  C   UNL     1      -1.997   2.907  -3.487  0.00  0.00    +0.041 A 
ATOM     14  C   UNL     1      -2.380   1.699  -2.933  0.00  0.00    +0.020 A 
ATOM     15  C   UNL     1      -1.741   1.225  -1.802  0.00  0.00    +0.007 A 
ATOM     16 CL   UNL     1      -2.799   3.504  -4.907  0.00  0.00    -0.084 Cl
ENDBRANCH   2  10
BRANCH   5  17
ATOM     17  C   UNL     1       3.586   0.565  -0.030  0.00  0.00    +0.127 C 
BRANCH  17  18
ATOM     18  C   UNL     1       4.080   0.532  -1.478  0.00  0.00    +0.115 C 
BRANCH  18  19
ATOM     19  C   UNL     1       5.583   0.432  -1.494  0.00  0.00    +0.222 C 
ATOM     20  O   UNL     1       6.199   0.392  -0.450  0.00  0.00    -0.275 OA
ATOM     21  N   UNL     1       6.244   0.388  -2.668  0.00  0.00    -0.240 N 
ATOM     22  C   UNL     1       7.588   0.299  -2.682  0.00  0.00    +0.310 C 
ATOM     23  O   UNL     1       8.205   0.258  -1.635  0.00  0.00    -0.252 OA
ATOM     24  N   UNL     1       8.249   0.255  -3.856  0.00  0.00    -0.269 N 
ATOM     25  H   UNL     1       5.751   0.421  -3.503  0.00  0.00    +0.159 HD
ATOM     26  H   UNL     1       7.754   0.220  -4.689  0.00  0.00    +0.156 HD
BRANCH  24  27
ATOM     27  C   UNL     1       9.648   0.260  -3.872  0.00  0.00    +0.035 A 
ATOM     28  C   UNL     1      10.329   0.909  -4.893  0.00  0.00    +0.023 A 
ATOM     29  C   UNL     1      11.710   0.917  -4.904  0.00  0.00    +0.002 A 
ATOM     30  C   UNL     1      12.415   0.270  -3.905  0.00  0.00    +0.000 A 
ATOM     31  C   UNL     1      11.739  -0.382  -2.889  0.00  0.00    +0.002 A 
ATOM     32  C   UNL     1      10.358  -0.388  -2.870  0.00  0.00    +0.023 A 
ENDBRANCH  24  27
ENDBRANCH  18  19
ENDBRANCH  17  18
ENDBRANCH   5  17
TORSDOF 5
