REMARK  Name = ZINC13498797
REMARK  11 active torsions:
REMARK  status: ('A' for Active; 'I' for Inactive)
REMARK    1  A    between atoms: C_1  and  C_2
REMARK    2  A    between atoms: C_2  and  C_3
REMARK    3  A    between atoms: C_2  and  C_4
REMARK    4  A    between atoms: C_4  and  C_6
REMARK    5  A    between atoms: C_4  and  N_69
REMARK    6  A    between atoms: N_10  and  C_11
REMARK    7  A    between atoms: C_17  and  C_18
REMARK    8  A    between atoms: C_17  and  N_69
REMARK    9  A    between atoms: C_18  and  O_19
REMARK   10  A    between atoms: C_20  and  C_21
REMARK   11  A    between atoms: C_20  and  N_69
REMARK                            x       y       z     vdW  Elec       q    Type
REMARK                         _______ _______ _______ _____ _____    ______ ____
ROOT
ATOM      1  N   UNL     1      -5.499   4.140  -1.464  0.00  0.00    +0.391 N 
ATOM      2  H   UNL     1      -4.920   4.739  -2.063  0.00  0.00    -0.080 HD
ENDROOT
BRANCH   1   3
ATOM      3  C   UNL     1      -6.791   4.814  -1.216  0.00  0.00    +0.006 C 
BRANCH   3   4
ATOM      4  C   UNL     1      -7.310   5.358  -2.522  0.00  0.00    +0.139 A 
ATOM      5  N   UNL     1      -6.611   5.961  -3.452  0.00  0.00    -0.115 NA
ATOM      6  N   UNL     1      -7.412   6.277  -4.411  0.00  0.00    -0.023 NA
ATOM      7  N   UNL     1      -8.604   5.891  -4.117  0.00  0.00    -0.044 NA
ATOM      8  N   UNL     1      -8.582   5.315  -2.962  0.00  0.00    -0.228 N 
BRANCH   8   9
ATOM      9  C   UNL     1      -9.726   4.728  -2.260  0.00  0.00    +0.111 C 
ATOM     10  C   UNL     1     -10.328   3.609  -3.113  0.00  0.00    +0.027 C 
ATOM     11  C   UNL     1     -11.523   2.996  -2.380  0.00  0.00    +0.002 C 
ATOM     12  C   UNL     1     -12.579   4.075  -2.135  0.00  0.00    +0.000 C 
ATOM     13  C   UNL     1     -11.977   5.194  -1.282  0.00  0.00    +0.002 C 
ATOM     14  C   UNL     1     -10.782   5.807  -2.015  0.00  0.00    +0.027 C 
ENDBRANCH   8   9
ENDBRANCH   3   4
BRANCH   3  16
ATOM     15  C   UNL     1      -5.540   6.936  -0.801  0.00  0.00    +0.006 C 
ATOM     16  C   UNL     1      -6.577   5.965  -0.232  0.00  0.00    -0.024 C 
ATOM     17  C   UNL     1      -7.900   6.702  -0.014  0.00  0.00    +0.006 C 
ENDBRANCH   3  16
ENDBRANCH   1   3
BRANCH   1  18
ATOM     18  C   UNL     1      -5.725   2.850  -2.150  0.00  0.00    -0.049 C 
BRANCH  18  19
ATOM     19  C   UNL     1      -6.078   3.127  -3.612  0.00  0.00    +0.137 C 
BRANCH  19  20
ATOM     20  O   UNL     1      -4.998   3.820  -4.240  0.00  0.00    -0.397 OA
ATOM     21  H   UNL     1      -5.153   4.029  -5.171  0.00  0.00    +0.209 HD
ENDBRANCH  19  20
ENDBRANCH  18  19
ENDBRANCH   1  18
BRANCH   1  22
ATOM     22  C   UNL     1      -4.794   3.915  -0.184  0.00  0.00    -0.036 C 
BRANCH  22  23
ATOM     23  C   UNL     1      -3.410   3.394  -0.477  0.00  0.00    +0.001 A 
ATOM     24  C   UNL     1      -2.363   4.256  -0.544  0.00  0.00    +0.017 A 
ATOM     25  C   UNL     1      -1.034   3.720  -0.836  0.00  0.00    +0.002 A 
ATOM     26  C   UNL     1       0.079   4.564  -0.937  0.00  0.00    +0.059 A 
ATOM     27  C   UNL     1       1.320   4.030  -1.215  0.00  0.00    +0.163 A 
ATOM     28  C   UNL     1       1.469   2.652  -1.393  0.00  0.00    +0.164 A 
ATOM     29  C   UNL     1       0.374   1.810  -1.295  0.00  0.00    +0.075 A 
ATOM     30  C   UNL     1      -0.883   2.332  -1.023  0.00  0.00    +0.053 A 
ATOM     31  N   UNL     1      -1.987   1.509  -0.928  0.00  0.00    -0.322 N 
ATOM     32  H   UNL     1      -1.882   0.552  -1.053  0.00  0.00    +0.169 HD
ATOM     33  C   UNL     1      -3.205   2.012  -0.666  0.00  0.00    +0.251 A 
ATOM     34  O   UNL     1      -4.158   1.255  -0.590  0.00  0.00    -0.268 OA
ATOM     35  O   UNL     1       2.691   2.117  -1.663  0.00  0.00    -0.485 OA
ATOM     36  C   UNL     1       3.700   3.019  -2.127  0.00  0.00    +0.270 C 
ATOM     37  C   UNL     1       3.687   4.261  -1.226  0.00  0.00    +0.270 C 
ATOM     38  O   UNL     1       2.392   4.864  -1.314  0.00  0.00    -0.485 OA
ENDBRANCH  22  23
ENDBRANCH   1  22
TORSDOF 9
