REMARK  Name = ZINC13148731
REMARK  13 active torsions:
REMARK  status: ('A' for Active; 'I' for Inactive)
REMARK    1  A    between atoms: C_1  and  C_2
REMARK    2  A    between atoms: C_3  and  N_11
REMARK    3  A    between atoms: C_7  and  N_8
REMARK    4  A    between atoms: C_12  and  C_14
REMARK    5  A    between atoms: C_14  and  O_15
REMARK    6  A    between atoms: O_15  and  C_16
REMARK    7  A    between atoms: C_16  and  C_18
REMARK    8  A    between atoms: C_18  and  C_20
REMARK    9  A    between atoms: C_18  and  N_24
REMARK   10  A    between atoms: C_20  and  C_22
REMARK   11  A    between atoms: C_20  and  O_23
REMARK   12  A    between atoms: N_24  and  S_25
REMARK   13  A    between atoms: S_25  and  C_28
REMARK                            x       y       z     vdW  Elec       q    Type
REMARK                         _______ _______ _______ _____ _____    ______ ____
ROOT
ATOM      1  C   UNL     1      -0.661   0.185   0.119  0.00  0.00    +0.213 C 
ENDROOT
BRANCH   1   2
ATOM      2  C   UNL     1      -0.265  -1.268   0.141  0.00  0.00    +0.329 C 
ATOM      3  O   UNL     1       0.898  -1.579   0.028  0.00  0.00    -0.249 OA
BRANCH   2   4
ATOM      4  O   UNL     1      -1.202  -2.218   0.285  0.00  0.00    -0.454 OA
BRANCH   4   5
ATOM      5  C   UNL     1      -0.747  -3.597   0.297  0.00  0.00    +0.328 C 
BRANCH   5   7
ATOM      6  N   UNL     1      -1.748  -5.849   0.507  0.00  0.00    -0.282 N 
ATOM      7  C   UNL     1      -1.931  -4.515   0.467  0.00  0.00    +0.255 C 
ATOM      8  O   UNL     1      -3.047  -4.052   0.568  0.00  0.00    -0.272 OA
ATOM      9  H   UNL     1      -0.866  -6.223   0.352  0.00  0.00    +0.155 HD
BRANCH   6  12
ATOM     10  C   UNL     1      -1.538  -8.581  -0.265  0.00  0.00    +0.048 C 
ATOM     11  C   UNL     1      -2.769  -8.036   0.412  0.00  0.00    +0.001 A 
ATOM     12  C   UNL     1      -2.830  -6.696   0.772  0.00  0.00    +0.039 A 
ATOM     13  C   UNL     1      -3.969  -6.197   1.390  0.00  0.00    +0.024 A 
ATOM     14  C   UNL     1      -5.035  -7.035   1.650  0.00  0.00    +0.004 A 
ATOM     15  C   UNL     1      -4.970  -8.370   1.295  0.00  0.00    +0.033 A 
ATOM     16  C   UNL     1      -3.837  -8.870   0.679  0.00  0.00    +0.131 A 
BRANCH  16  17
ATOM     17  N   UNL     1      -3.771 -10.300   0.301  0.00  0.00    +0.057 N 
ATOM     18  O   UNL     1      -4.760 -11.004   0.406  0.00  0.00    -0.126 OA
ATOM     19  O   UNL     1      -2.728 -10.772  -0.115  0.00  0.00    -0.126 OA
ENDBRANCH  16  17
ENDBRANCH   6  12
ENDBRANCH   5   7
ENDBRANCH   4   5
ENDBRANCH   2   4
ENDBRANCH   1   2
BRANCH   1  20
ATOM     20  C   UNL     1      -1.622   0.434  -1.046  0.00  0.00    +0.141 C 
ATOM     21  C   UNL     1      -1.927   1.930  -1.145  0.00  0.00    +0.040 C 
BRANCH  20  22
ATOM     22  O   UNL     1      -1.020  -0.011  -2.263  0.00  0.00    -0.390 OA
ATOM     23  H   UNL     1      -0.190   0.436  -2.478  0.00  0.00    +0.210 HD
ENDBRANCH  20  22
ENDBRANCH   1  20
BRANCH   1  24
ATOM     24  N   UNL     1       0.534   1.015  -0.049  0.00  0.00    -0.174 NA
ATOM     25  H   UNL     1       1.268   0.703  -0.600  0.00  0.00    +0.149 HD
BRANCH  24  26
ATOM     26  S   UNL     1       0.631   2.488   0.703  0.00  0.00    +0.059 S 
ATOM     27  O   UNL     1       1.903   3.029   0.373  0.00  0.00    -0.153 OA
ATOM     28  O   UNL     1      -0.583   3.169   0.421  0.00  0.00    -0.153 OA
BRANCH  26  29
ATOM     29  C   UNL     1       0.648   2.186   2.439  0.00  0.00    +0.106 A 
ATOM     30  C   UNL     1      -0.556   2.143   3.140  0.00  0.00    +0.029 A 
ATOM     31  C   UNL     1      -0.579   1.907   4.480  0.00  0.00    +0.010 A 
ATOM     32  C   UNL     1       0.629   1.715   5.173  0.00  0.00    -0.018 A 
ATOM     33  C   UNL     1       0.645   1.476   6.557  0.00  0.00    +0.008 A 
ATOM     34  C   UNL     1       1.834   1.294   7.195  0.00  0.00    +0.001 A 
ATOM     35  C   UNL     1       3.038   1.343   6.495  0.00  0.00    +0.001 A 
ATOM     36  C   UNL     1       3.061   1.573   5.154  0.00  0.00    +0.008 A 
ATOM     37  C   UNL     1       1.853   1.765   4.461  0.00  0.00    -0.016 A 
ATOM     38  C   UNL     1       1.837   2.005   3.077  0.00  0.00    +0.037 A 
ENDBRANCH  26  29
ENDBRANCH  24  26
ENDBRANCH   1  24
TORSDOF 11
