REMARK  Name = ZINC18201196
REMARK  10 active torsions:
REMARK  status: ('A' for Active; 'I' for Inactive)
REMARK    1  A    between atoms: C_1  and  C_2
REMARK    2  A    between atoms: C_2  and  C_3
REMARK    3  A    between atoms: C_2  and  C_4
REMARK    4  A    between atoms: C_2  and  C_5
REMARK    5  A    between atoms: C_7  and  C_16
REMARK    6  A    between atoms: C_9  and  C_12
REMARK    7  A    between atoms: C_10  and  O_11
REMARK    8  A    between atoms: C_12  and  C_13
REMARK    9  A    between atoms: C_12  and  C_14
REMARK   10  A    between atoms: C_12  and  C_15
REMARK                            x       y       z     vdW  Elec       q    Type
REMARK                         _______ _______ _______ _____ _____    ______ ____
ROOT
ATOM      1  C   UNL     1       2.418   0.968  -4.270  0.00  0.00    +0.093 C 
ATOM      2  C   UNL     1       3.907   0.771  -4.399  0.00  0.00    +0.067 A 
ATOM      3  C   UNL     1       4.477   0.201  -5.496  0.00  0.00    +0.114 A 
ATOM      4  N   UNL     1       5.845   0.046  -5.542  0.00  0.00    -0.295 N 
ATOM      5  C   UNL     1       6.616   0.457  -4.520  0.00  0.00    +0.328 A 
ATOM      6  O   UNL     1       7.821   0.311  -4.581  0.00  0.00    -0.247 OA
ATOM      7  N   UNL     1       6.071   1.027  -3.430  0.00  0.00    -0.275 N 
ATOM      8  C   UNL     1       4.738   1.195  -3.342  0.00  0.00    +0.260 A 
ATOM      9  O   UNL     1       4.251   1.712  -2.352  0.00  0.00    -0.267 OA
ATOM     10  N   UNL     1       3.731  -0.227  -6.573  0.00  0.00    -0.300 N 
ATOM     11  C   UNL     1       2.422   0.188  -6.673  0.00  0.00    +0.048 C 
ATOM     12  C   UNL     1       1.766   0.759  -5.612  0.00  0.00    +0.034 C 
ATOM     13  C   UNL     1       0.447   1.093  -5.994  0.00  0.00    +0.193 C 
ATOM     14  O   UNL     1      -0.395   1.617  -5.290  0.00  0.00    -0.287 OA
ATOM     15  C   UNL     1       0.277   0.687  -7.406  0.00  0.00    +0.031 A 
ATOM     16  C   UNL     1       1.511   0.124  -7.820  0.00  0.00    +0.007 A 
ATOM     17  C   UNL     1       1.676  -0.360  -9.108  0.00  0.00    +0.010 A 
ATOM     18  C   UNL     1       0.578  -0.264  -9.968  0.00  0.00    +0.001 A 
ATOM     19  C   UNL     1      -0.616   0.284  -9.564  0.00  0.00    +0.001 A 
ATOM     20  C   UNL     1      -0.800   0.777  -8.267  0.00  0.00    +0.012 A 
ATOM     21  H   UNL     1       4.120  -0.807  -7.246  0.00  0.00    +0.154 HD
ATOM     22  H   UNL     1       6.642   1.319  -2.703  0.00  0.00    +0.173 HD
ATOM     23  H   UNL     1       6.256  -0.364  -6.319  0.00  0.00    +0.172 HD
ENDROOT
BRANCH   1  26
ATOM     24  C   UNL     1       0.707  -0.490  -1.238  0.00  0.00    -0.000 A 
ATOM     25  C   UNL     1       1.217   0.419  -2.145  0.00  0.00    +0.012 A 
ATOM     26  C   UNL     1       1.864  -0.026  -3.283  0.00  0.00    -0.034 A 
ATOM     27  C   UNL     1       2.003  -1.382  -3.516  0.00  0.00    +0.012 A 
ATOM     28  C   UNL     1       1.496  -2.295  -2.612  0.00  0.00    -0.000 A 
ATOM     29  C   UNL     1       0.851  -1.851  -1.467  0.00  0.00    +0.124 A 
BRANCH  24  31
ATOM     30  C   UNL     1      -0.019   1.526   0.010  0.00  0.00    +0.015 C 
ATOM     31  C   UNL     1       0.002  -0.004   0.002  0.00  0.00    -0.009 C 
ATOM     32  C   UNL     1       0.742  -0.511   1.242  0.00  0.00    +0.015 C 
ATOM     33  C   UNL     1      -1.433  -0.534   0.013  0.00  0.00    +0.015 C 
ENDBRANCH  24  31
BRANCH  28  34
ATOM     34  C   UNL     1       1.648  -3.773  -2.867  0.00  0.00    -0.009 C 
ATOM     35  C   UNL     1       2.396  -3.989  -4.184  0.00  0.00    +0.015 C 
ATOM     36  C   UNL     1       2.438  -4.409  -1.722  0.00  0.00    +0.015 C 
ATOM     37  C   UNL     1       0.264  -4.420  -2.953  0.00  0.00    +0.015 C 
ENDBRANCH  28  34
BRANCH  29  38
ATOM     38  O   UNL     1       0.356  -2.747  -0.573  0.00  0.00    -0.506 OA
ATOM     39  H   UNL     1      -0.556  -3.015  -0.749  0.00  0.00    +0.292 HD
ENDBRANCH  29  38
ENDBRANCH   1  26
TORSDOF 4
