REMARK  Name = ZINC16001219
REMARK  3 active torsions:
REMARK  status: ('A' for Active; 'I' for Inactive)
REMARK    1  A    between atoms: C_5  and  C_7
REMARK    2  A    between atoms: N_16  and  C_19
REMARK    3  A    between atoms: C_23  and  N_25
REMARK                            x       y       z     vdW  Elec       q    Type
REMARK                         _______ _______ _______ _____ _____    ______ ____
ROOT
ATOM      1  C   UNL     1       1.251  -2.159  -0.022  0.00  0.00    +0.081 C 
ATOM      2  N   UNL     1       0.141  -2.987   0.077  0.00  0.00    -0.264 N 
ATOM      3  O   UNL     1       0.633  -4.249   0.573  0.00  0.00    -0.256 OA
ATOM      4  C   UNL     1       1.838  -4.368  -0.198  0.00  0.00    +0.272 C 
ATOM      5  C   UNL     1       2.365  -2.926  -0.133  0.00  0.00    +0.081 C 
ATOM      6  H   UNL     1      -0.776  -2.763  -0.143  0.00  0.00    +0.194 HD
ATOM      7  C   UNL     1       3.751  -3.113  -0.123  0.00  0.00    +0.258 C 
ATOM      8  O   UNL     1       4.573  -2.311  -0.528  0.00  0.00    -0.269 OA
ATOM      9  N   UNL     1       4.035  -4.319   0.408  0.00  0.00    -0.204 N 
ATOM     10  C   UNL     1       2.942  -5.139   0.471  0.00  0.00    +0.263 C 
ATOM     11  O   UNL     1       2.869  -6.248   0.955  0.00  0.00    -0.271 OA
ENDROOT
BRANCH   1  16
ATOM     12  C   UNL     1       1.752   1.414  -1.058  0.00  0.00    +0.001 A 
ATOM     13  C   UNL     1       1.171   2.087   0.003  0.00  0.00    +0.001 A 
ATOM     14  C   UNL     1       0.616   1.383   1.056  0.00  0.00    +0.020 A 
ATOM     15  C   UNL     1       0.638   0.002   1.055  0.00  0.00    +0.050 A 
ATOM     16  C   UNL     1       1.223  -0.683  -0.013  0.00  0.00    +0.019 A 
ATOM     17  C   UNL     1       1.782   0.036  -1.073  0.00  0.00    +0.011 A 
ATOM     18 CL   UNL     1      -0.059  -0.880   2.378  0.00  0.00    -0.083 Cl
ENDBRANCH   1  16
BRANCH   9  19
ATOM     19  C   UNL     1       5.311  -4.697   0.845  0.00  0.00    +0.046 A 
ATOM     20  C   UNL     1       5.519  -5.964   1.375  0.00  0.00    +0.024 A 
ATOM     21  C   UNL     1       6.778  -6.333   1.804  0.00  0.00    +0.004 A 
ATOM     22  C   UNL     1       7.832  -5.443   1.709  0.00  0.00    +0.033 A 
ATOM     23  C   UNL     1       7.628  -4.181   1.182  0.00  0.00    +0.128 A 
ATOM     24  C   UNL     1       6.373  -3.808   0.744  0.00  0.00    +0.056 A 
BRANCH  23  25
ATOM     25  N   UNL     1       8.759  -3.231   1.082  0.00  0.00    +0.056 N 
ATOM     26  O   UNL     1       9.860  -3.558   1.460  0.00  0.00    -0.126 OA
ATOM     27  O   UNL     1       8.582  -2.127   0.622  0.00  0.00    -0.126 OA
ENDBRANCH  23  25
ENDBRANCH   9  19
TORSDOF 3
