REMARK  Name = ZINC63617329
REMARK  6 active torsions:
REMARK  status: ('A' for Active; 'I' for Inactive)
REMARK    1  A    between atoms: C_4  and  C_7
REMARK    2  A    between atoms: C_9  and  S_14
REMARK    3  A    between atoms: S_14  and  C_15
REMARK    4  A    between atoms: C_15  and  C_16
REMARK    5  A    between atoms: N_18  and  C_19
REMARK    6  A    between atoms: C_21  and  C_26
REMARK                            x       y       z     vdW  Elec       q    Type
REMARK                         _______ _______ _______ _____ _____    ______ ____
ROOT
ATOM      1  C   UNL     1      10.137  -0.122  -0.082  0.00  0.00    +0.226 C 
ATOM      2  O   UNL     1      10.157   1.090  -0.070  0.00  0.00    -0.275 OA
ATOM      3  N   UNL     1      11.294  -0.815  -0.097  0.00  0.00    -0.277 N 
ATOM      4  H   UNL     1      11.278  -1.784  -0.106  0.00  0.00    +0.152 HD
ENDROOT
BRANCH   3   5
ATOM      5  C   UNL     1      12.574  -0.102  -0.100  0.00  0.00    +0.305 C 
ATOM      6  C   UNL     1      13.614  -0.835  -0.981  0.00  0.00    +0.125 C 
ATOM      7  C   UNL     1      14.897  -0.654  -0.191  0.00  0.00    +0.139 C 
ATOM      8  N   UNL     1      14.595  -0.280   0.991  0.00  0.00    -0.094 NA
ATOM      9  O   UNL     1      13.201  -0.159   1.198  0.00  0.00    -0.370 OA
BRANCH   6  10
ATOM     10  C   UNL     1      13.267  -2.295  -1.117  0.00  0.00    -0.034 A 
ATOM     11  C   UNL     1      13.182  -3.094   0.008  0.00  0.00    +0.006 A 
ATOM     12  C   UNL     1      12.864  -4.433  -0.116  0.00  0.00    +0.020 A 
ATOM     13  C   UNL     1      12.629  -4.974  -1.367  0.00  0.00    +0.041 A 
ATOM     14  C   UNL     1      12.713  -4.175  -2.494  0.00  0.00    +0.020 A 
ATOM     15  C   UNL     1      13.027  -2.834  -2.367  0.00  0.00    +0.006 A 
ATOM     16 CL   UNL     1      12.229  -6.656  -1.525  0.00  0.00    -0.084 Cl
ENDBRANCH   6  10
ENDBRANCH   3   5
BRANCH   1  17
ATOM     17  C   UNL     1       8.820  -0.855  -0.078  0.00  0.00    +0.173 C 
BRANCH  17  18
ATOM     18  S   UNL     1       7.461   0.345  -0.056  0.00  0.00    -0.079 S 
BRANCH  18  21
ATOM     19  C   UNL     1       3.690  -0.677  -0.037  0.00  0.00    +0.060 C 
ATOM     20  N   UNL     1       4.830  -0.027  -0.040  0.00  0.00    -0.228 NA
ATOM     21  C   UNL     1       6.010  -0.654  -0.054  0.00  0.00    +0.181 C 
ATOM     22  N   UNL     1       6.173  -1.965  -0.068  0.00  0.00    -0.155 NA
ATOM     23  C   UNL     1       5.138  -2.805  -0.069  0.00  0.00    +0.244 C 
ATOM     24  O   UNL     1       5.300  -4.010  -0.081  0.00  0.00    -0.273 OA
ATOM     25  C   UNL     1       3.749  -2.193  -0.046  0.00  0.00    +0.154 C 
BRANCH  19  29
ATOM     26  C   UNL     1      -0.017   1.380   0.010  0.00  0.00    +0.000 A 
ATOM     27  C   UNL     1       1.168   2.096   0.002  0.00  0.00    +0.001 A 
ATOM     28  C   UNL     1       2.377   1.435  -0.013  0.00  0.00    +0.010 A 
ATOM     29  C   UNL     1       2.406   0.036  -0.021  0.00  0.00    -0.003 A 
ATOM     30  C   UNL     1       1.203  -0.681  -0.013  0.00  0.00    +0.010 A 
ATOM     31  C   UNL     1       0.002  -0.004   0.002  0.00  0.00    +0.001 A 
ENDBRANCH  19  29
ENDBRANCH  18  21
ENDBRANCH  17  18
ENDBRANCH   1  17
TORSDOF 6
