REMARK  Name = ZINC39479893
REMARK  4 active torsions:
REMARK  status: ('A' for Active; 'I' for Inactive)
REMARK    1  A    between atoms: C_1  and  N_2
REMARK    2  A    between atoms: C_8  and  O_9
REMARK    3  A    between atoms: C_12  and  S_21
REMARK    4  A    between atoms: S_21  and  C_22
REMARK                            x       y       z     vdW  Elec       q    Type
REMARK                         _______ _______ _______ _____ _____    ______ ____
ROOT
ATOM      1  C   UNL     1       0.326   1.385  -0.047  0.00  0.00    +0.137 C 
ATOM      2  N   UNL     1       0.407  -0.077   0.007  0.00  0.00    -0.283 N 
ATOM      3  C   UNL     1      -0.808  -0.717  -0.097  0.00  0.00    +0.081 A 
ATOM      4  C   UNL     1      -1.883   0.007   0.375  0.00  0.00    -0.013 A 
ATOM      5  C   UNL     1      -3.152  -0.134  -0.063  0.00  0.00    +0.044 A 
ATOM      6  C   UNL     1      -3.421  -1.293  -0.801  0.00  0.00    +0.127 A 
ATOM      7  C   UNL     1      -2.404  -2.204  -1.043  0.00  0.00    +0.085 A 
ATOM      8  C   UNL     1      -1.084  -1.933  -0.700  0.00  0.00    +0.141 A 
ATOM      9  F   UNL     1      -4.665  -1.523  -1.275  0.00  0.00    -0.205 F 
ATOM     10  C   UNL     1      -1.587   0.550   1.802  0.00  0.00    +0.099 C 
ATOM     11  C   UNL     1      -0.198  -0.014   2.054  0.00  0.00    +0.079 C 
ATOM     12  N   UNL     1       0.940   0.603   1.996  0.00  0.00    -0.239 NA
ATOM     13  C   UNL     1       2.002  -0.105   1.514  0.00  0.00    +0.142 A 
ATOM     14  C   UNL     1       1.674  -0.565   0.146  0.00  0.00    +0.156 A 
ATOM     15  N   UNL     1       2.540  -1.236  -0.514  0.00  0.00    -0.218 NA
ATOM     16  C   UNL     1       3.721  -1.530   0.022  0.00  0.00    +0.225 A 
ATOM     17  N   UNL     1       4.056  -1.151   1.240  0.00  0.00    -0.222 NA
ATOM     18  C   UNL     1       3.217  -0.440   2.018  0.00  0.00    +0.160 A 
ATOM     19 CL   UNL     1       3.676   0.046   3.619  0.00  0.00    -0.060 Cl
ENDROOT
BRANCH   8  20
ATOM     20  O   UNL     1      -0.095  -2.833  -0.949  0.00  0.00    -0.505 OA
ATOM     21  H   UNL     1       0.059  -3.457  -0.227  0.00  0.00    +0.292 HD
ENDBRANCH   8  20
BRANCH  11  22
ATOM     22  S   UNL     1      -0.126  -1.722   2.479  0.00  0.00    -0.113 S 
ATOM     23  C   UNL     1      -1.867  -2.209   2.635  0.00  0.00    +0.091 C 
ENDBRANCH  11  22
TORSDOF 2
