REMARK  Name = ZINC53735987
REMARK  4 active torsions:
REMARK  status: ('A' for Active; 'I' for Inactive)
REMARK    1  A    between atoms: C_3  and  N_8
REMARK    2  A    between atoms: C_12  and  N_19
REMARK    3  A    between atoms: C_16  and  C_17
REMARK    4  A    between atoms: C_17  and  O_18
REMARK                            x       y       z     vdW  Elec       q    Type
REMARK                         _______ _______ _______ _____ _____    ______ ____
ROOT
ATOM      1  N   UNL     1       3.585   2.125  -0.021  0.00  0.00    -0.294 N 
ATOM      2  C   UNL     1       4.520   2.150  -1.043  0.00  0.00    +0.074 A 
ATOM      3  C   UNL     1       4.600   1.545  -2.290  0.00  0.00    +0.030 A 
ATOM      4  C   UNL     1       5.692   1.776  -3.097  0.00  0.00    +0.025 A 
ATOM      5  C   UNL     1       6.720   2.615  -2.668  0.00  0.00    +0.027 A 
ATOM      6  C   UNL     1       6.655   3.223  -1.429  0.00  0.00    +0.052 A 
ATOM      7  C   UNL     1       5.551   2.996  -0.603  0.00  0.00    +0.091 A 
ATOM      8  N   UNL     1       5.204   3.436   0.634  0.00  0.00    -0.229 NA
ATOM      9  C   UNL     1       4.053   2.932   0.972  0.00  0.00    +0.141 A 
ENDROOT
BRANCH   1  12
ATOM     10  C   UNL     1      -0.017   1.378   0.010  0.00  0.00    +0.003 A 
ATOM     11  C   UNL     1       1.169   2.087   0.002  0.00  0.00    +0.026 A 
ATOM     12  C   UNL     1       2.381   1.409  -0.013  0.00  0.00    +0.049 A 
ATOM     13  C   UNL     1       2.397   0.021  -0.021  0.00  0.00    +0.040 A 
ATOM     14  C   UNL     1       1.208  -0.682  -0.013  0.00  0.00    +0.015 A 
ATOM     15  C   UNL     1       0.002  -0.004   0.002  0.00  0.00    +0.014 A 
ATOM     16  I   UNL     1       1.231  -2.777  -0.025  0.00  0.00    -0.044 I 
ENDBRANCH   1  12
BRANCH   5  17
ATOM     17  N   UNL     1       7.824   2.841  -3.497  0.00  0.00    -0.358 N 
ATOM     18  H   UNL     1       7.873   2.414  -4.367  0.00  0.00    +0.142 HD
ATOM     19  H   UNL     1       8.541   3.424  -3.202  0.00  0.00    +0.142 HD
ENDBRANCH   5  17
BRANCH   9  20
ATOM     20  C   UNL     1       3.342   3.199   2.274  0.00  0.00    +0.230 C 
BRANCH  20  21
ATOM     21  O   UNL     1       3.747   2.231   3.244  0.00  0.00    -0.387 OA
ATOM     22  H   UNL     1       3.328   2.341   4.109  0.00  0.00    +0.210 HD
ENDBRANCH  20  21
ENDBRANCH   9  20
TORSDOF 4
