REMARK  Name = ZINC19655693
REMARK  9 active torsions:
REMARK  status: ('A' for Active; 'I' for Inactive)
REMARK    1  A    between atoms: C_1  and  C_2
REMARK    2  A    between atoms: C_2  and  C_3
REMARK    3  A    between atoms: C_2  and  O_4
REMARK    4  A    between atoms: O_4  and  C_5
REMARK    5  A    between atoms: C_10  and  C_11
REMARK    6  A    between atoms: C_11  and  N_12
REMARK    7  A    between atoms: C_15  and  C_20
REMARK    8  A    between atoms: C_20  and  N_21
REMARK    9  A    between atoms: N_28  and  C_31
REMARK                            x       y       z     vdW  Elec       q    Type
REMARK                         _______ _______ _______ _____ _____    ______ ____
ROOT
ATOM      1  N   UNL     1       6.655   4.080  -3.915  0.00  0.00    -0.325 N 
ATOM      2  C   UNL     1       6.062   3.135  -3.095  0.00  0.00    +0.124 A 
ATOM      3  C   UNL     1       5.777   3.433  -1.760  0.00  0.00    +0.068 A 
ATOM      4  C   UNL     1       5.186   2.459  -0.980  0.00  0.00    +0.068 A 
ATOM      5  N   UNL     1       4.913   1.277  -1.513  0.00  0.00    -0.218 NA
ATOM      6  C   UNL     1       5.190   1.024  -2.784  0.00  0.00    +0.215 A 
ATOM      7  N   UNL     1       5.756   1.930  -3.566  0.00  0.00    -0.200 NA
ATOM      8  N   UNL     1       4.884  -0.221  -3.305  0.00  0.00    -0.327 N 
ATOM      9  H   UNL     1       6.876   3.837  -4.965  0.00  0.00    +0.148 HD
ATOM     10  H   UNL     1       5.107  -0.446  -4.359  0.00  0.00    +0.145 HD
ATOM     11  H   UNL     1       4.417  -0.986  -2.667  0.00  0.00    +0.145 HD
ENDROOT
BRANCH   1  12
ATOM     12  C   UNL     1       6.988   5.405  -3.384  0.00  0.00    +0.142 C 
BRANCH  12  18
ATOM     13  C   UNL     1       6.819   6.858  -5.421  0.00  0.00    +0.126 A 
ATOM     14  C   UNL     1       7.402   7.624  -6.420  0.00  0.00    +0.046 A 
ATOM     15  C   UNL     1       8.775   7.768  -6.466  0.00  0.00    +0.004 A 
ATOM     16  C   UNL     1       9.569   7.149  -5.517  0.00  0.00    +0.001 A 
ATOM     17  C   UNL     1       8.990   6.389  -4.518  0.00  0.00    +0.009 A 
ATOM     18  C   UNL     1       7.618   6.238  -4.471  0.00  0.00    +0.011 A 
BRANCH  13  19
ATOM     19  O   UNL     1       5.469   6.715  -5.373  0.00  0.00    -0.489 OA
BRANCH  19  21
ATOM     20  C   UNL     1       4.619   6.718  -7.636  0.00  0.00    +0.051 C 
ATOM     21  C   UNL     1       4.703   7.476  -6.309  0.00  0.00    +0.167 C 
ATOM     22  C   UNL     1       3.293   7.694  -5.756  0.00  0.00    +0.051 C 
ENDBRANCH  19  21
ENDBRANCH  13  19
ENDBRANCH  12  18
ENDBRANCH   1  12
BRANCH   4  23
ATOM     23  C   UNL     1       4.860   2.735   0.466  0.00  0.00    +0.182 C 
BRANCH  23  24
ATOM     24  N   UNL     1       3.467   3.173   0.577  0.00  0.00    -0.286 N 
ATOM     25  C   UNL     1       2.365   2.344   0.771  0.00  0.00    +0.070 A 
ATOM     26  C   UNL     1       2.219   0.972   0.910  0.00  0.00    +0.028 A 
ATOM     27  C   UNL     1       0.963   0.429   1.095  0.00  0.00    +0.002 A 
ATOM     28  C   UNL     1      -0.152   1.249   1.142  0.00  0.00    +0.002 A 
ATOM     29  C   UNL     1      -0.017   2.616   1.004  0.00  0.00    +0.028 A 
ATOM     30  C   UNL     1       1.241   3.170   0.818  0.00  0.00    +0.070 A 
ATOM     31  N   UNL     1       1.694   4.477   0.652  0.00  0.00    -0.295 N 
ATOM     32  C   UNL     1       3.033   4.446   0.510  0.00  0.00    +0.330 A 
ATOM     33  O   UNL     1       3.743   5.420   0.345  0.00  0.00    -0.246 OA
ATOM     34  C   UNL     1       0.858   5.679   0.634  0.00  0.00    +0.154 C 
ENDBRANCH  23  24
ENDBRANCH   4  23
TORSDOF 6
