REMARK  Name = ZINC33263901
REMARK  6 active torsions:
REMARK  status: ('A' for Active; 'I' for Inactive)
REMARK    1  A    between atoms: C_1  and  C_2
REMARK    2  A    between atoms: C_5  and  N_9
REMARK    3  A    between atoms: N_9  and  S_10
REMARK    4  A    between atoms: S_10  and  C_13
REMARK    5  A    between atoms: C_16  and  C_18
REMARK    6  A    between atoms: C_20  and  C_23
REMARK                            x       y       z     vdW  Elec       q    Type
REMARK                         _______ _______ _______ _____ _____    ______ ____
ROOT
ATOM      1  C   UNL     1      -4.098   1.644  -0.312  0.00  0.00    +0.264 A 
ATOM      2  C   UNL     1      -5.114   1.392   0.537  0.00  0.00    +0.072 A 
ATOM      3  C   UNL     1      -5.121   0.004   0.772  0.00  0.00    +0.053 A 
ATOM      4  C   UNL     1      -4.093  -0.521   0.053  0.00  0.00    +0.159 A 
ATOM      5  O   UNL     1      -3.482   0.487  -0.600  0.00  0.00    -0.435 OA
ENDROOT
BRANCH   4   6
ATOM      6  C   UNL     1      -3.713  -1.948  -0.004  0.00  0.00    +0.149 A 
ATOM      7  C   UNL     1      -2.646  -2.521  -0.754  0.00  0.00    +0.088 A 
ATOM      8  C   UNL     1      -2.717  -3.840  -0.465  0.00  0.00    +0.240 A 
ATOM      9  O   UNL     1      -3.751  -3.996   0.375  0.00  0.00    -0.350 OA
ATOM     10  N   UNL     1      -4.293  -2.944   0.623  0.00  0.00    -0.075 NA
BRANCH   8  11
ATOM     11  C   UNL     1      -1.814  -4.925  -0.991  0.00  0.00    +0.453 C 
ATOM     12  F   UNL     1      -0.726  -5.085  -0.126  0.00  0.00    -0.163 F 
ATOM     13  F   UNL     1      -2.526  -6.126  -1.072  0.00  0.00    -0.163 F 
ATOM     14  F   UNL     1      -1.350  -4.571  -2.262  0.00  0.00    -0.163 F 
ENDBRANCH   8  11
ENDBRANCH   4   6
BRANCH   1  15
ATOM     15  S   UNL     1      -3.650   3.229  -0.936  0.00  0.00    +0.125 S 
ATOM     16  O   UNL     1      -4.779   4.072  -0.754  0.00  0.00    -0.145 OA
ATOM     17  O   UNL     1      -3.059   3.012  -2.210  0.00  0.00    -0.145 OA
BRANCH  15  18
ATOM     18  N   UNL     1      -2.454   3.821   0.045  0.00  0.00    -0.095 NA
BRANCH  18  23
ATOM     19  C   UNL     1      -3.494   4.731   5.546  0.00  0.00    +0.045 C 
ATOM     20  C   UNL     1      -3.217   4.490   4.084  0.00  0.00    -0.032 A 
ATOM     21  C   UNL     1      -4.121   4.921   3.130  0.00  0.00    +0.007 A 
ATOM     22  C   UNL     1      -3.873   4.696   1.790  0.00  0.00    +0.027 A 
ATOM     23  C   UNL     1      -2.709   4.045   1.400  0.00  0.00    +0.076 A 
ATOM     24  C   UNL     1      -1.804   3.613   2.360  0.00  0.00    +0.047 A 
ATOM     25  C   UNL     1      -2.060   3.836   3.700  0.00  0.00    +0.046 A 
ATOM     26 CL   UNL     1      -0.928   3.297   4.901  0.00  0.00    -0.083 Cl
ENDBRANCH  18  23
ENDBRANCH  15  18
ENDBRANCH   1  15
TORSDOF 5
