REMARK  Name = ZINC36506464
REMARK  14 active torsions:
REMARK  status: ('A' for Active; 'I' for Inactive)
REMARK    1  A    between atoms: C_1  and  C_2
REMARK    2  A    between atoms: C_2  and  C_3
REMARK    3  A    between atoms: C_3  and  C_4
REMARK    4  A    between atoms: C_4  and  N_5
REMARK    5  A    between atoms: C_6  and  C_8
REMARK    6  A    between atoms: C_8  and  C_10
REMARK    7  A    between atoms: C_8  and  N_19
REMARK    8  A    between atoms: C_11  and  O_18
REMARK    9  A    between atoms: C_13  and  O_17
REMARK   10  A    between atoms: C_15  and  O_16
REMARK   11  A    between atoms: N_19  and  C_20
REMARK   12  A    between atoms: C_20  and  C_21
REMARK   13  A    between atoms: C_26  and  C_28
REMARK   14  A    between atoms: C_31  and  N_34
REMARK                            x       y       z     vdW  Elec       q    Type
REMARK                         _______ _______ _______ _____ _____    ______ ____
ROOT
ATOM      1  C   UNL     1       1.747  -4.394  -3.513  0.00  0.00    +0.200 C 
ENDROOT
BRANCH   1   2
ATOM      2  C   UNL     1       0.623  -3.869  -4.370  0.00  0.00    +0.065 A 
ATOM      3  C   UNL     1      -0.581  -4.555  -4.431  0.00  0.00    +0.129 A 
ATOM      4  C   UNL     1      -1.615  -4.073  -5.219  0.00  0.00    +0.091 A 
ATOM      5  C   UNL     1      -1.445  -2.904  -5.946  0.00  0.00    +0.124 A 
ATOM      6  C   UNL     1      -0.241  -2.218  -5.885  0.00  0.00    +0.091 A 
ATOM      7  C   UNL     1       0.791  -2.698  -5.093  0.00  0.00    +0.129 A 
BRANCH   7   8
ATOM      8  O   UNL     1       1.969  -2.023  -5.029  0.00  0.00    -0.506 OA
ATOM      9  H   UNL     1       2.614  -2.294  -5.696  0.00  0.00    +0.292 HD
ENDBRANCH   7   8
BRANCH   5  10
ATOM     10  O   UNL     1      -2.458  -2.432  -6.720  0.00  0.00    -0.507 OA
ATOM     11  H   UNL     1      -3.054  -1.825  -6.259  0.00  0.00    +0.292 HD
ENDBRANCH   5  10
BRANCH   3  12
ATOM     12  O   UNL     1      -0.747  -5.700  -3.718  0.00  0.00    -0.506 OA
ATOM     13  H   UNL     1      -1.172  -5.571  -2.859  0.00  0.00    +0.292 HD
ENDBRANCH   3  12
ENDBRANCH   1   2
BRANCH   1  15
ATOM     14  N   UNL     1       0.728  -3.623  -1.395  0.00  0.00    -0.313 N 
ATOM     15  C   UNL     1       1.240  -4.641  -2.116  0.00  0.00    +0.238 C 
ATOM     16  O   UNL     1       1.292  -5.755  -1.640  0.00  0.00    -0.273 OA
ATOM     17  H   UNL     1       0.686  -2.732  -1.776  0.00  0.00    +0.149 HD
BRANCH  14  18
ATOM     18  C   UNL     1       0.235  -3.863  -0.036  0.00  0.00    +0.104 C 
BRANCH  18  19
ATOM     19  C   UNL     1      -0.289  -2.553   0.555  0.00  0.00    +0.018 C 
BRANCH  19  21
ATOM     20  C   UNL     1      -1.327  -1.494   2.565  0.00  0.00    +0.004 C 
ATOM     21  C   UNL     1      -0.804  -2.804   1.974  0.00  0.00    -0.002 C 
ENDBRANCH  19  21
ENDBRANCH  18  19
ENDBRANCH  14  18
ENDBRANCH   1  15
BRANCH   1  22
ATOM     22  N   UNL     1       2.248  -5.648  -4.080  0.00  0.00    -0.274 N 
ATOM     23  C   UNL     1       3.132  -6.394  -3.388  0.00  0.00    +0.248 C 
ATOM     24  O   UNL     1       3.647  -7.364  -3.908  0.00  0.00    -0.270 OA
BRANCH  23  25
ATOM     25  C   UNL     1       3.476  -6.032  -1.996  0.00  0.00    +0.037 A 
ATOM     26  C   UNL     1       3.273  -4.728  -1.541  0.00  0.00    +0.015 A 
ATOM     27  C   UNL     1       3.595  -4.397  -0.241  0.00  0.00    +0.033 A 
ATOM     28  C   UNL     1       4.119  -5.353   0.610  0.00  0.00    +0.126 A 
ATOM     29  C   UNL     1       4.322  -6.647   0.165  0.00  0.00    +0.033 A 
ATOM     30  C   UNL     1       3.999  -6.993  -1.131  0.00  0.00    +0.015 A 
BRANCH  28  31
ATOM     31  N   UNL     1       4.463  -4.991   2.003  0.00  0.00    +0.056 N 
ATOM     32  O   UNL     1       4.286  -3.861   2.395  0.00  0.00    -0.126 OA
ATOM     33  O   UNL     1       4.920  -5.825   2.750  0.00  0.00    -0.126 OA
ENDBRANCH  28  31
ENDBRANCH  23  25
BRANCH  22  34
ATOM     34  C   UNL     1       1.789  -6.092  -5.398  0.00  0.00    +0.183 C 
BRANCH  34  35
ATOM     35  C   UNL     1       2.797  -5.688  -6.443  0.00  0.00    +0.122 A 
ATOM     36  C   UNL     1       3.782  -6.466  -6.927  0.00  0.00    +0.046 A 
ATOM     37  C   UNL     1       4.483  -5.692  -7.881  0.00  0.00    +0.041 A 
ATOM     38  C   UNL     1       3.885  -4.488  -7.922  0.00  0.00    +0.195 A 
ATOM     39  O   UNL     1       2.860  -4.494  -7.054  0.00  0.00    -0.466 OA
ENDBRANCH  34  35
ENDBRANCH  22  34
ENDBRANCH   1  22
TORSDOF 13
