REMARK  Name = ZINC24195513
REMARK  9 active torsions:
REMARK  status: ('A' for Active; 'I' for Inactive)
REMARK    1  A    between atoms: C_1  and  C_2
REMARK    2  A    between atoms: C_5  and  C_9
REMARK    3  A    between atoms: C_7  and  C_8
REMARK    4  A    between atoms: C_9  and  C_11
REMARK    5  A    between atoms: C_9  and  N_12
REMARK    6  A    between atoms: C_13  and  C_15
REMARK    7  A    between atoms: C_15  and  N_16
REMARK    8  A    between atoms: C_19  and  C_23
REMARK    9  A    between atoms: C_19  and  C_24
REMARK                            x       y       z     vdW  Elec       q    Type
REMARK                         _______ _______ _______ _____ _____    ______ ____
ROOT
ATOM      1  N   UNL     1       6.403   4.277   2.802  0.00  0.00    -0.215 N 
ATOM      2  C   UNL     1       6.267   5.005   3.927  0.00  0.00    +0.251 C 
ATOM      3  O   UNL     1       5.343   4.976   4.711  0.00  0.00    -0.272 OA
ATOM      4  C   UNL     1       7.510   5.869   4.010  0.00  0.00    +0.135 C 
ATOM      5  N   UNL     1       8.274   5.492   2.808  0.00  0.00    -0.281 N 
ATOM      6  C   UNL     1       7.550   4.554   2.171  0.00  0.00    +0.310 C 
ATOM      7  O   UNL     1       7.897   4.021   1.135  0.00  0.00    -0.252 OA
ATOM      8  C   UNL     1       8.304   5.551   5.278  0.00  0.00    +0.047 C 
ATOM      9  H   UNL     1       9.242   5.971   2.599  0.00  0.00    +0.152 HD
ENDROOT
BRANCH   4  10
ATOM     10  C   UNL     1       7.144   7.330   3.968  0.00  0.00    -0.012 A 
ATOM     11  C   UNL     1       5.929   7.752   4.475  0.00  0.00    +0.010 A 
ATOM     12  C   UNL     1       5.590   9.091   4.439  0.00  0.00    +0.050 A 
ATOM     13  C   UNL     1       6.468  10.016   3.892  0.00  0.00    +0.162 A 
ATOM     14  C   UNL     1       7.689   9.592   3.384  0.00  0.00    +0.162 A 
ATOM     15  C   UNL     1       8.026   8.247   3.428  0.00  0.00    +0.055 A 
ATOM     16  O   UNL     1       8.568  10.483   2.847  0.00  0.00    -0.485 OA
ATOM     17  C   UNL     1       8.043  11.765   2.486  0.00  0.00    +0.270 C 
ATOM     18  C   UNL     1       7.174  12.273   3.644  0.00  0.00    +0.270 C 
ATOM     19  O   UNL     1       6.118  11.331   3.859  0.00  0.00    -0.485 OA
ENDBRANCH   4  10
BRANCH   1  20
ATOM     20  C   UNL     1       5.420   3.298   2.330  0.00  0.00    +0.213 C 
BRANCH  20  22
ATOM     21  N   UNL     1       3.420   3.273   0.876  0.00  0.00    -0.307 N 
ATOM     22  C   UNL     1       4.423   3.981   1.430  0.00  0.00    +0.231 C 
ATOM     23  O   UNL     1       4.524   5.169   1.204  0.00  0.00    -0.274 OA
ATOM     24  H   UNL     1       3.329   2.196   1.081  0.00  0.00    +0.149 HD
BRANCH  21  25
ATOM     25  C   UNL     1       2.451   3.937   0.000  0.00  0.00    +0.100 C 
ATOM     26  C   UNL     1       3.004   3.990  -1.425  0.00  0.00    +0.033 C 
BRANCH  25  31
ATOM     27  C   UNL     1      -2.514   0.980   0.019  0.00  0.00    +0.044 C 
ATOM     28  C   UNL     1      -1.219   1.751   0.017  0.00  0.00    -0.048 A 
ATOM     29  C   UNL     1      -0.013   1.076   0.008  0.00  0.00    +0.004 A 
ATOM     30  C   UNL     1       1.175   1.783   0.000  0.00  0.00    +0.006 A 
ATOM     31  C   UNL     1       1.156   3.166   0.008  0.00  0.00    -0.027 A 
ATOM     32  C   UNL     1      -0.050   3.840   0.022  0.00  0.00    +0.009 A 
ATOM     33  C   UNL     1      -1.238   3.133   0.029  0.00  0.00    -0.047 A 
ATOM     34  C   UNL     1      -2.553   3.868   0.044  0.00  0.00    +0.044 C 
ENDBRANCH  25  31
ENDBRANCH  21  25
ENDBRANCH  20  22
ENDBRANCH   1  20
TORSDOF 5
