REMARK  Name = ZINC04966082
REMARK  5 active torsions:
REMARK  status: ('A' for Active; 'I' for Inactive)
REMARK    1  A    between atoms: C_1  and  C_2
REMARK    2  A    between atoms: C_4  and  C_26
REMARK    3  A    between atoms: C_11  and  C_14
REMARK    4  A    between atoms: N_16  and  C_17
REMARK    5  A    between atoms: C_23  and  C_25
REMARK                            x       y       z     vdW  Elec       q    Type
REMARK                         _______ _______ _______ _____ _____    ______ ____
ROOT
ATOM      1  C   UNL     1       6.025   1.208  -9.773  0.00  0.00    +0.066 C 
ATOM      2  C   UNL     1       5.830   0.328  -8.566  0.00  0.00    +0.044 A 
ATOM      3  C   UNL     1       6.437  -0.917  -8.499  0.00  0.00    +0.046 A 
ATOM      4  C   UNL     1       6.231  -1.695  -7.370  0.00  0.00    +0.044 A 
ATOM      5  N   UNL     1       5.466  -1.230  -6.397  0.00  0.00    -0.220 NA
ATOM      6  C   UNL     1       4.900  -0.035  -6.492  0.00  0.00    +0.218 A 
ATOM      7  N   UNL     1       5.072   0.731  -7.559  0.00  0.00    -0.220 NA
ATOM      8  N   UNL     1       4.106   0.420  -5.454  0.00  0.00    -0.300 N 
ATOM      9  C   UNL     1       3.572   1.757  -5.747  0.00  0.00    +0.108 C 
ATOM     10  C   UNL     1       2.822   2.288  -4.524  0.00  0.00    +0.032 C 
ATOM     11  C   UNL     1       1.681   1.328  -4.175  0.00  0.00    +0.078 C 
ATOM     12  C   UNL     1       2.257  -0.068  -3.922  0.00  0.00    +0.032 C 
ATOM     13  C   UNL     1       3.025  -0.530  -5.162  0.00  0.00    +0.108 C 
ATOM     14  C   UNL     1       6.871  -3.054  -7.254  0.00  0.00    +0.066 C 
ENDROOT
BRANCH  11  15
ATOM     15  C   UNL     1       0.976   1.814  -2.935  0.00  0.00    +0.216 C 
ATOM     16  O   UNL     1       1.347   2.829  -2.385  0.00  0.00    -0.276 OA
ATOM     17  N   UNL     1      -0.067   1.120  -2.437  0.00  0.00    -0.312 N 
ATOM     18  H   UNL     1      -0.363   0.308  -2.877  0.00  0.00    +0.149 HD
BRANCH  17  19
ATOM     19  C   UNL     1      -0.753   1.593  -1.232  0.00  0.00    +0.076 C 
ATOM     20  C   UNL     1      -0.013   1.086   0.008  0.00  0.00    +0.022 C 
ATOM     21  C   UNL     1      -0.729   1.579   1.267  0.00  0.00    +0.002 C 
ATOM     22  C   UNL     1      -2.164   1.050   1.278  0.00  0.00    +0.000 C 
ATOM     23  C   UNL     1      -2.904   1.556   0.038  0.00  0.00    +0.005 C 
ATOM     24  C   UNL     1      -2.188   1.063  -1.221  0.00  0.00    +0.006 C 
ATOM     25  C   UNL     1      -2.928   1.570  -2.460  0.00  0.00    +0.009 C 
ENDBRANCH  17  19
ENDBRANCH  11  15
TORSDOF 2
