REMARK  Name = ZINC11566907
REMARK  7 active torsions:
REMARK  status: ('A' for Active; 'I' for Inactive)
REMARK    1  A    between atoms: C_1  and  C_2
REMARK    2  A    between atoms: C_4  and  C_25
REMARK    3  A    between atoms: C_6  and  N_8
REMARK    4  A    between atoms: C_9  and  N_24
REMARK    5  A    between atoms: C_10  and  C_17
REMARK    6  A    between atoms: C_18  and  C_23
REMARK    7  A    between atoms: C_20  and  C_22
REMARK                            x       y       z     vdW  Elec       q    Type
REMARK                         _______ _______ _______ _____ _____    ______ ____
ROOT
ATOM      1  N   UNL     1      -3.629  -0.923   0.221  0.00  0.00    -0.250 N 
ATOM      2  C   UNL     1      -2.677  -0.290  -0.542  0.00  0.00    +0.119 A 
ATOM      3  C   UNL     1      -1.452  -0.910  -0.744  0.00  0.00    +0.104 A 
ATOM      4  C   UNL     1      -1.228  -2.178  -0.159  0.00  0.00    +0.265 A 
ATOM      5  O   UNL     1      -0.164  -2.750  -0.320  0.00  0.00    -0.267 OA
ATOM      6  N   UNL     1      -2.199  -2.746   0.583  0.00  0.00    -0.274 N 
ATOM      7  H   UNL     1      -2.040  -3.639   1.004  0.00  0.00    +0.173 HD
ATOM      8  C   UNL     1      -3.378  -2.127   0.765  0.00  0.00    +0.335 A 
ATOM      9  O   UNL     1      -4.236  -2.667   1.437  0.00  0.00    -0.246 OA
ENDROOT
BRANCH   1  15
ATOM     10  C   UNL     1      -8.282  -0.183  -1.190  0.00  0.00    +0.044 C 
ATOM     11  C   UNL     1      -7.143   0.066  -0.236  0.00  0.00    -0.048 A 
ATOM     12  C   UNL     1      -7.323   0.903   0.851  0.00  0.00    +0.006 A 
ATOM     13  C   UNL     1      -6.280   1.135   1.728  0.00  0.00    -0.048 A 
ATOM     14  C   UNL     1      -5.055   0.531   1.522  0.00  0.00    +0.029 A 
ATOM     15  C   UNL     1      -4.871  -0.310   0.433  0.00  0.00    +0.053 A 
ATOM     16  C   UNL     1      -5.919  -0.536  -0.450  0.00  0.00    +0.029 A 
ATOM     17  C   UNL     1      -6.480   2.047   2.911  0.00  0.00    +0.044 C 
ENDBRANCH   1  15
BRANCH   3  18
ATOM     18  C   UNL     1      -0.399  -0.258  -1.562  0.00  0.00    +0.090 A 
ATOM     19  C   UNL     1       0.789   0.130  -1.005  0.00  0.00    +0.015 A 
ATOM     20  S   UNL     1       1.611   0.824  -2.432  0.00  0.00    -0.077 S 
ATOM     21  C   UNL     1       0.344   0.541  -3.585  0.00  0.00    +0.076 A 
ATOM     22  N   UNL     1      -0.581  -0.035  -2.854  0.00  0.00    -0.244 NA
ATOM     23  C   UNL     1       0.315   0.872  -5.055  0.00  0.00    +0.073 C 
ATOM     24  C   UNL     1       1.270   0.006   0.418  0.00  0.00    +0.054 C 
ENDBRANCH   3  18
BRANCH   2  25
ATOM     25  N   UNL     1      -2.935   0.936  -1.098  0.00  0.00    -0.343 N 
ATOM     26  H   UNL     1      -2.266   1.368  -1.652  0.00  0.00    +0.144 HD
ATOM     27  H   UNL     1      -3.786   1.373  -0.937  0.00  0.00    +0.144 HD
ENDBRANCH   2  25
TORSDOF 3
