REMARK  Name = ZINC43222442
REMARK  9 active torsions:
REMARK  status: ('A' for Active; 'I' for Inactive)
REMARK    1  A    between atoms: C_1  and  C_2
REMARK    2  A    between atoms: C_2  and  C_4
REMARK    3  A    between atoms: C_2  and  C_31
REMARK    4  A    between atoms: C_4  and  N_5
REMARK    5  A    between atoms: C_6  and  C_8
REMARK    6  A    between atoms: C_13  and  C_15
REMARK    7  A    between atoms: N_17  and  C_18
REMARK    8  A    between atoms: C_18  and  C_20
REMARK    9  A    between atoms: C_18  and  C_21
REMARK                            x       y       z     vdW  Elec       q    Type
REMARK                         _______ _______ _______ _____ _____    ______ ____
ROOT
ATOM      1  C   UNL     1      -4.869  -2.992   0.985  0.00  0.00    +0.068 C 
ATOM      2  C   UNL     1      -3.521  -2.254   0.832  0.00  0.00    -0.069 C 
ATOM      3  N   UNL     1      -3.838  -0.831   1.117  0.00  0.00    +0.380 N 
ATOM      4  C   UNL     1      -4.804  -0.892   2.245  0.00  0.00    -0.069 C 
ATOM      5  C   UNL     1      -5.714  -2.098   1.916  0.00  0.00    +0.068 C 
ATOM      6  H   UNL     1      -3.006  -0.333   1.392  0.00  0.00    -0.086 HD
ATOM      7  H   UNL     1      -4.263  -0.396   0.312  0.00  0.00    -0.086 HD
ENDROOT
BRANCH   1   9
ATOM      8  N   UNL     1      -4.955  -3.857  -1.331  0.00  0.00    -0.315 N 
ATOM      9  C   UNL     1      -5.542  -3.136  -0.355  0.00  0.00    +0.215 C 
ATOM     10  O   UNL     1      -6.613  -2.603  -0.556  0.00  0.00    -0.276 OA
ATOM     11  H   UNL     1      -4.098  -4.283  -1.170  0.00  0.00    +0.149 HD
BRANCH   8  12
ATOM     12  C   UNL     1      -5.609  -3.997  -2.634  0.00  0.00    +0.112 C 
BRANCH  12  14
ATOM     13  C   UNL     1      -3.423  -4.129  -3.836  0.00  0.00    +0.014 C 
ATOM     14  C   UNL     1      -4.739  -4.857  -3.552  0.00  0.00    +0.033 C 
BRANCH  14  15
ATOM     15  C   UNL     1      -5.466  -5.103  -4.849  0.00  0.00    -0.043 A 
ATOM     16  C   UNL     1      -5.835  -4.037  -5.648  0.00  0.00    +0.004 A 
ATOM     17  C   UNL     1      -6.503  -4.263  -6.837  0.00  0.00    +0.000 A 
ATOM     18  C   UNL     1      -6.801  -5.555  -7.227  0.00  0.00    +0.000 A 
ATOM     19  C   UNL     1      -6.432  -6.621  -6.428  0.00  0.00    +0.000 A 
ATOM     20  C   UNL     1      -5.761  -6.395  -5.241  0.00  0.00    +0.004 A 
ENDBRANCH  14  15
ENDBRANCH  12  14
ENDBRANCH   8  12
ENDBRANCH   1   9
BRANCH   5  21
ATOM     21  C   UNL     1      -6.073  -2.844   3.175  0.00  0.00    +0.215 C 
ATOM     22  O   UNL     1      -5.696  -3.986   3.330  0.00  0.00    -0.276 OA
ATOM     23  N   UNL     1      -6.812  -2.243   4.128  0.00  0.00    -0.309 N 
ATOM     24  H   UNL     1      -7.113  -1.329   4.003  0.00  0.00    +0.149 HD
BRANCH  23  25
ATOM     25  C   UNL     1      -7.161  -2.968   5.351  0.00  0.00    +0.101 C 
ATOM     26  C   UNL     1      -7.450  -1.968   6.473  0.00  0.00    +0.033 C 
BRANCH  25  27
ATOM     27  C   UNL     1      -8.384  -3.813   5.103  0.00  0.00    -0.020 A 
ATOM     28  C   UNL     1      -9.254  -3.482   4.110  0.00  0.00    +0.006 A 
ATOM     29  C   UNL     1     -10.390  -4.250   3.866  0.00  0.00    +0.001 A 
ATOM     30  C   UNL     1     -10.664  -5.354   4.614  0.00  0.00    +0.008 A 
ATOM     31  C   UNL     1      -9.789  -5.727   5.648  0.00  0.00    -0.018 A 
ATOM     32  C   UNL     1      -8.630  -4.949   5.893  0.00  0.00    -0.013 A 
ATOM     33  C   UNL     1      -7.752  -5.325   6.924  0.00  0.00    +0.009 A 
ATOM     34  C   UNL     1      -8.022  -6.432   7.668  0.00  0.00    +0.001 A 
ATOM     35  C   UNL     1      -9.159  -7.201   7.423  0.00  0.00    +0.001 A 
ATOM     36  C   UNL     1     -10.038  -6.860   6.442  0.00  0.00    +0.008 A 
ENDBRANCH  25  27
ENDBRANCH  23  25
ENDBRANCH   5  21
TORSDOF 7
