REMARK  Name = ZINC12500868
REMARK  6 active torsions:
REMARK  status: ('A' for Active; 'I' for Inactive)
REMARK    1  A    between atoms: C_5  and  C_7
REMARK    2  A    between atoms: N_9  and  C_10
REMARK    3  A    between atoms: C_10  and  N_12
REMARK    4  A    between atoms: N_12  and  N_13
REMARK    5  A    between atoms: C_14  and  C_16
REMARK    6  A    between atoms: C_19  and  N_22
REMARK                            x       y       z     vdW  Elec       q    Type
REMARK                         _______ _______ _______ _____ _____    ______ ____
ROOT
ATOM      1  N   UNL     1       2.366   1.217  -0.014  0.00  0.00    -0.245 N 
ATOM      2  H   UNL     1       2.379   0.247  -0.019  0.00  0.00    +0.172 HD
ENDROOT
BRANCH   1   3
ATOM      3  N   UNL     1       1.143   1.901   0.001  0.00  0.00    -0.231 N 
ATOM      4  C   UNL     1      -0.014   1.211   0.009  0.00  0.00    +0.260 C 
ATOM      5  O   UNL     1       0.002  -0.004   0.002  0.00  0.00    -0.269 OA
ATOM      6  H   UNL     1       1.130   2.871   0.007  0.00  0.00    +0.173 HD
BRANCH   4   7
ATOM      7  C   UNL     1      -1.305   1.933   0.019  0.00  0.00    +0.038 A 
ATOM      8  C   UNL     1      -1.327   3.329   0.032  0.00  0.00    +0.015 A 
ATOM      9  C   UNL     1      -2.534   3.996   0.036  0.00  0.00    +0.033 A 
ATOM     10  C   UNL     1      -3.721   3.285   0.038  0.00  0.00    +0.126 A 
ATOM     11  C   UNL     1      -3.706   1.901   0.030  0.00  0.00    +0.033 A 
ATOM     12  C   UNL     1      -2.506   1.222   0.021  0.00  0.00    +0.015 A 
BRANCH  10  13
ATOM     13  N   UNL     1      -5.013   4.008   0.048  0.00  0.00    +0.056 N 
ATOM     14  O   UNL     1      -6.060   3.384   0.050  0.00  0.00    -0.126 OA
ATOM     15  O   UNL     1      -5.030   5.225   0.056  0.00  0.00    -0.126 OA
ENDBRANCH  10  13
ENDBRANCH   4   7
ENDBRANCH   1   3
BRANCH   1  16
ATOM     16  C   UNL     1       3.524   1.907  -0.021  0.00  0.00    +0.153 C 
ATOM     17  S   UNL     1       5.018   1.071  -0.040  0.00  0.00    -0.017 S 
BRANCH  16  20
ATOM     18  C   UNL     1       4.664   3.944  -0.021  0.00  0.00    +0.251 C 
ATOM     19  O   UNL     1       5.724   3.351  -0.035  0.00  0.00    -0.270 OA
ATOM     20  N   UNL     1       3.506   3.254  -0.014  0.00  0.00    -0.263 N 
ATOM     21  H   UNL     1       2.659   3.728  -0.003  0.00  0.00    +0.157 HD
BRANCH  18  26
ATOM     22  C   UNL     1       3.415   7.485   0.009  0.00  0.00    +0.001 A 
ATOM     23  C   UNL     1       4.606   8.191   0.002  0.00  0.00    +0.001 A 
ATOM     24  C   UNL     1       5.815   7.520  -0.013  0.00  0.00    +0.016 A 
ATOM     25  C   UNL     1       5.842   6.139  -0.021  0.00  0.00    +0.030 A 
ATOM     26  C   UNL     1       4.644   5.421  -0.013  0.00  0.00    +0.051 A 
ATOM     27  C   UNL     1       3.427   6.106  -0.004  0.00  0.00    +0.014 A 
ATOM     28 BR   UNL     1       7.496   5.223  -0.042  0.00  0.00    -0.050 Br
ENDBRANCH  18  26
ENDBRANCH  16  20
ENDBRANCH   1  16
TORSDOF 6
