REMARK  Name = ZINC04518548
REMARK  9 active torsions:
REMARK  status: ('A' for Active; 'I' for Inactive)
REMARK    1  A    between atoms: C_1  and  C_2
REMARK    2  A    between atoms: C_2  and  C_3
REMARK    3  A    between atoms: C_3  and  C_4
REMARK    4  A    between atoms: C_4  and  N_49
REMARK    5  A    between atoms: C_5  and  C_7
REMARK    6  A    between atoms: C_5  and  C_9
REMARK    7  A    between atoms: C_5  and  N_49
REMARK    8  A    between atoms: C_7  and  C_8
REMARK    9  A    between atoms: N_19  and  C_20
REMARK                            x       y       z     vdW  Elec       q    Type
REMARK                         _______ _______ _______ _____ _____    ______ ____
ROOT
ATOM      1  C   UNL     1      -3.516   3.770  -0.219  0.00  0.00    +0.103 A 
ATOM      2  N   UNL     1      -4.657   4.391  -0.207  0.00  0.00    -0.235 NA
ATOM      3  C   UNL     1      -4.731   5.744  -0.257  0.00  0.00    +0.078 A 
ATOM      4  C   UNL     1      -5.958   6.411  -0.250  0.00  0.00    +0.028 A 
ATOM      5  C   UNL     1      -5.986   7.787  -0.303  0.00  0.00    +0.002 A 
ATOM      6  C   UNL     1      -4.809   8.521  -0.364  0.00  0.00    +0.001 A 
ATOM      7  C   UNL     1      -3.587   7.886  -0.373  0.00  0.00    +0.015 A 
ATOM      8  C   UNL     1      -3.536   6.494  -0.320  0.00  0.00    +0.065 A 
ATOM      9  C   UNL     1      -2.261   5.763  -0.326  0.00  0.00    +0.266 A 
ATOM     10  O   UNL     1      -1.195   6.349  -0.378  0.00  0.00    -0.267 OA
ATOM     11  N   UNL     1      -2.317   4.411  -0.272  0.00  0.00    -0.266 N 
ENDROOT
BRANCH  11  12
ATOM     12  C   UNL     1      -1.131   3.666  -0.276  0.00  0.00    +0.053 A 
ATOM     13  C   UNL     1      -0.374   3.558   0.883  0.00  0.00    +0.029 A 
ATOM     14  C   UNL     1       0.795   2.823   0.878  0.00  0.00    +0.042 A 
ATOM     15  C   UNL     1       1.214   2.193  -0.282  0.00  0.00    +0.142 A 
ATOM     16  C   UNL     1       0.460   2.300  -1.440  0.00  0.00    +0.078 A 
ATOM     17  C   UNL     1      -0.708   3.039  -1.440  0.00  0.00    +0.049 A 
ATOM     18 CL   UNL     1       0.987   1.511  -2.894  0.00  0.00    -0.081 Cl
ATOM     19  F   UNL     1       2.358   1.475  -0.285  0.00  0.00    -0.204 F 
ENDBRANCH  11  12
BRANCH   1  20
ATOM     20  C   UNL     1      -3.521   2.264  -0.166  0.00  0.00    -0.004 C 
BRANCH  20  21
ATOM     21  N   UNL     1      -4.662   1.748  -0.945  0.00  0.00    +0.386 N 
ATOM     22  H   UNL     1      -4.931   0.826  -0.582  0.00  0.00    -0.085 HD
ATOM     23  H   UNL     1      -5.454   2.395  -0.856  0.00  0.00    -0.085 HD
BRANCH  21  24
ATOM     24  C   UNL     1      -4.295   1.621  -2.368  0.00  0.00    -0.082 C 
BRANCH  24  25
ATOM     25  C   UNL     1      -5.526   1.187  -3.167  0.00  0.00    -0.019 C 
BRANCH  25  27
ATOM     26  C   UNL     1      -6.358   0.501  -5.420  0.00  0.00    +0.004 C 
ATOM     27  C   UNL     1      -5.127   0.935  -4.622  0.00  0.00    -0.005 C 
ENDBRANCH  25  27
ENDBRANCH  24  25
ENDBRANCH  21  24
ENDBRANCH  20  21
BRANCH  20  28
ATOM     28  C   UNL     1      -3.655   1.805   1.287  0.00  0.00    -0.012 C 
ATOM     29  C   UNL     1      -3.573   0.279   1.349  0.00  0.00    +0.002 C 
ENDBRANCH  20  28
ENDBRANCH   1  20
TORSDOF 7
