REMARK  Name = ZINC24114630
REMARK  6 active torsions:
REMARK  status: ('A' for Active; 'I' for Inactive)
REMARK    1  A    between atoms: C_1  and  C_2
REMARK    2  A    between atoms: C_15  and  C_17
REMARK    3  A    between atoms: C_17  and  N_18
REMARK    4  A    between atoms: N_18  and  C_19
REMARK    5  A    between atoms: N_18  and  C_20
REMARK    6  A    between atoms: C_20  and  C_21
REMARK                            x       y       z     vdW  Elec       q    Type
REMARK                         _______ _______ _______ _____ _____    ______ ____
ROOT
ATOM      1  C   UNL     1      -0.019   1.526   0.010  0.00  0.00    +0.029 C 
ATOM      2  C   UNL     1       0.002  -0.004   0.002  0.00  0.00    +0.087 C 
ATOM      3  C   UNL     1       0.715  -0.496  -1.259  0.00  0.00    +0.118 C 
ATOM      4  C   UNL     1       1.097  -1.944  -1.106  0.00  0.00    +0.219 C 
ATOM      5  O   UNL     1       0.459  -2.800  -1.683  0.00  0.00    -0.275 OA
ATOM      6  N   UNL     1       2.146  -2.297  -0.332  0.00  0.00    -0.284 N 
ATOM      7  C   UNL     1       2.832  -1.333   0.416  0.00  0.00    +0.055 A 
ATOM      8  C   UNL     1       4.214  -1.255   0.377  0.00  0.00    +0.025 A 
ATOM      9  C   UNL     1       4.871  -0.309   1.143  0.00  0.00    +0.002 A 
ATOM     10  C   UNL     1       4.154   0.557   1.947  0.00  0.00    +0.002 A 
ATOM     11  C   UNL     1       2.773   0.492   1.984  0.00  0.00    +0.025 A 
ATOM     12  C   UNL     1       2.107  -0.445   1.211  0.00  0.00    +0.058 A 
ATOM     13  N   UNL     1       0.707  -0.488   1.190  0.00  0.00    -0.265 N 
ATOM     14  C   UNL     1       0.022  -0.966   2.248  0.00  0.00    +0.234 C 
ATOM     15  O   UNL     1      -1.190  -0.998   2.221  0.00  0.00    -0.274 OA
ATOM     16  H   UNL     1       2.425  -3.225  -0.293  0.00  0.00    +0.155 HD
ENDROOT
BRANCH  14  17
ATOM     17  C   UNL     1       0.762  -1.460   3.464  0.00  0.00    +0.181 C 
BRANCH  17  18
ATOM     18  N   UNL     1      -0.203  -1.925   4.469  0.00  0.00    -0.290 NA
ATOM     19  C   UNL     1      -0.927  -3.112   3.994  0.00  0.00    +0.105 C 
BRANCH  18  20
ATOM     20  C   UNL     1       0.460  -2.192   5.753  0.00  0.00    +0.158 C 
BRANCH  20  21
ATOM     21  C   UNL     1      -0.581  -2.427   6.817  0.00  0.00    +0.125 A 
ATOM     22  N   UNL     1      -0.163  -2.686   8.083  0.00  0.00    -0.309 N 
ATOM     23  H   UNL     1       0.784  -2.717   8.290  0.00  0.00    +0.170 HD
ATOM     24  C   UNL     1      -1.082  -2.901   9.055  0.00  0.00    +0.266 A 
ATOM     25  O   UNL     1      -0.740  -3.136  10.202  0.00  0.00    -0.267 OA
ATOM     26  C   UNL     1      -2.432  -2.845   8.707  0.00  0.00    +0.102 A 
ATOM     27  C   UNL     1      -2.838  -2.574   7.389  0.00  0.00    +0.085 A 
ATOM     28  N   UNL     1      -1.830  -2.367   6.480  0.00  0.00    -0.232 NA
ATOM     29  C   UNL     1      -4.223  -2.547   7.178  0.00  0.00    +0.036 A 
ATOM     30  C   UNL     1      -5.072  -2.772   8.204  0.00  0.00    +0.048 A 
ATOM     31  S   UNL     1      -3.964  -3.046   9.577  0.00  0.00    -0.090 S 
ENDBRANCH  20  21
ENDBRANCH  18  20
ENDBRANCH  17  18
ENDBRANCH  14  17
TORSDOF 4
