REMARK  Name = ZINC48144722
REMARK  11 active torsions:
REMARK  status: ('A' for Active; 'I' for Inactive)
REMARK    1  A    between atoms: C_1  and  C_2
REMARK    2  A    between atoms: C_2  and  O_3
REMARK    3  A    between atoms: O_3  and  C_4
REMARK    4  A    between atoms: C_7  and  N_11
REMARK    5  A    between atoms: C_8  and  C_10
REMARK    6  A    between atoms: N_14  and  C_15
REMARK    7  A    between atoms: C_15  and  C_16
REMARK    8  A    between atoms: C_16  and  C_18
REMARK    9  A    between atoms: C_16  and  N_25
REMARK   10  A    between atoms: N_25  and  C_26
REMARK   11  A    between atoms: N_25  and  C_27
REMARK                            x       y       z     vdW  Elec       q    Type
REMARK                         _______ _______ _______ _____ _____    ______ ____
ROOT
ATOM      1  N   UNL     1      -2.064  -6.080   0.290  0.00  0.00    -0.269 N 
ATOM      2  C   UNL     1      -0.982  -6.848   0.056  0.00  0.00    +0.304 C 
ATOM      3  O   UNL     1       0.120  -6.340  -0.019  0.00  0.00    -0.253 OA
ATOM      4  N   UNL     1      -1.121  -8.181  -0.094  0.00  0.00    -0.300 N 
ATOM      5  H   UNL     1      -2.933  -6.492   0.420  0.00  0.00    +0.156 HD
ATOM      6  H   UNL     1      -2.001  -8.586  -0.034  0.00  0.00    +0.150 HD
ENDROOT
BRANCH   1  10
ATOM      7  C   UNL     1      -1.678  -1.931   0.456  0.00  0.00    +0.121 A 
ATOM      8  C   UNL     1      -0.650  -2.742   0.915  0.00  0.00    +0.047 A 
ATOM      9  C   UNL     1      -0.778  -4.116   0.861  0.00  0.00    +0.027 A 
ATOM     10  C   UNL     1      -1.935  -4.686   0.346  0.00  0.00    +0.038 A 
ATOM     11  C   UNL     1      -2.963  -3.874  -0.113  0.00  0.00    -0.026 A 
ATOM     12  C   UNL     1      -2.836  -2.499  -0.053  0.00  0.00    +0.050 A 
ATOM     13  C   UNL     1      -4.219  -4.491  -0.671  0.00  0.00    +0.046 C 
BRANCH   7  14
ATOM     14  O   UNL     1      -1.552  -0.578   0.510  0.00  0.00    -0.492 OA
BRANCH  14  16
ATOM     15  C   UNL     1      -0.374   1.468   1.026  0.00  0.00    +0.048 C 
ATOM     16  C   UNL     1      -0.332  -0.061   1.046  0.00  0.00    +0.225 C 
ENDBRANCH  14  16
ENDBRANCH   7  14
ENDBRANCH   1  10
BRANCH   4  17
ATOM     17  C   UNL     1       0.055  -9.016  -0.348  0.00  0.00    +0.095 C 
BRANCH  17  18
ATOM     18  C   UNL     1      -0.389 -10.459  -0.599  0.00  0.00    -0.021 C 
BRANCH  18  19
ATOM     19  C   UNL     1      -1.040 -11.007   0.644  0.00  0.00    -0.059 A 
ATOM     20  C   UNL     1      -0.259 -11.460   1.691  0.00  0.00    +0.005 A 
ATOM     21  C   UNL     1      -0.856 -11.963   2.832  0.00  0.00    +0.038 A 
ATOM     22  C   UNL     1      -2.236 -12.013   2.926  0.00  0.00    +0.123 A 
ATOM     23  C   UNL     1      -3.018 -11.559   1.877  0.00  0.00    +0.038 A 
ATOM     24  C   UNL     1      -2.419 -11.052   0.739  0.00  0.00    +0.005 A 
ATOM     25  F   UNL     1      -2.820 -12.505   4.040  0.00  0.00    -0.205 F 
ENDBRANCH  18  19
BRANCH  18  26
ATOM     26  N   UNL     1       0.781 -11.278  -0.941  0.00  0.00    +0.382 N 
ATOM     27  C   UNL     1       0.344 -12.642  -1.271  0.00  0.00    -0.096 C 
ATOM     28  C   UNL     1       1.469 -10.691  -2.099  0.00  0.00    -0.096 C 
ATOM     29  H   UNL     1       1.412 -11.308  -0.155  0.00  0.00    -0.082 HD
ENDBRANCH  18  26
ENDBRANCH  17  18
ENDBRANCH   4  17
TORSDOF 7
