REMARK  Name = ZINC65313503
REMARK  4 active torsions:
REMARK  status: ('A' for Active; 'I' for Inactive)
REMARK    1  A    between atoms: C_1  and  C_2
REMARK    2  A    between atoms: C_5  and  N_8
REMARK    3  A    between atoms: C_9  and  C_11
REMARK    4  A    between atoms: N_16  and  C_18
REMARK                            x       y       z     vdW  Elec       q    Type
REMARK                         _______ _______ _______ _____ _____    ______ ____
ROOT
ATOM      1  C   UNL     1       2.519  -6.143   0.639  0.00  0.00    +0.092 C 
ATOM      2  C   UNL     1       1.212  -6.678   1.229  0.00  0.00    +0.016 C 
ATOM      3  C   UNL     1       1.207  -8.207   1.159  0.00  0.00    +0.020 C 
ATOM      4  C   UNL     1       2.372  -8.756   1.988  0.00  0.00    +0.105 C 
ATOM      5  N   UNL     1       3.619  -8.135   1.522  0.00  0.00    -0.328 N 
ATOM      6  C   UNL     1       3.700  -6.669   1.462  0.00  0.00    +0.118 C 
ENDROOT
BRANCH   5   7
ATOM      7  C   UNL     1       4.697  -8.915   1.145  0.00  0.00    +0.055 A 
ATOM      8  C   UNL     1       4.662 -10.315   1.328  0.00  0.00    +0.156 A 
ATOM      9  N   UNL     1       5.677 -11.052   0.973  0.00  0.00    -0.178 NA
ATOM     10  N   UNL     1       6.820 -10.479   0.406  0.00  0.00    -0.243 N 
ATOM     11  C   UNL     1       6.896  -9.148   0.213  0.00  0.00    +0.266 A 
ATOM     12  O   UNL     1       7.897  -8.655  -0.283  0.00  0.00    -0.266 OA
ATOM     13  C   UNL     1       5.817  -8.332   0.580  0.00  0.00    +0.096 A 
ATOM     14  H   UNL     1       7.565 -11.046   0.149  0.00  0.00    +0.192 HD
ENDBRANCH   5   7
BRANCH   1  16
ATOM     15  N   UNL     1       1.553  -3.951   0.022  0.00  0.00    -0.312 N 
ATOM     16  C   UNL     1       2.510  -4.636   0.680  0.00  0.00    +0.218 C 
ATOM     17  O   UNL     1       3.362  -4.041   1.303  0.00  0.00    -0.275 OA
ATOM     18  H   UNL     1       0.871  -4.427  -0.476  0.00  0.00    +0.149 HD
BRANCH  15  23
ATOM     19  C   UNL     1       0.075   1.583   0.161  0.00  0.00    +0.007 C 
ATOM     20  C   UNL     1       0.085   0.053   0.120  0.00  0.00    -0.014 C 
ATOM     21  C   UNL     1       0.817  -0.419  -1.138  0.00  0.00    +0.005 C 
ATOM     22  C   UNL     1       0.827  -1.948  -1.178  0.00  0.00    +0.022 C 
ATOM     23  C   UNL     1       1.544  -2.487   0.061  0.00  0.00    +0.073 C 
ATOM     24  C   UNL     1       0.812  -2.014   1.319  0.00  0.00    +0.022 C 
ATOM     25  C   UNL     1       0.802  -0.485   1.360  0.00  0.00    +0.005 C 
ENDBRANCH  15  23
ENDBRANCH   1  16
TORSDOF 3
