REMARK  Name = ZINC44173555
REMARK  6 active torsions:
REMARK  status: ('A' for Active; 'I' for Inactive)
REMARK    1  A    between atoms: C_4  and  C_7
REMARK    2  A    between atoms: C_8  and  C_9
REMARK    3  A    between atoms: N_17  and  C_20
REMARK    4  A    between atoms: C_24  and  N_26
REMARK    5  A    between atoms: C_29  and  C_31
REMARK    6  A    between atoms: C_29  and  C_37
REMARK                            x       y       z     vdW  Elec       q    Type
REMARK                         _______ _______ _______ _____ _____    ______ ____
ROOT
ATOM      1  C   UNL     1       4.979  -2.833  -0.020  0.00  0.00    -0.034 C 
ATOM      2  C   UNL     1       4.965  -3.804   1.157  0.00  0.00    +0.077 C 
ATOM      3  C   UNL     1       5.256  -2.745   2.287  0.00  0.00    +0.090 C 
ATOM      4  C   UNL     1       4.859  -3.461   3.476  0.00  0.00    +0.229 C 
ATOM      5  O   UNL     1       5.346  -3.382   4.583  0.00  0.00    -0.275 OA
ATOM      6  N   UNL     1       3.808  -4.250   3.080  0.00  0.00    -0.210 N 
ATOM      7  C   UNL     1       3.679  -4.330   1.709  0.00  0.00    +0.229 C 
ATOM      8  O   UNL     1       2.726  -4.734   1.077  0.00  0.00    -0.275 OA
ATOM      9  C   UNL     1       6.395  -1.985   1.759  0.00  0.00    +0.074 C 
ATOM     10  N   UNL     1       6.170  -1.966   0.264  0.00  0.00    +0.398 N 
ATOM     11  H   UNL     1       6.983  -2.339  -0.203  0.00  0.00    -0.083 HD
ATOM     12  H   UNL     1       5.992  -1.026  -0.054  0.00  0.00    -0.083 HD
ENDROOT
BRANCH   6  13
ATOM     13  C   UNL     1       2.959  -4.918   3.974  0.00  0.00    +0.046 A 
ATOM     14  C   UNL     1       3.155  -4.796   5.343  0.00  0.00    +0.024 A 
ATOM     15  C   UNL     1       2.317  -5.455   6.221  0.00  0.00    +0.004 A 
ATOM     16  C   UNL     1       1.284  -6.237   5.737  0.00  0.00    +0.033 A 
ATOM     17  C   UNL     1       1.086  -6.361   4.375  0.00  0.00    +0.128 A 
ATOM     18  C   UNL     1       1.917  -5.699   3.492  0.00  0.00    +0.056 A 
BRANCH  17  19
ATOM     19  N   UNL     1      -0.021  -7.198   3.861  0.00  0.00    +0.056 N 
ATOM     20  O   UNL     1      -0.752  -7.774   4.634  0.00  0.00    -0.126 OA
ATOM     21  O   UNL     1      -0.195  -7.307   2.670  0.00  0.00    -0.126 OA
ENDBRANCH  17  19
ENDBRANCH   6  13
BRANCH   9  22
ATOM     22  C   UNL     1       6.382  -0.577   2.297  0.00  0.00    -0.047 A 
ATOM     23  C   UNL     1       5.851  -0.320   3.547  0.00  0.00    +0.003 A 
ATOM     24  C   UNL     1       5.839   0.972   4.041  0.00  0.00    +0.000 A 
ATOM     25  C   UNL     1       6.357   2.006   3.284  0.00  0.00    +0.000 A 
ATOM     26  C   UNL     1       6.888   1.748   2.034  0.00  0.00    +0.000 A 
ATOM     27  C   UNL     1       6.904   0.457   1.542  0.00  0.00    +0.003 A 
ENDBRANCH   9  22
BRANCH   9  28
ATOM     28  C   UNL     1       7.692  -2.669   2.109  0.00  0.00    +0.350 C 
ATOM     29  O   UNL     1       8.442  -3.042   1.223  0.00  0.00    -0.248 OA
ATOM     30  O   UNL     1       7.990  -2.850   3.277  0.00  0.00    -0.248 OA
ENDBRANCH   9  28
BRANCH   1  32
ATOM     31  C   UNL     1       2.972  -1.973  -1.142  0.00  0.00    +0.002 C 
ATOM     32  C   UNL     1       3.716  -2.010  -0.046  0.00  0.00    -0.041 C 
BRANCH  31  36
ATOM     33  C   UNL     1      -0.755   0.064  -1.111  0.00  0.00    +0.000 A 
ATOM     34  C   UNL     1      -0.320  -0.559  -2.267  0.00  0.00    +0.001 A 
ATOM     35  C   UNL     1       0.890  -1.222  -2.284  0.00  0.00    +0.008 A 
ATOM     36  C   UNL     1       1.675  -1.263  -1.131  0.00  0.00    -0.025 A 
ATOM     37  C   UNL     1       1.231  -0.633   0.031  0.00  0.00    +0.008 A 
ATOM     38  C   UNL     1       0.019   0.027   0.035  0.00  0.00    +0.001 A 
ENDBRANCH  31  36
ENDBRANCH   1  32
TORSDOF 6
