REMARK  Name = ZINC41025849
REMARK  4 active torsions:
REMARK  status: ('A' for Active; 'I' for Inactive)
REMARK    1  A    between atoms: C_6  and  C_7
REMARK    2  A    between atoms: C_7  and  N_8
REMARK    3  A    between atoms: N_8  and  C_9
REMARK    4  A    between atoms: C_9  and  C_10
REMARK                            x       y       z     vdW  Elec       q    Type
REMARK                         _______ _______ _______ _____ _____    ______ ____
ROOT
ATOM      1  N   UNL     1      -1.787  -0.913  -1.362  0.00  0.00    -0.307 N 
ATOM      2  C   UNL     1      -2.526   0.181  -1.781  0.00  0.00    +0.151 A 
ATOM      3  C   UNL     1      -2.982   0.274  -3.098  0.00  0.00    +0.126 A 
ATOM      4  C   UNL     1      -3.726   1.403  -3.474  0.00  0.00    +0.183 A 
ATOM      5  N   UNL     1      -4.039   1.248  -4.775  0.00  0.00    -0.216 NA
ATOM      6  H   UNL     1      -2.433  -1.370  -4.292  0.00  0.00    +0.167 HD
ATOM      7  C   UNL     1      -3.548   0.123  -5.216  0.00  0.00    +0.199 A 
ATOM      8  N   UNL     1      -2.888  -0.516  -4.224  0.00  0.00    -0.340 N 
ATOM      9  N   UNL     1      -3.970   2.345  -2.558  0.00  0.00    -0.214 NA
ATOM     10  C   UNL     1      -3.520   2.216  -1.330  0.00  0.00    +0.225 A 
ATOM     11  N   UNL     1      -2.821   1.166  -0.936  0.00  0.00    -0.218 NA
ENDROOT
BRANCH   1  12
ATOM     12  C   UNL     1      -1.426  -1.056   0.051  0.00  0.00    +0.141 C 
BRANCH  12  18
ATOM     13  C   UNL     1       0.071   0.861   0.642  0.00  0.00    +0.008 A 
ATOM     14  C   UNL     1       1.326   1.401   0.853  0.00  0.00    +0.038 A 
ATOM     15  C   UNL     1       2.453   0.612   0.703  0.00  0.00    +0.123 A 
ATOM     16  C   UNL     1       2.323  -0.718   0.341  0.00  0.00    +0.038 A 
ATOM     17  C   UNL     1       1.068  -1.257   0.130  0.00  0.00    +0.008 A 
ATOM     18  C   UNL     1      -0.057  -0.468   0.281  0.00  0.00    -0.030 A 
ATOM     19  F   UNL     1       3.680   1.139   0.909  0.00  0.00    -0.205 F 
ENDBRANCH  12  18
ENDBRANCH   1  12
BRANCH   1  20
ATOM     20  C   UNL     1      -1.369  -1.929  -2.331  0.00  0.00    +0.138 C 
BRANCH  20  21
ATOM     21  C   UNL     1      -2.499  -2.940  -2.531  0.00  0.00    +0.136 C 
ATOM     22  C   UNL     1      -2.063  -4.044  -3.528  0.00  0.00    +0.035 C 
ATOM     23  C   UNL     1      -2.992  -5.212  -3.098  0.00  0.00    +0.031 C 
ATOM     24  C   UNL     1      -3.103  -4.999  -1.573  0.00  0.00    +0.160 C 
ATOM     25  O   UNL     1      -2.775  -3.630  -1.302  0.00  0.00    -0.375 OA
ENDBRANCH  20  21
ENDBRANCH   1  20
TORSDOF 4
