REMARK  Name = ZINC16081795
REMARK  5 active torsions:
REMARK  status: ('A' for Active; 'I' for Inactive)
REMARK    1  A    between atoms: C_3  and  N_26
REMARK    2  A    between atoms: C_6  and  N_7
REMARK    3  A    between atoms: N_10  and  C_13
REMARK    4  A    between atoms: C_13  and  C_14
REMARK    5  A    between atoms: C_23  and  O_24
REMARK                            x       y       z     vdW  Elec       q    Type
REMARK                         _______ _______ _______ _____ _____    ______ ____
ROOT
ATOM      1  N   UNL     1       1.162   3.483   0.009  0.00  0.00    -0.327 N 
ATOM      2  C   UNL     1       0.383   4.007  -1.121  0.00  0.00    +0.120 C 
ATOM      3  C   UNL     1       0.324   5.534  -1.032  0.00  0.00    +0.103 C 
ATOM      4  N   UNL     1       1.690   6.075  -1.042  0.00  0.00    -0.295 NA
ATOM      5  C   UNL     1       2.470   5.551   0.088  0.00  0.00    +0.103 C 
ATOM      6  C   UNL     1       2.529   4.024  -0.001  0.00  0.00    +0.120 C 
ENDROOT
BRANCH   1  12
ATOM      7  C   UNL     1      -0.017   1.377   0.010  0.00  0.00    +0.025 A 
ATOM      8  C   UNL     1       0.002  -0.004   0.002  0.00  0.00    +0.034 A 
ATOM      9  C   UNL     1       1.208  -0.681  -0.014  0.00  0.00    +0.126 A 
ATOM     10  C   UNL     1       2.399   0.022  -0.021  0.00  0.00    +0.034 A 
ATOM     11  C   UNL     1       2.387   1.403  -0.012  0.00  0.00    +0.025 A 
ATOM     12  C   UNL     1       1.178   2.086   0.002  0.00  0.00    +0.030 A 
BRANCH   9  13
ATOM     13  N   UNL     1       1.224  -2.161  -0.022  0.00  0.00    +0.056 N 
ATOM     14  O   UNL     1       0.176  -2.781  -0.015  0.00  0.00    -0.126 OA
ATOM     15  O   UNL     1       2.286  -2.758  -0.036  0.00  0.00    -0.126 OA
ENDBRANCH   9  13
ENDBRANCH   1  12
BRANCH   4  16
ATOM     16  C   UNL     1       1.674   7.544  -1.035  0.00  0.00    +0.124 C 
BRANCH  16  17
ATOM     17  C   UNL     1       1.083   8.047  -2.327  0.00  0.00    +0.016 A 
ATOM     18  C   UNL     1       1.913   8.302  -3.431  0.00  0.00    -0.010 A 
ATOM     19  C   UNL     1       3.301   8.088  -3.364  0.00  0.00    +0.010 A 
ATOM     20  C   UNL     1       4.074   8.340  -4.455  0.00  0.00    +0.016 A 
ATOM     21  C   UNL     1       3.510   8.803  -5.643  0.00  0.00    +0.018 A 
ATOM     22  C   UNL     1       2.169   9.018  -5.746  0.00  0.00    +0.023 A 
ATOM     23  C   UNL     1       1.339   8.769  -4.640  0.00  0.00    -0.016 A 
ATOM     24  C   UNL     1      -0.050   8.978  -4.710  0.00  0.00    +0.012 A 
ATOM     25  C   UNL     1      -0.825   8.727  -3.622  0.00  0.00    +0.046 A 
ATOM     26  C   UNL     1      -0.262   8.261  -2.429  0.00  0.00    +0.122 A 
ATOM     27 BR   UNL     1       4.624   9.140  -7.134  0.00  0.00    -0.050 Br
BRANCH  26  28
ATOM     28  O   UNL     1      -1.063   8.019  -1.359  0.00  0.00    -0.506 OA
ATOM     29  H   UNL     1      -2.147   8.190  -1.433  0.00  0.00    +0.292 HD
ENDBRANCH  26  28
ENDBRANCH  16  17
ENDBRANCH   4  16
TORSDOF 5
