REMARK  Name = ZINC55043354
REMARK  10 active torsions:
REMARK  status: ('A' for Active; 'I' for Inactive)
REMARK    1  A    between atoms: C_1  and  C_2
REMARK    2  A    between atoms: C_3  and  C_21
REMARK    3  A    between atoms: C_4  and  C_10
REMARK    4  A    between atoms: C_14  and  O_16
REMARK    5  A    between atoms: O_16  and  C_17
REMARK    6  A    between atoms: C_21  and  O_23
REMARK    7  A    between atoms: O_23  and  C_24
REMARK    8  A    between atoms: C_24  and  C_25
REMARK    9  A    between atoms: C_25  and  C_26
REMARK   10  A    between atoms: C_25  and  C_27
REMARK                            x       y       z     vdW  Elec       q    Type
REMARK                         _______ _______ _______ _____ _____    ______ ____
ROOT
ATOM      1  C   UNL     1       0.816   1.129  -0.307  0.00  0.00    +0.061 C 
ATOM      2  C   UNL     1       0.552  -0.354  -0.274  0.00  0.00    +0.019 C 
ATOM      3  C   UNL     1      -0.722  -0.802  -0.237  0.00  0.00    +0.078 C 
ATOM      4  C   UNL     1      -0.942  -2.301  -0.206  0.00  0.00    +0.141 C 
ATOM      5  N   UNL     1       0.260  -3.152  -0.218  0.00  0.00    -0.315 N 
ATOM      6  C   UNL     1       1.468  -2.555  -0.257  0.00  0.00    +0.135 C 
ATOM      7  S   UNL     1       2.874  -3.532  -0.272  0.00  0.00    -0.019 S 
ATOM      8  N   UNL     1       1.604  -1.224  -0.289  0.00  0.00    -0.300 N 
ATOM      9  H   UNL     1       0.184  -4.119  -0.200  0.00  0.00    +0.149 HD
ATOM     10  H   UNL     1       2.501  -0.856  -0.320  0.00  0.00    +0.154 HD
ENDROOT
BRANCH   4  11
ATOM     11  C   UNL     1      -1.785  -2.672  -1.398  0.00  0.00    -0.015 A 
ATOM     12  C   UNL     1      -3.113  -3.014  -1.224  0.00  0.00    +0.055 A 
ATOM     13  C   UNL     1      -3.894  -3.356  -2.318  0.00  0.00    +0.170 A 
ATOM     14  C   UNL     1      -3.337  -3.354  -3.593  0.00  0.00    +0.208 A 
ATOM     15  C   UNL     1      -2.002  -3.010  -3.763  0.00  0.00    +0.166 A 
ATOM     16  C   UNL     1      -1.230  -2.664  -2.664  0.00  0.00    +0.055 A 
ATOM     17  O   UNL     1      -4.299  -3.723  -4.489  0.00  0.00    -0.449 OA
ATOM     18  C   UNL     1      -5.336  -4.344  -3.707  0.00  0.00    +0.467 C 
ATOM     19  O   UNL     1      -5.204  -3.725  -2.413  0.00  0.00    -0.452 OA
BRANCH  15  20
ATOM     20  O   UNL     1      -1.454  -3.007  -5.008  0.00  0.00    -0.491 OA
ATOM     21  C   UNL     1      -0.076  -2.643  -5.109  0.00  0.00    +0.277 C 
ENDBRANCH  15  20
ENDBRANCH   4  11
BRANCH   3  22
ATOM     22  C   UNL     1      -1.813   0.097  -0.228  0.00  0.00    +0.339 C 
ATOM     23  O   UNL     1      -2.952  -0.327  -0.296  0.00  0.00    -0.245 OA
BRANCH  22  24
ATOM     24  O   UNL     1      -1.592   1.426  -0.143  0.00  0.00    -0.461 OA
BRANCH  24  25
ATOM     25  C   UNL     1      -2.740   2.269  -0.035  0.00  0.00    +0.235 C 
BRANCH  25  26
ATOM     26  C   UNL     1      -2.292   3.717   0.173  0.00  0.00    +0.020 C 
ATOM     27  C   UNL     1      -3.517   4.633   0.192  0.00  0.00    +0.010 C 
ATOM     28  C   UNL     1      -1.547   3.834   1.504  0.00  0.00    +0.010 C 
ENDBRANCH  25  26
ENDBRANCH  24  25
ENDBRANCH  22  24
ENDBRANCH   3  22
TORSDOF 6
