REMARK  Name = ZINC37055106
REMARK  4 active torsions:
REMARK  status: ('A' for Active; 'I' for Inactive)
REMARK    1  A    between atoms: C_6  and  N_7
REMARK    2  A    between atoms: N_7  and  S_8
REMARK    3  A    between atoms: S_8  and  C_11
REMARK    4  A    between atoms: C_14  and  N_18
REMARK                            x       y       z     vdW  Elec       q    Type
REMARK                         _______ _______ _______ _____ _____    ______ ____
ROOT
ATOM      1  C   UNL     1      -2.803  -2.959   0.014  0.00  0.00    +0.147 A 
ATOM      2  C   UNL     1      -3.446  -3.183   1.218  0.00  0.00    +0.071 A 
ATOM      3  C   UNL     1      -4.754  -3.629   1.232  0.00  0.00    +0.044 A 
ATOM      4  C   UNL     1      -5.423  -3.852   0.035  0.00  0.00    +0.027 A 
ATOM      5  C   UNL     1      -4.775  -3.626  -1.172  0.00  0.00    +0.044 A 
ATOM      6  C   UNL     1      -3.468  -3.175  -1.180  0.00  0.00    +0.071 A 
ATOM      7 CL   UNL     1      -2.659  -2.886  -2.688  0.00  0.00    -0.081 Cl
ATOM      8 CL   UNL     1      -2.610  -2.903   2.714  0.00  0.00    -0.081 Cl
ENDROOT
BRANCH   1   9
ATOM      9  S   UNL     1      -1.135  -2.389   0.001  0.00  0.00    +0.094 S 
ATOM     10  O   UNL     1      -0.585  -2.773  -1.252  0.00  0.00    -0.148 OA
ATOM     11  O   UNL     1      -0.561  -2.786   1.238  0.00  0.00    -0.148 OA
BRANCH   9  12
ATOM     12  N   UNL     1      -1.183  -0.734   0.010  0.00  0.00    -0.098 NA
BRANCH  12  18
ATOM     13  C   UNL     1      -0.017   1.391   0.010  0.00  0.00    +0.046 A 
ATOM     14  C   UNL     1       1.179   2.077   0.002  0.00  0.00    +0.112 A 
ATOM     15  N   UNL     1       2.330   1.431  -0.013  0.00  0.00    -0.263 NA
ATOM     16  C   UNL     1       2.390   0.112  -0.020  0.00  0.00    +0.112 A 
ATOM     17  C   UNL     1       1.239  -0.648  -0.013  0.00  0.00    +0.046 A 
ATOM     18  C   UNL     1       0.002  -0.004   0.002  0.00  0.00    +0.077 A 
ENDBRANCH  12  18
ENDBRANCH   9  12
ENDBRANCH   1   9
BRANCH   4  19
ATOM     19  N   UNL     1      -6.745  -4.304   0.046  0.00  0.00    -0.358 N 
ATOM     20  H   UNL     1      -7.196  -4.462   0.890  0.00  0.00    +0.142 HD
ATOM     21  H   UNL     1      -7.211  -4.460  -0.790  0.00  0.00    +0.142 HD
ENDBRANCH   4  19
TORSDOF 4
