REMARK  Name = ZINC09821192
REMARK  3 active torsions:
REMARK  status: ('A' for Active; 'I' for Inactive)
REMARK    1  A    between atoms: C_4  and  S_7
REMARK    2  A    between atoms: S_7  and  C_8
REMARK    3  A    between atoms: C_8  and  C_9
REMARK                            x       y       z     vdW  Elec       q    Type
REMARK                         _______ _______ _______ _____ _____    ______ ____
ROOT
ATOM      1  C   UNL     1       6.577  -0.069  -0.062  0.00  0.00    +0.142 A 
ATOM      2  N   UNL     1       7.181  -0.331   1.083  0.00  0.00    -0.216 NA
ATOM      3  C   UNL     1       8.373  -0.904   1.136  0.00  0.00    +0.133 A 
ATOM      4  C   UNL     1       9.031  -1.239  -0.079  0.00  0.00    +0.051 A 
ATOM      5  C   UNL     1      10.349  -1.869  -0.262  0.00  0.00    -0.025 A 
ATOM      6  C   UNL     1      10.748  -2.084  -1.526  0.00  0.00    -0.004 A 
ATOM      7  S   UNL     1       9.422  -1.472  -2.541  0.00  0.00    -0.073 S 
ATOM      8  C   UNL     1       8.329  -0.926  -1.257  0.00  0.00    +0.114 A 
ATOM      9  N   UNL     1       7.139  -0.357  -1.220  0.00  0.00    -0.224 NA
ATOM     10  C   UNL     1      12.104  -2.735  -1.591  0.00  0.00    +0.043 C 
ATOM     11  C   UNL     1      12.330  -3.302  -0.172  0.00  0.00    +0.010 C 
ATOM     12  C   UNL     1      11.446  -2.371   0.681  0.00  0.00    +0.037 C 
ATOM     13  N   UNL     1       8.972  -1.168   2.355  0.00  0.00    -0.312 N 
ATOM     14  C   UNL     1       8.156  -2.094   3.153  0.00  0.00    +0.125 C 
ATOM     15  C   UNL     1       8.889  -2.422   4.456  0.00  0.00    +0.125 C 
ATOM     16  N   UNL     1       9.146  -1.179   5.197  0.00  0.00    -0.307 N 
ATOM     17  C   UNL     1       9.963  -0.254   4.398  0.00  0.00    +0.125 C 
ATOM     18  C   UNL     1       9.230   0.075   3.095  0.00  0.00    +0.125 C 
ATOM     19  C   UNL     1       9.750  -1.445   6.426  0.00  0.00    +0.207 A 
ATOM     20  C   UNL     1       9.166  -2.433   7.348  0.00  0.00    +0.294 A 
ATOM     21  O   UNL     1       8.149  -3.030   7.048  0.00  0.00    -0.264 OA
ATOM     22  N   UNL     1       9.775  -2.668   8.529  0.00  0.00    -0.271 N 
ATOM     23  H   UNL     1       9.401  -3.317   9.146  0.00  0.00    +0.174 HD
ATOM     24  C   UNL     1      10.900  -2.004   8.852  0.00  0.00    +0.343 A 
ATOM     25  O   UNL     1      11.439  -2.225   9.919  0.00  0.00    -0.245 OA
ATOM     26  N   UNL     1      11.438  -1.100   8.014  0.00  0.00    -0.226 N 
ATOM     27  H   UNL     1      12.250  -0.635   8.271  0.00  0.00    +0.194 HD
ATOM     28  N   UNL     1      10.847  -0.825   6.775  0.00  0.00    -0.149 NA
ENDROOT
BRANCH   1  29
ATOM     29  C   UNL     1       5.218   0.581  -0.046  0.00  0.00    +0.150 C 
BRANCH  29  30
ATOM     30  S   UNL     1       3.935  -0.701  -0.012  0.00  0.00    -0.117 S 
BRANCH  30  34
ATOM     31  C   UNL     1       0.053   1.631   0.030  0.00  0.00    +0.000 A 
ATOM     32  C   UNL     1       1.262   2.304   0.003  0.00  0.00    +0.001 A 
ATOM     33  C   UNL     1       2.447   1.596  -0.009  0.00  0.00    +0.015 A 
ATOM     34  C   UNL     1       2.425   0.206   0.005  0.00  0.00    +0.008 A 
ATOM     35  C   UNL     1       1.209  -0.466   0.032  0.00  0.00    +0.015 A 
ATOM     36  C   UNL     1       0.028   0.249   0.044  0.00  0.00    +0.001 A 
ENDBRANCH  30  34
ENDBRANCH  29  30
ENDBRANCH   1  29
TORSDOF 3
