REMARK  Name = ZINC67104237
REMARK  6 active torsions:
REMARK  status: ('A' for Active; 'I' for Inactive)
REMARK    1  A    between atoms: C_1  and  C_2
REMARK    2  A    between atoms: C_2  and  C_3
REMARK    3  A    between atoms: C_2  and  C_4
REMARK    4  A    between atoms: C_4  and  C_5
REMARK    5  A    between atoms: C_5  and  C_6
REMARK    6  A    between atoms: N_8  and  N_9
REMARK                            x       y       z     vdW  Elec       q    Type
REMARK                         _______ _______ _______ _____ _____    ______ ____
ROOT
ATOM      1  N   UNL     1      -4.375  -4.388  -0.206  0.00  0.00    -0.218 N 
ATOM      2  C   UNL     1      -4.611  -5.698  -0.415  0.00  0.00    +0.319 C 
ATOM      3  O   UNL     1      -3.681  -6.474  -0.521  0.00  0.00    -0.251 OA
ATOM      4  N   UNL     1      -5.878  -6.148  -0.506  0.00  0.00    -0.280 N 
ATOM      5  C   UNL     1      -6.151  -7.589  -0.616  0.00  0.00    +0.115 C 
ATOM      6  C   UNL     1      -6.914  -8.033   0.642  0.00  0.00    +0.062 C 
ATOM      7  C   UNL     1      -7.959  -7.012   0.954  0.00  0.00    -0.004 A 
ATOM      8  C   UNL     1      -8.050  -5.738   0.485  0.00  0.00    -0.020 A 
ATOM      9  C   UNL     1      -9.126  -4.978   0.940  0.00  0.00    +0.013 A 
ATOM     10  C   UNL     1     -10.018  -5.518   1.802  0.00  0.00    +0.046 A 
ATOM     11  S   UNL     1      -9.368  -7.168   2.019  0.00  0.00    -0.101 S 
ATOM     12  C   UNL     1      -7.006  -5.207  -0.490  0.00  0.00    +0.145 C 
ATOM     13  H   UNL     1      -5.114  -3.781  -0.048  0.00  0.00    +0.174 HD
ENDROOT
BRANCH   1  16
ATOM     14  C   UNL     1      -2.830  -2.579  -0.110  0.00  0.00    +0.229 C 
ATOM     15  O   UNL     1      -3.760  -1.808  -0.003  0.00  0.00    -0.274 OA
ATOM     16  N   UNL     1      -3.060  -3.903  -0.217  0.00  0.00    -0.233 N 
ATOM     17  H   UNL     1      -2.317  -4.519  -0.303  0.00  0.00    +0.173 HD
BRANCH  14  18
ATOM     18  C   UNL     1      -1.416  -2.057  -0.122  0.00  0.00    +0.097 C 
BRANCH  18  19
ATOM     19  C   UNL     1      -1.434  -0.533   0.014  0.00  0.00    +0.012 C 
BRANCH  19  21
ATOM     20  C   UNL     1      -0.020   1.527   0.011  0.00  0.00    +0.007 C 
ATOM     21  C   UNL     1       0.001  -0.003   0.001  0.00  0.00    -0.017 C 
ATOM     22  C   UNL     1       0.743  -0.511   1.239  0.00  0.00    +0.007 C 
ENDBRANCH  19  21
ENDBRANCH  18  19
ENDBRANCH  14  18
ENDBRANCH   1  16
TORSDOF 4
