REMARK  Name = ZINC39943211
REMARK  9 active torsions:
REMARK  status: ('A' for Active; 'I' for Inactive)
REMARK    1  A    between atoms: C_7  and  C_10
REMARK    2  A    between atoms: C_10  and  C_12
REMARK    3  A    between atoms: C_12  and  O_13
REMARK    4  A    between atoms: O_13  and  C_14
REMARK    5  A    between atoms: C_14  and  C_16
REMARK    6  A    between atoms: C_16  and  C_17
REMARK    7  A    between atoms: C_17  and  N_18
REMARK    8  A    between atoms: N_18  and  S_19
REMARK    9  A    between atoms: S_19  and  C_22
REMARK                            x       y       z     vdW  Elec       q    Type
REMARK                         _______ _______ _______ _____ _____    ______ ____
ROOT
ATOM      1  C   UNL     1      -0.705  -7.803  -0.032  0.00  0.00    +0.137 C 
ENDROOT
BRANCH   1   2
ATOM      2  C   UNL     1       0.396  -6.774  -0.037  0.00  0.00    +0.309 C 
ATOM      3  O   UNL     1       1.552  -7.126  -0.050  0.00  0.00    -0.251 OA
BRANCH   2   4
ATOM      4  O   UNL     1       0.093  -5.467  -0.028  0.00  0.00    -0.457 OA
BRANCH   4   5
ATOM      5  C   UNL     1       1.187  -4.547  -0.033  0.00  0.00    +0.311 C 
BRANCH   5   6
ATOM      6  C   UNL     1       0.657  -3.136  -0.021  0.00  0.00    +0.199 C 
ATOM      7  O   UNL     1      -0.541  -2.938  -0.009  0.00  0.00    -0.289 OA
BRANCH   6  14
ATOM      8  C   UNL     1      -0.016   1.348   0.009  0.00  0.00    +0.001 A 
ATOM      9  C   UNL     1       1.158   2.117   0.002  0.00  0.00    +0.002 A 
ATOM     10  C   UNL     1       2.384   1.551  -0.012  0.00  0.00    +0.026 A 
ATOM     11  C   UNL     1       2.494   0.083  -0.021  0.00  0.00    +0.043 A 
ATOM     12  N   UNL     1       3.525  -0.712  -0.035  0.00  0.00    -0.380 N 
ATOM     13  C   UNL     1       3.065  -2.104  -0.039  0.00  0.00    +0.152 C 
ATOM     14  C   UNL     1       1.553  -2.046  -0.024  0.00  0.00    +0.026 C 
ATOM     15  C   UNL     1       1.234  -0.700  -0.013  0.00  0.00    +0.006 A 
ATOM     16  C   UNL     1       0.002  -0.004   0.002  0.00  0.00    +0.010 A 
ATOM     17  H   UNL     1       4.453  -0.428  -0.043  0.00  0.00    +0.160 HD
ENDBRANCH   6  14
ENDBRANCH   5   6
ENDBRANCH   4   5
ENDBRANCH   2   4
ENDBRANCH   1   2
BRANCH   1  18
ATOM     18  C   UNL     1      -0.093  -9.205  -0.045  0.00  0.00    +0.117 C 
BRANCH  18  19
ATOM     19  N   UNL     1      -1.163 -10.205  -0.041  0.00  0.00    -0.189 NA
ATOM     20  H   UNL     1      -2.070  -9.945   0.187  0.00  0.00    +0.148 HD
BRANCH  19  21
ATOM     21  S   UNL     1      -0.826 -11.781  -0.423  0.00  0.00    +0.059 S 
ATOM     22  O   UNL     1      -2.047 -12.498  -0.304  0.00  0.00    -0.153 OA
ATOM     23  O   UNL     1      -0.073 -11.754  -1.627  0.00  0.00    -0.153 OA
BRANCH  21  24
ATOM     24  C   UNL     1       0.247 -12.403   0.829  0.00  0.00    +0.109 A 
ATOM     25  C   UNL     1       1.616 -12.283   0.684  0.00  0.00    +0.032 A 
ATOM     26  C   UNL     1       2.465 -12.768   1.663  0.00  0.00    +0.051 A 
ATOM     27  C   UNL     1       1.937 -13.375   2.790  0.00  0.00    +0.162 A 
ATOM     28  C   UNL     1       0.562 -13.495   2.935  0.00  0.00    +0.164 A 
ATOM     29  C   UNL     1      -0.284 -13.004   1.956  0.00  0.00    +0.078 A 
ATOM     30  O   UNL     1       0.052 -14.094   4.050  0.00  0.00    -0.488 OA
ATOM     31  C   UNL     1       0.293 -15.497   4.172  0.00  0.00    +0.232 C 
ATOM     32  C   UNL     1       1.657 -15.758   4.792  0.00  0.00    +0.082 C 
ATOM     33  C   UNL     1       2.797 -15.278   3.907  0.00  0.00    +0.232 C 
ATOM     34  O   UNL     1       2.763 -13.857   3.764  0.00  0.00    -0.488 OA
ENDBRANCH  21  24
ENDBRANCH  19  21
ENDBRANCH  18  19
ENDBRANCH   1  18
TORSDOF 9
