REMARK  Name = ZINC12521561
REMARK  8 active torsions:
REMARK  status: ('A' for Active; 'I' for Inactive)
REMARK    1  A    between atoms: C_1  and  C_2
REMARK    2  A    between atoms: C_2  and  N_3
REMARK    3  A    between atoms: N_6  and  C_9
REMARK    4  A    between atoms: C_12  and  S_27
REMARK    5  A    between atoms: C_14  and  N_15
REMARK    6  A    between atoms: C_16  and  C_18
REMARK    7  A    between atoms: C_19  and  C_20
REMARK    8  A    between atoms: S_27  and  N_30
REMARK                            x       y       z     vdW  Elec       q    Type
REMARK                         _______ _______ _______ _____ _____    ______ ____
ROOT
ATOM      1  C   UNL     1       3.667  -2.753  -2.987  0.00  0.00    +0.051 A 
ATOM      2  C   UNL     1       4.362  -3.384  -1.966  0.00  0.00    +0.027 A 
ATOM      3  C   UNL     1       5.426  -4.214  -2.265  0.00  0.00    +0.030 A 
ATOM      4  C   UNL     1       5.800  -4.419  -3.581  0.00  0.00    +0.107 A 
ATOM      5  C   UNL     1       5.113  -3.794  -4.605  0.00  0.00    +0.053 A 
ATOM      6  C   UNL     1       4.041  -2.963  -4.314  0.00  0.00    +0.057 A 
ENDROOT
BRANCH   1  10
ATOM      7  N   UNL     1       0.697  -0.500  -1.192  0.00  0.00    +0.382 N 
ATOM      8  C   UNL     1       2.105  -0.087  -1.145  0.00  0.00    -0.060 C 
ATOM      9  C   UNL     1       2.793  -0.473  -2.459  0.00  0.00    +0.086 C 
ATOM     10  N   UNL     1       2.589  -1.912  -2.687  0.00  0.00    -0.332 N 
ATOM     11  C   UNL     1       1.220  -2.442  -2.590  0.00  0.00    +0.086 C 
ATOM     12  C   UNL     1       0.607  -1.963  -1.270  0.00  0.00    -0.060 C 
ATOM     13  H   UNL     1       0.257  -0.093  -2.004  0.00  0.00    -0.082 HD
BRANCH   7  15
ATOM     14  C   UNL     1      -0.005   1.497   0.040  0.00  0.00    -0.017 C 
ATOM     15  C   UNL     1       0.011  -0.033   0.020  0.00  0.00    -0.082 C 
ENDBRANCH   7  15
ENDBRANCH   1  10
BRANCH   6  16
ATOM     16  N   UNL     1       3.340  -2.333  -5.350  0.00  0.00    -0.280 N 
ATOM     17  C   UNL     1       3.994  -1.925  -6.456  0.00  0.00    +0.241 C 
ATOM     18  O   UNL     1       5.178  -2.176  -6.590  0.00  0.00    -0.270 OA
ATOM     19  H   UNL     1       2.384  -2.191  -5.272  0.00  0.00    +0.155 HD
BRANCH  17  20
ATOM     20  C   UNL     1       3.282  -1.180  -7.494  0.00  0.00    +0.068 C 
ATOM     21  C   UNL     1       3.936  -0.772  -8.601  0.00  0.00    +0.013 C 
BRANCH  21  22
ATOM     22  C   UNL     1       3.220  -0.023  -9.645  0.00  0.00    -0.025 A 
ATOM     23  C   UNL     1       1.861   0.272  -9.491  0.00  0.00    +0.011 A 
ATOM     24  C   UNL     1       1.196   0.973 -10.473  0.00  0.00    +0.039 A 
ATOM     25  C   UNL     1       1.871   1.387 -11.611  0.00  0.00    +0.123 A 
ATOM     26  C   UNL     1       3.218   1.098 -11.770  0.00  0.00    +0.039 A 
ATOM     27  C   UNL     1       3.896   0.402 -10.794  0.00  0.00    +0.011 A 
ATOM     28  F   UNL     1       1.213   2.075 -12.570  0.00  0.00    -0.205 F 
ENDBRANCH  21  22
ENDBRANCH  17  20
ENDBRANCH   6  16
BRANCH   4  29
ATOM     29  S   UNL     1       7.157  -5.479  -3.953  0.00  0.00    +0.061 S 
ATOM     30  O   UNL     1       7.652  -5.076  -5.223  0.00  0.00    -0.153 OA
ATOM     31  O   UNL     1       7.977  -5.513  -2.792  0.00  0.00    -0.153 OA
BRANCH  29  32
ATOM     32  N   UNL     1       6.547  -7.006  -4.146  0.00  0.00    -0.177 NA
ATOM     33  C   UNL     1       6.431  -7.916  -2.998  0.00  0.00    +0.109 C 
ATOM     34  C   UNL     1       4.988  -8.425  -2.917  0.00  0.00    +0.017 C 
ATOM     35  C   UNL     1       4.596  -9.051  -4.258  0.00  0.00    +0.003 C 
ATOM     36  C   UNL     1       4.673  -7.991  -5.359  0.00  0.00    +0.017 C 
ATOM     37  C   UNL     1       6.106  -7.475  -5.467  0.00  0.00    +0.109 C 
ENDBRANCH  29  32
ENDBRANCH   4  29
TORSDOF 7
