REMARK  Name = ZINC53103552
REMARK  9 active torsions:
REMARK  status: ('A' for Active; 'I' for Inactive)
REMARK    1  A    between atoms: C_1  and  C_2
REMARK    2  A    between atoms: C_5  and  C_8
REMARK    3  A    between atoms: C_5  and  N_10
REMARK    4  A    between atoms: C_8  and  O_9
REMARK    5  A    between atoms: C_11  and  C_13
REMARK    6  A    between atoms: C_13  and  C_15
REMARK    7  A    between atoms: C_13  and  N_18
REMARK    8  A    between atoms: C_15  and  C_16
REMARK    9  A    between atoms: C_15  and  C_17
REMARK                            x       y       z     vdW  Elec       q    Type
REMARK                         _______ _______ _______ _____ _____    ______ ____
ROOT
ATOM      1  N   UNL     1       2.640  -2.124  -0.133  0.00  0.00    -0.306 N 
ATOM      2  C   UNL     1       3.687  -2.603  -0.834  0.00  0.00    +0.234 C 
ATOM      3  O   UNL     1       4.349  -1.856  -1.522  0.00  0.00    -0.274 OA
ATOM      4  H   UNL     1       2.158  -2.704   0.478  0.00  0.00    +0.149 HD
ENDROOT
BRANCH   1   9
ATOM      5  C   UNL     1      -0.917   0.353  -1.482  0.00  0.00    +0.007 C 
ATOM      6  C   UNL     1      -0.489  -1.107  -1.316  0.00  0.00    -0.014 C 
ATOM      7  C   UNL     1       0.739  -1.380  -2.187  0.00  0.00    +0.005 C 
ATOM      8  C   UNL     1       1.884  -0.461  -1.758  0.00  0.00    +0.028 C 
ATOM      9  C   UNL     1       2.230  -0.727  -0.292  0.00  0.00    +0.058 C 
ATOM     10  C   UNL     1       1.002  -0.453   0.580  0.00  0.00    +0.028 C 
ATOM     11  C   UNL     1      -0.143  -1.373   0.150  0.00  0.00    +0.005 C 
BRANCH   9  12
ATOM     12  C   UNL     1       3.375   0.193   0.137  0.00  0.00    +0.181 C 
BRANCH  12  13
ATOM     13  O   UNL     1       3.747  -0.106   1.484  0.00  0.00    -0.393 OA
ATOM     14  H   UNL     1       4.470   0.440   1.823  0.00  0.00    +0.209 HD
ENDBRANCH  12  13
ENDBRANCH   9  12
ENDBRANCH   1   9
BRANCH   2  15
ATOM     15  C   UNL     1       4.034  -4.068  -0.762  0.00  0.00    +0.163 C 
BRANCH  15  16
ATOM     16  N   UNL     1       4.905  -4.418  -1.887  0.00  0.00    -0.288 N 
ATOM     17  C   UNL     1       4.946  -5.688  -2.337  0.00  0.00    +0.298 C 
ATOM     18  O   UNL     1       4.260  -6.542  -1.811  0.00  0.00    -0.253 OA
ATOM     19  N   UNL     1       5.748  -6.010  -3.372  0.00  0.00    -0.313 N 
ATOM     20  H   UNL     1       5.453  -3.736  -2.307  0.00  0.00    +0.151 HD
ATOM     21  H   UNL     1       6.296  -5.328  -3.792  0.00  0.00    +0.146 HD
ATOM     22  H   UNL     1       5.778  -6.924  -3.696  0.00  0.00    +0.146 HD
ENDBRANCH  15  16
BRANCH  15  23
ATOM     23  C   UNL     1       4.758  -4.357   0.554  0.00  0.00    +0.012 C 
ATOM     24  C   UNL     1       5.965  -3.425   0.687  0.00  0.00    +0.009 C 
ATOM     25  C   UNL     1       3.802  -4.122   1.725  0.00  0.00    +0.009 C 
ENDBRANCH  15  23
ENDBRANCH   2  15
TORSDOF 6
