REMARK  Name = ZINC04787247
REMARK  4 active torsions:
REMARK  status: ('A' for Active; 'I' for Inactive)
REMARK    1  A    between atoms: C_4  and  O_27
REMARK    2  A    between atoms: C_5  and  C_7
REMARK    3  A    between atoms: C_9  and  C_20
REMARK    4  A    between atoms: C_11  and  C_14
REMARK                            x       y       z     vdW  Elec       q    Type
REMARK                         _______ _______ _______ _____ _____    ______ ____
ROOT
ATOM      1  C   UNL     1      -0.149   2.423   2.245  0.00  0.00    +0.044 C 
ATOM      2  N   UNL     1      -0.726   1.967   1.197  0.00  0.00    -0.298 NA
ATOM      3  C   UNL     1      -0.018   1.503   0.010  0.00  0.00    +0.081 C 
ATOM      4  C   UNL     1       2.020   1.708   1.283  0.00  0.00    -0.030 C 
ATOM      5  C   UNL     1       1.344   2.546   2.373  0.00  0.00    +0.044 C 
ATOM      6  N   UNL     1       1.363   2.007  -0.004  0.00  0.00    +0.401 N 
ATOM      7  H   UNL     1       1.353   3.023  -0.153  0.00  0.00    -0.081 HD
ATOM      8  H   UNL     1       1.883   1.555  -0.765  0.00  0.00    -0.081 HD
ENDROOT
BRANCH   3   9
ATOM      9  C   UNL     1       0.002  -0.004   0.002  0.00  0.00    -0.040 A 
ATOM     10  C   UNL     1       1.040  -0.678  -0.615  0.00  0.00    +0.005 A 
ATOM     11  C   UNL     1       1.061  -2.060  -0.619  0.00  0.00    +0.015 A 
ATOM     12  C   UNL     1       0.039  -2.769  -0.014  0.00  0.00    +0.018 A 
ATOM     13  C   UNL     1      -1.002  -2.094   0.599  0.00  0.00    +0.015 A 
ATOM     14  C   UNL     1      -1.020  -0.712   0.607  0.00  0.00    +0.005 A 
ATOM     15 BR   UNL     1       0.065  -4.660  -0.024  0.00  0.00    -0.050 Br
ENDBRANCH   3   9
BRANCH   1  20
ATOM     16  C   UNL     1      -1.188   3.749   5.598  0.00  0.00    +0.001 A 
ATOM     17  C   UNL     1      -2.567   3.651   5.514  0.00  0.00    +0.004 A 
ATOM     18  C   UNL     1      -3.164   3.155   4.372  0.00  0.00    +0.046 A 
ATOM     19  C   UNL     1      -2.385   2.756   3.297  0.00  0.00    +0.126 A 
ATOM     20  C   UNL     1      -0.989   2.849   3.380  0.00  0.00    +0.037 A 
ATOM     21  C   UNL     1      -0.397   3.352   4.541  0.00  0.00    +0.013 A 
BRANCH  19  22
ATOM     22  O   UNL     1      -2.971   2.274   2.172  0.00  0.00    -0.506 OA
ATOM     23  H   UNL     1      -3.106   1.317   2.179  0.00  0.00    +0.292 HD
ENDBRANCH  19  22
ENDBRANCH   1  20
BRANCH   4  24
ATOM     24  C   UNL     1       3.481   2.067   1.199  0.00  0.00    -0.043 A 
ATOM     25  C   UNL     1       4.439   1.249   1.780  0.00  0.00    +0.005 A 
ATOM     26  C   UNL     1       5.772   1.618   1.677  0.00  0.00    +0.020 A 
ATOM     27  C   UNL     1       6.099   2.781   1.004  0.00  0.00    +0.111 A 
ATOM     28  N   UNL     1       5.161   3.534   0.465  0.00  0.00    -0.263 NA
ATOM     29  C   UNL     1       3.884   3.211   0.537  0.00  0.00    +0.112 A 
ENDBRANCH   4  24
TORSDOF 4
