REMARK  Name = ZINC40816512
REMARK  6 active torsions:
REMARK  status: ('A' for Active; 'I' for Inactive)
REMARK    1  A    between atoms: C_1  and  C_2
REMARK    2  A    between atoms: C_9  and  C_12
REMARK    3  A    between atoms: N_14  and  C_15
REMARK    4  A    between atoms: C_16  and  C_24
REMARK    5  A    between atoms: C_17  and  C_22
REMARK    6  A    between atoms: C_20  and  C_21
REMARK                            x       y       z     vdW  Elec       q    Type
REMARK                         _______ _______ _______ _____ _____    ______ ____
ROOT
ATOM      1  C   UNL     1      -0.513  -5.726   2.063  0.00  0.00    +0.266 C 
ATOM      2  O   UNL     1      -1.229  -5.908   3.029  0.00  0.00    -0.268 OA
ATOM      3  N   UNL     1       0.251  -6.732   1.592  0.00  0.00    -0.279 N 
ATOM      4  H   UNL     1       0.767  -6.610   0.779  0.00  0.00    +0.155 HD
ENDROOT
BRANCH   1  13
ATOM      5  C   UNL     1      -1.268   1.300  -0.283  0.00  0.00    +0.044 C 
ATOM      6  C   UNL     1      -0.809  -0.132  -0.180  0.00  0.00    -0.050 A 
ATOM      7  C   UNL     1       0.118  -0.625  -1.090  0.00  0.00    +0.005 A 
ATOM      8  C   UNL     1       0.550  -1.930  -1.014  0.00  0.00    +0.026 A 
ATOM      9  C   UNL     1       0.056  -2.766  -0.016  0.00  0.00    +0.048 A 
ATOM     10  C   UNL     1      -0.883  -2.264   0.905  0.00  0.00    +0.019 A 
ATOM     11  C   UNL     1      -1.303  -0.931   0.810  0.00  0.00    +0.014 A 
ATOM     12  C   UNL     1      -1.202  -3.323   1.790  0.00  0.00    +0.078 A 
ATOM     13  C   UNL     1      -0.480  -4.412   1.410  0.00  0.00    +0.122 A 
ATOM     14  N   UNL     1       0.290  -4.081   0.309  0.00  0.00    -0.349 N 
ATOM     15  H   UNL     1       0.895  -4.679  -0.157  0.00  0.00    +0.166 HD
ATOM     16 CL   UNL     1      -2.313  -3.245   3.122  0.00  0.00    -0.081 Cl
ENDBRANCH   1  13
BRANCH   3  17
ATOM     17  C   UNL     1       0.300  -7.952   2.274  0.00  0.00    +0.059 A 
ATOM     18  C   UNL     1       0.553  -7.984   3.641  0.00  0.00    -0.009 A 
ATOM     19  C   UNL     1       0.592  -9.230   4.278  0.00  0.00    +0.074 A 
ATOM     20  C   UNL     1       0.376 -10.383   3.520  0.00  0.00    +0.130 A 
ATOM     21  N   UNL     1       0.140 -10.304   2.227  0.00  0.00    -0.257 NA
ATOM     22  C   UNL     1       0.090  -9.147   1.596  0.00  0.00    +0.060 A 
ATOM     23  C   UNL     1      -0.191  -9.120   0.116  0.00  0.00    +0.067 C 
ATOM     24  C   UNL     1       0.781  -6.712   4.416  0.00  0.00    +0.047 C 
BRANCH  19  25
ATOM     25  C   UNL     1       0.850  -9.320   5.683  0.00  0.00    +0.101 C 
ATOM     26  N   UNL     1       1.054  -9.392   6.799  0.00  0.00    -0.191 NA
ENDBRANCH  19  25
ENDBRANCH   3  17
TORSDOF 3
