REMARK  Name = ZINC40676487
REMARK  3 active torsions:
REMARK  status: ('A' for Active; 'I' for Inactive)
REMARK    1  A    between atoms: C_3  and  S_11
REMARK    2  A    between atoms: C_6  and  N_7
REMARK    3  A    between atoms: S_11  and  C_12
REMARK                            x       y       z     vdW  Elec       q    Type
REMARK                         _______ _______ _______ _____ _____    ______ ____
ROOT
ATOM      1  C   UNL     1       0.254   0.714  -0.166  0.00  0.00    +0.026 A 
ATOM      2  C   UNL     1       1.271   1.667  -0.121  0.00  0.00    +0.019 A 
ATOM      3  C   UNL     1       2.588   1.328  -0.077  0.00  0.00    +0.046 A 
ATOM      4  C   UNL     1       2.970  -0.088  -0.074  0.00  0.00    +0.150 A 
ATOM      5  C   UNL     1       1.892  -1.097  -0.122  0.00  0.00    +0.156 A 
ATOM      6  C   UNL     1       0.506  -0.623  -0.168  0.00  0.00    +0.056 A 
ATOM      7  N   UNL     1       2.446  -2.285  -0.112  0.00  0.00    -0.047 NA
ATOM      8  O   UNL     1       3.852  -2.111  -0.059  0.00  0.00    -0.241 OA
ATOM      9  N   UNL     1       4.118  -0.719  -0.038  0.00  0.00    -0.048 NA
ENDROOT
BRANCH   6  10
ATOM     10  N   UNL     1      -0.549  -1.537  -0.214  0.00  0.00    -0.356 N 
ATOM     11  H   UNL     1      -1.465  -1.220  -0.245  0.00  0.00    +0.142 HD
ATOM     12  H   UNL     1      -0.365  -2.490  -0.215  0.00  0.00    +0.142 HD
ENDBRANCH   6  10
BRANCH   3  13
ATOM     13  S   UNL     1       3.826   2.580  -0.022  0.00  0.00    -0.061 S 
BRANCH  13  14
ATOM     14  C   UNL     1       4.363   2.577   1.656  0.00  0.00    +0.139 A 
ATOM     15  N   UNL     1       3.894   1.891   2.686  0.00  0.00    -0.241 NA
ATOM     16  C   UNL     1       4.425   2.014   3.886  0.00  0.00    +0.120 A 
ATOM     17  C   UNL     1       5.469   2.855   4.080  0.00  0.00    +0.067 A 
ATOM     18  S   UNL     1       5.691   3.494   2.425  0.00  0.00    -0.069 S 
ENDBRANCH  13  14
ENDBRANCH   3  13
TORSDOF 3
