REMARK  Name = ZINC13517358
REMARK  7 active torsions:
REMARK  status: ('A' for Active; 'I' for Inactive)
REMARK    1  A    between atoms: C_1  and  C_2
REMARK    2  A    between atoms: C_2  and  C_3
REMARK    3  A    between atoms: C_3  and  C_4
REMARK    4  A    between atoms: C_6  and  C_26
REMARK    5  A    between atoms: C_8  and  C_20
REMARK    6  A    between atoms: C_11  and  C_12
REMARK    7  A    between atoms: C_11  and  O_19
REMARK                            x       y       z     vdW  Elec       q    Type
REMARK                         _______ _______ _______ _____ _____    ______ ____
ROOT
ATOM      1  C   UNL     1      -1.144   6.101  -0.516  0.00  0.00    +0.015 C 
ATOM      2  C   UNL     1      -1.347   7.588  -0.817  0.00  0.00    -0.034 C 
ATOM      3  C   UNL     1      -0.560   8.200   1.392  0.00  0.00    -0.037 C 
ATOM      4  C   UNL     1      -0.334   6.731   1.759  0.00  0.00    +0.028 C 
ATOM      5  C   UNL     1      -0.002   5.939   0.491  0.00  0.00    +0.091 C 
ATOM      6  N   UNL     1      -1.673   8.307   0.429  0.00  0.00    +0.388 N 
ATOM      7  H   UNL     1      -2.519   7.899   0.844  0.00  0.00    -0.084 HD
ATOM      8  H   UNL     1      -1.840   9.297   0.214  0.00  0.00    -0.084 HD
ENDROOT
BRANCH   5   9
ATOM      9  C   UNL     1       0.162   4.482   0.837  0.00  0.00    -0.016 A 
ATOM     10  C   UNL     1      -0.610   3.917   1.835  0.00  0.00    +0.009 A 
ATOM     11  C   UNL     1      -0.461   2.580   2.152  0.00  0.00    +0.039 A 
ATOM     12  C   UNL     1       0.463   1.807   1.471  0.00  0.00    +0.123 A 
ATOM     13  C   UNL     1       1.240   2.374   0.475  0.00  0.00    +0.039 A 
ATOM     14  C   UNL     1       1.085   3.710   0.155  0.00  0.00    +0.009 A 
ATOM     15  F   UNL     1       0.611   0.500   1.781  0.00  0.00    -0.205 F 
ENDBRANCH   5   9
BRANCH   3  16
ATOM     16  C   UNL     1      -0.906   8.980   2.634  0.00  0.00    -0.061 A 
ATOM     17  C   UNL     1      -2.195   8.948   3.133  0.00  0.00    +0.002 A 
ATOM     18  C   UNL     1      -2.512   9.660   4.275  0.00  0.00    +0.000 A 
ATOM     19  C   UNL     1      -1.542  10.412   4.912  0.00  0.00    +0.000 A 
ATOM     20  C   UNL     1      -0.255  10.447   4.410  0.00  0.00    +0.000 A 
ATOM     21  C   UNL     1       0.063   9.732   3.271  0.00  0.00    +0.002 A 
ENDBRANCH   3  16
BRANCH   2  22
ATOM     22  C   UNL     1      -0.085   8.155  -1.415  0.00  0.00    -0.061 A 
ATOM     23  C   UNL     1       0.349   9.414  -1.046  0.00  0.00    +0.002 A 
ATOM     24  C   UNL     1       1.509   9.933  -1.590  0.00  0.00    +0.000 A 
ATOM     25  C   UNL     1       2.229   9.196  -2.512  0.00  0.00    +0.000 A 
ATOM     26  C   UNL     1       1.792   7.938  -2.885  0.00  0.00    +0.000 A 
ATOM     27  C   UNL     1       0.635   7.418  -2.336  0.00  0.00    +0.002 A 
ENDBRANCH   2  22
BRANCH   5  28
ATOM     28  O   UNL     1       1.211   6.435  -0.078  0.00  0.00    -0.384 OA
ATOM     29  H   UNL     1       1.977   6.366   0.508  0.00  0.00    +0.211 HD
ENDBRANCH   5  28
BRANCH   1  30
ATOM     30  C   UNL     1      -2.431   5.519   0.073  0.00  0.00    +0.005 C 
BRANCH  30  32
ATOM     31  C   UNL     1      -4.830   4.995  -0.386  0.00  0.00    +0.004 C 
ATOM     32  C   UNL     1      -3.544   5.576  -0.976  0.00  0.00    -0.003 C 
ENDBRANCH  30  32
ENDBRANCH   1  30
TORSDOF 6
