REMARK  Name = ZINC63330317
REMARK  6 active torsions:
REMARK  status: ('A' for Active; 'I' for Inactive)
REMARK    1  A    between atoms: C_1  and  N_2
REMARK    2  A    between atoms: C_3  and  C_5
REMARK    3  A    between atoms: C_8  and  N_11
REMARK    4  A    between atoms: N_14  and  C_15
REMARK    5  A    between atoms: N_14  and  C_16
REMARK    6  A    between atoms: C_16  and  C_17
REMARK                            x       y       z     vdW  Elec       q    Type
REMARK                         _______ _______ _______ _____ _____    ______ ____
ROOT
ATOM      1  N   UNL     1      -2.542  -4.268  -2.442  0.00  0.00    -0.296 N 
ATOM      2  C   UNL     1      -3.595  -4.957  -2.927  0.00  0.00    +0.302 C 
ATOM      3  O   UNL     1      -3.956  -5.981  -2.380  0.00  0.00    -0.253 OA
ATOM      4  N   UNL     1      -4.247  -4.510  -4.019  0.00  0.00    -0.285 N 
ATOM      5  C   UNL     1      -3.811  -3.276  -4.679  0.00  0.00    +0.133 C 
ATOM      6  H   UNL     1      -2.254  -3.451  -2.879  0.00  0.00    +0.151 HD
ENDROOT
BRANCH   1  10
ATOM      7  C   UNL     1      -1.135  -2.201   0.001  0.00  0.00    +0.075 C 
ATOM      8  C   UNL     1      -0.419  -2.694  -1.258  0.00  0.00    +0.014 C 
ATOM      9  C   UNL     1      -0.399  -4.224  -1.266  0.00  0.00    +0.023 C 
ATOM     10  C   UNL     1      -1.834  -4.753  -1.255  0.00  0.00    +0.074 C 
ATOM     11  C   UNL     1      -2.550  -4.260   0.004  0.00  0.00    +0.023 C 
ATOM     12  C   UNL     1      -2.571  -2.730   0.012  0.00  0.00    +0.014 C 
BRANCH   7  15
ATOM     13  C   UNL     1      -0.018   1.461   0.010  0.00  0.00    +0.128 C 
ATOM     14  N   UNL     1       0.002  -0.004   0.002  0.00  0.00    -0.318 N 
ATOM     15  C   UNL     1      -1.156  -0.694   0.009  0.00  0.00    +0.216 C 
ATOM     16  O   UNL     1      -2.214  -0.102   0.023  0.00  0.00    -0.276 OA
ATOM     17  H   UNL     1       0.849  -0.478  -0.009  0.00  0.00    +0.148 HD
ENDBRANCH   7  15
ENDBRANCH   1  10
BRANCH   4  18
ATOM     18  C   UNL     1      -5.390  -5.258  -4.547  0.00  0.00    +0.157 C 
BRANCH  18  19
ATOM     19  C   UNL     1      -6.676  -4.756  -3.888  0.00  0.00    +0.228 C 
ATOM     20  C   UNL     1      -7.866  -5.599  -4.365  0.00  0.00    +0.275 C 
ATOM     21  O   UNL     1      -9.052  -5.094  -3.742  0.00  0.00    -0.485 OA
ATOM     22  C   UNL     1      -9.222  -3.743  -3.754  0.00  0.00    +0.162 A 
ATOM     23  C   UNL     1     -10.479  -3.213  -3.507  0.00  0.00    +0.049 A 
ATOM     24  C   UNL     1     -10.666  -1.844  -3.513  0.00  0.00    +0.004 A 
ATOM     25  C   UNL     1      -9.601  -0.999  -3.765  0.00  0.00    +0.004 A 
ATOM     26  C   UNL     1      -8.346  -1.521  -4.013  0.00  0.00    +0.049 A 
ATOM     27  C   UNL     1      -8.151  -2.895  -4.010  0.00  0.00    +0.163 A 
ATOM     28  O   UNL     1      -6.911  -3.394  -4.265  0.00  0.00    -0.480 OA
ENDBRANCH  18  19
ENDBRANCH   4  18
TORSDOF 4
