REMARK  Name = ZINC13864408
REMARK  4 active torsions:
REMARK  status: ('A' for Active; 'I' for Inactive)
REMARK    1  A    between atoms: C_3  and  O_8
REMARK    2  A    between atoms: C_6  and  N_7
REMARK    3  A    between atoms: O_8  and  C_9
REMARK    4  A    between atoms: C_16  and  C_18
REMARK                            x       y       z     vdW  Elec       q    Type
REMARK                         _______ _______ _______ _____ _____    ______ ____
ROOT
ATOM      1  C   UNL     1       2.342   4.100   0.106  0.00  0.00    +0.155 A 
ATOM      2  C   UNL     1       3.525   3.398   0.096  0.00  0.00    +0.157 A 
ATOM      3  N   UNL     1       4.702   3.995   0.182  0.00  0.00    -0.258 NA
ATOM      4  C   UNL     1       4.801   5.306   0.295  0.00  0.00    +0.126 A 
ATOM      5  C   UNL     1       3.668   6.088   0.319  0.00  0.00    +0.042 A 
ATOM      6  C   UNL     1       2.373   5.520   0.225  0.00  0.00    +0.035 A 
ATOM      7  C   UNL     1       1.308   6.431   0.261  0.00  0.00    +0.033 A 
ATOM      8  C   UNL     1       1.560   7.763   0.381  0.00  0.00    +0.075 A 
ATOM      9  S   UNL     1       3.343   7.827   0.451  0.00  0.00    -0.082 S 
ENDROOT
BRANCH   8  10
ATOM     10  C   UNL     1       0.601   8.876   0.439  0.00  0.00    +0.248 C 
ATOM     11  O   UNL     1      -0.594   8.653   0.377  0.00  0.00    -0.270 OA
ATOM     12  N   UNL     1       1.044  10.143   0.560  0.00  0.00    -0.325 N 
ATOM     13  H   UNL     1       1.996  10.320   0.610  0.00  0.00    +0.145 HD
ATOM     14  H   UNL     1       0.411  10.877   0.598  0.00  0.00    +0.145 HD
ENDBRANCH   8  10
BRANCH   1  15
ATOM     15  O   UNL     1       1.156   3.446   0.009  0.00  0.00    -0.454 OA
BRANCH  15  18
ATOM     16  C   UNL     1       1.374  -0.008   1.129  0.00  0.00    +0.026 A 
ATOM     17  C   UNL     1       1.353   1.372   1.157  0.00  0.00    +0.048 A 
ATOM     18  C   UNL     1       1.177   2.087  -0.019  0.00  0.00    +0.129 A 
ATOM     19  C   UNL     1       1.021   1.416  -1.223  0.00  0.00    +0.048 A 
ATOM     20  C   UNL     1       1.041   0.036  -1.253  0.00  0.00    +0.026 A 
ATOM     21  C   UNL     1       1.218  -0.681  -0.076  0.00  0.00    +0.025 A 
BRANCH  21  22
ATOM     22  N   UNL     1       1.238  -2.079  -0.105  0.00  0.00    -0.358 N 
ATOM     23  H   UNL     1       1.362  -2.580   0.717  0.00  0.00    +0.142 HD
ATOM     24  H   UNL     1       1.129  -2.549  -0.947  0.00  0.00    +0.142 HD
ENDBRANCH  21  22
ENDBRANCH  15  18
ENDBRANCH   1  15
TORSDOF 4
