REMARK  Name = ZINC67382911
REMARK  10 active torsions:
REMARK  status: ('A' for Active; 'I' for Inactive)
REMARK    1  A    between atoms: C_1  and  C_2
REMARK    2  A    between atoms: C_2  and  C_3
REMARK    3  A    between atoms: C_2  and  C_4
REMARK    4  A    between atoms: C_4  and  C_5
REMARK    5  A    between atoms: C_5  and  C_6
REMARK    6  A    between atoms: N_8  and  N_9
REMARK    7  A    between atoms: N_12  and  C_13
REMARK    8  A    between atoms: C_13  and  C_14
REMARK    9  A    between atoms: C_14  and  C_16
REMARK   10  A    between atoms: C_14  and  N_21
REMARK                            x       y       z     vdW  Elec       q    Type
REMARK                         _______ _______ _______ _____ _____    ______ ____
ROOT
ATOM      1  N   UNL     1      -4.328  -4.445   0.212  0.00  0.00    -0.218 N 
ATOM      2  C   UNL     1      -4.570  -5.755   0.009  0.00  0.00    +0.316 C 
ATOM      3  O   UNL     1      -5.699  -6.191   0.129  0.00  0.00    -0.251 OA
ATOM      4  N   UNL     1      -3.560  -6.582  -0.328  0.00  0.00    -0.299 N 
ATOM      5  H   UNL     1      -5.055  -3.850   0.455  0.00  0.00    +0.174 HD
ATOM      6  H   UNL     1      -2.660  -6.234  -0.423  0.00  0.00    +0.150 HD
ENDROOT
BRANCH   1   9
ATOM      7  C   UNL     1      -2.786  -2.632   0.278  0.00  0.00    +0.229 C 
ATOM      8  O   UNL     1      -3.695  -1.888   0.581  0.00  0.00    -0.274 OA
ATOM      9  N   UNL     1      -3.028  -3.943   0.074  0.00  0.00    -0.233 N 
ATOM     10  H   UNL     1      -2.301  -4.538  -0.168  0.00  0.00    +0.173 HD
BRANCH   7  11
ATOM     11  C   UNL     1      -1.387  -2.092   0.130  0.00  0.00    +0.097 C 
BRANCH  11  12
ATOM     12  C   UNL     1      -1.388  -0.589   0.413  0.00  0.00    +0.012 C 
BRANCH  12  14
ATOM     13  C   UNL     1       0.011   1.481   0.423  0.00  0.00    +0.007 C 
ATOM     14  C   UNL     1       0.032  -0.040   0.263  0.00  0.00    -0.017 C 
ATOM     15  C   UNL     1       0.932  -0.654   1.337  0.00  0.00    +0.007 C 
ENDBRANCH  12  14
ENDBRANCH  11  12
ENDBRANCH   7  11
ENDBRANCH   1   9
BRANCH   4  16
ATOM     16  C   UNL     1      -3.823  -8.006  -0.549  0.00  0.00    +0.095 C 
BRANCH  16  17
ATOM     17  C   UNL     1      -2.500  -8.737  -0.789  0.00  0.00    -0.013 C 
BRANCH  17  18
ATOM     18  N   UNL     1      -2.772 -10.137  -1.142  0.00  0.00    +0.386 N 
ATOM     19  C   UNL     1      -1.496 -10.872  -1.280  0.00  0.00    -0.078 C 
ATOM     20  C   UNL     1      -1.737 -11.868  -2.442  0.00  0.00    -0.020 C 
ATOM     21  C   UNL     1      -2.622 -11.025  -3.399  0.00  0.00    -0.020 C 
ATOM     22  C   UNL     1      -3.489 -10.194  -2.429  0.00  0.00    -0.078 C 
ATOM     23  H   UNL     1      -3.333 -10.567  -0.422  0.00  0.00    -0.081 HD
ENDBRANCH  17  18
BRANCH  17  24
ATOM     24  C   UNL     1      -1.665  -8.688   0.464  0.00  0.00    -0.022 A 
ATOM     25  C   UNL     1      -0.632  -7.865   0.770  0.00  0.00    +0.009 A 
ATOM     26  C   UNL     1      -0.006  -8.002   1.995  0.00  0.00    +0.008 A 
ATOM     27  C   UNL     1      -0.443  -8.955   2.854  0.00  0.00    +0.045 A 
ATOM     28  S   UNL     1      -1.784  -9.694   1.935  0.00  0.00    -0.103 S 
ENDBRANCH  17  24
ENDBRANCH  16  17
ENDBRANCH   4  16
TORSDOF 8
