REMARK  Name = ZINC57893569
REMARK  9 active torsions:
REMARK  status: ('A' for Active; 'I' for Inactive)
REMARK    1  A    between atoms: C_1  and  C_2
REMARK    2  A    between atoms: C_2  and  C_3
REMARK    3  A    between atoms: C_2  and  C_4
REMARK    4  A    between atoms: C_2  and  O_5
REMARK    5  A    between atoms: O_5  and  C_6
REMARK    6  A    between atoms: N_8  and  C_9
REMARK    7  A    between atoms: N_8  and  C_10
REMARK    8  A    between atoms: C_10  and  C_11
REMARK    9  A    between atoms: N_13  and  C_14
REMARK                            x       y       z     vdW  Elec       q    Type
REMARK                         _______ _______ _______ _____ _____    ______ ____
ROOT
ATOM      1  C   UNL     1       4.944  -1.067  -1.933  0.00  0.00    +0.236 C 
ATOM      2  O   UNL     1       4.471  -2.024  -1.358  0.00  0.00    -0.274 OA
ATOM      3  N   UNL     1       6.282  -0.914  -2.001  0.00  0.00    -0.268 N 
ATOM      4  H   UNL     1       6.661  -0.191  -2.523  0.00  0.00    +0.156 HD
ENDROOT
BRANCH   3   5
ATOM      5  C   UNL     1       7.120  -1.799  -1.321  0.00  0.00    +0.150 A 
ATOM      6  C   UNL     1       8.493  -1.555  -1.277  0.00  0.00    +0.217 A 
ATOM      7  C   UNL     1       9.313  -2.444  -0.596  0.00  0.00    +0.056 A 
ATOM      8  C   UNL     1       8.730  -3.544   0.017  0.00  0.00    +0.021 A 
ATOM      9  C   UNL     1       7.363  -3.721  -0.067  0.00  0.00    +0.084 A 
ATOM     10  N   UNL     1       6.606  -2.857  -0.717  0.00  0.00    -0.346 N 
ATOM     11  O   UNL     1       9.020  -0.464  -1.894  0.00  0.00    -0.284 OA
ATOM     12  H   UNL     1       5.648  -3.005  -0.757  0.00  0.00    +0.167 HD
ENDBRANCH   3   5
BRANCH   1  13
ATOM     13  C   UNL     1       4.036  -0.047  -2.571  0.00  0.00    +0.206 C 
BRANCH  13  16
ATOM     14  C   UNL     1       1.979  -0.007  -1.265  0.00  0.00    +0.404 C 
ATOM     15  O   UNL     1       2.542   0.702  -0.455  0.00  0.00    -0.226 OA
ATOM     16  N   UNL     1       2.640  -0.436  -2.359  0.00  0.00    -0.262 N 
ATOM     17  C   UNL     1       1.961  -1.291  -3.336  0.00  0.00    +0.136 C 
BRANCH  14  18
ATOM     18  O   UNL     1       0.696  -0.365  -1.071  0.00  0.00    -0.445 OA
BRANCH  18  20
ATOM     19  C   UNL     1       0.060   1.655   0.093  0.00  0.00    +0.055 C 
ATOM     20  C   UNL     1       0.058   0.126   0.110  0.00  0.00    +0.107 C 
ATOM     21  C   UNL     1       0.815  -0.372   1.343  0.00  0.00    +0.055 C 
ATOM     22  C   UNL     1      -1.385  -0.382   0.159  0.00  0.00    +0.055 C 
ENDBRANCH  18  20
ENDBRANCH  14  18
ENDBRANCH  13  16
ENDBRANCH   1  13
TORSDOF 5
