REMARK  Name = ZINC49978696
REMARK  8 active torsions:
REMARK  status: ('A' for Active; 'I' for Inactive)
REMARK    1  A    between atoms: C_1  and  C_2
REMARK    2  A    between atoms: C_2  and  N_3
REMARK    3  A    between atoms: N_3  and  C_4
REMARK    4  A    between atoms: N_3  and  S_11
REMARK    5  A    between atoms: C_7  and  C_10
REMARK    6  A    between atoms: S_11  and  C_14
REMARK    7  A    between atoms: C_16  and  N_21
REMARK    8  A    between atoms: C_19  and  C_20
REMARK                            x       y       z     vdW  Elec       q    Type
REMARK                         _______ _______ _______ _____ _____    ______ ____
ROOT
ATOM      1  S   UNL     1      -1.980  -0.793   1.641  0.00  0.00    +0.075 S 
ATOM      2  O   UNL     1      -2.930  -1.819   1.388  0.00  0.00    -0.150 OA
ATOM      3  O   UNL     1      -0.937  -0.940   2.595  0.00  0.00    -0.150 OA
ENDROOT
BRANCH   1   4
ATOM      4  C   UNL     1      -2.894   0.637   2.110  0.00  0.00    +0.113 A 
ATOM      5  C   UNL     1      -3.133   1.637   1.188  0.00  0.00    +0.051 A 
ATOM      6  C   UNL     1      -3.855   2.764   1.558  0.00  0.00    +0.026 A 
ATOM      7  C   UNL     1      -4.334   2.882   2.857  0.00  0.00    +0.023 A 
ATOM      8  C   UNL     1      -4.091   1.879   3.775  0.00  0.00    +0.007 A 
ATOM      9  C   UNL     1      -3.377   0.756   3.401  0.00  0.00    -0.024 A 
ATOM     10  C   UNL     1      -3.120  -0.340   4.403  0.00  0.00    +0.046 C 
BRANCH   6  11
ATOM     11  N   UNL     1      -4.098   3.777   0.628  0.00  0.00    -0.358 N 
ATOM     12  H   UNL     1      -3.763   3.694  -0.279  0.00  0.00    +0.142 HD
ATOM     13  H   UNL     1      -4.602   4.564   0.888  0.00  0.00    +0.142 HD
ENDBRANCH   6  11
ENDBRANCH   1   4
BRANCH   1  14
ATOM     14  N   UNL     1      -1.252  -0.456   0.192  0.00  0.00    -0.203 N 
BRANCH  14  15
ATOM     15  C   UNL     1      -1.948  -0.655  -1.002  0.00  0.00    +0.051 A 
ATOM     16  C   UNL     1      -3.336  -0.619  -1.013  0.00  0.00    +0.025 A 
ATOM     17  C   UNL     1      -4.021  -0.816  -2.196  0.00  0.00    +0.005 A 
ATOM     18  C   UNL     1      -3.326  -1.050  -3.369  0.00  0.00    -0.050 A 
ATOM     19  C   UNL     1      -1.944  -1.086  -3.361  0.00  0.00    +0.005 A 
ATOM     20  C   UNL     1      -1.252  -0.884  -2.183  0.00  0.00    +0.025 A 
ATOM     21  C   UNL     1      -4.077  -1.266  -4.657  0.00  0.00    +0.044 C 
ENDBRANCH  14  15
BRANCH  14  23
ATOM     22  C   UNL     1       0.099   1.580   0.088  0.00  0.00    +0.026 C 
ATOM     23  C   UNL     1       0.122   0.052   0.164  0.00  0.00    +0.128 C 
ENDBRANCH  14  23
ENDBRANCH   1  14
TORSDOF 5
