REMARK  Name = ZINC33014621
REMARK  13 active torsions:
REMARK  status: ('A' for Active; 'I' for Inactive)
REMARK    1  A    between atoms: C_1  and  C_2
REMARK    2  A    between atoms: C_2  and  C_4
REMARK    3  A    between atoms: C_2  and  N_13
REMARK    4  A    between atoms: C_7  and  C_10
REMARK    5  A    between atoms: C_10  and  C_11
REMARK    6  A    between atoms: C_10  and  C_12
REMARK    7  A    between atoms: C_14  and  C_16
REMARK    8  A    between atoms: C_16  and  C_17
REMARK    9  A    between atoms: C_17  and  C_18
REMARK   10  A    between atoms: C_20  and  C_23
REMARK   11  A    between atoms: C_23  and  C_24
REMARK   12  A    between atoms: C_23  and  C_25
REMARK   13  A    between atoms: C_23  and  C_26
REMARK                            x       y       z     vdW  Elec       q    Type
REMARK                         _______ _______ _______ _____ _____    ______ ____
ROOT
ATOM      1  N   UNL     1       0.688  -0.476  -1.203  0.00  0.00    -0.309 N 
ATOM      2  C   UNL     1       0.006  -0.608  -2.358  0.00  0.00    +0.214 C 
ATOM      3  O   UNL     1      -1.175  -0.336  -2.400  0.00  0.00    -0.276 OA
ATOM      4  H   UNL     1       1.632  -0.695  -1.170  0.00  0.00    +0.149 HD
ENDROOT
BRANCH   1   6
ATOM      5  C   UNL     1      -0.019   1.526   0.010  0.00  0.00    +0.033 C 
ATOM      6  C   UNL     1       0.002  -0.004   0.002  0.00  0.00    +0.100 C 
BRANCH   6   7
ATOM      7  C   UNL     1       0.731  -0.503   1.223  0.00  0.00    -0.027 A 
ATOM      8  C   UNL     1       2.113  -0.514   1.247  0.00  0.00    +0.006 A 
ATOM      9  C   UNL     1       2.782  -0.972   2.366  0.00  0.00    +0.004 A 
ATOM     10  C   UNL     1       2.068  -1.419   3.463  0.00  0.00    -0.045 A 
ATOM     11  C   UNL     1       0.686  -1.407   3.439  0.00  0.00    +0.004 A 
ATOM     12  C   UNL     1       0.017  -0.945   2.321  0.00  0.00    +0.006 A 
BRANCH  10  13
ATOM     13  C   UNL     1       2.797  -1.919   4.683  0.00  0.00    +0.013 C 
ATOM     14  C   UNL     1       2.414  -1.063   5.892  0.00  0.00    +0.012 C 
ATOM     15  C   UNL     1       2.410  -3.376   4.947  0.00  0.00    +0.012 C 
ENDBRANCH  10  13
ENDBRANCH   6   7
ENDBRANCH   1   6
BRANCH   2  16
ATOM     16  C   UNL     1       0.712  -1.094  -3.598  0.00  0.00    +0.105 C 
BRANCH  16  17
ATOM     17  C   UNL     1      -0.282  -1.153  -4.761  0.00  0.00    +0.108 C 
BRANCH  17  18
ATOM     18  C   UNL     1       0.423  -1.639  -6.000  0.00  0.00    +0.228 A 
ATOM     19  N   UNL     1       0.537  -2.882  -6.377  0.00  0.00    -0.196 NA
ATOM     20  C   UNL     1       1.224  -2.954  -7.523  0.00  0.00    +0.177 A 
ATOM     21  N   UNL     1       1.557  -1.750  -7.891  0.00  0.00    -0.061 NA
ATOM     22  O   UNL     1       1.036  -0.868  -6.908  0.00  0.00    -0.338 OA
BRANCH  20  23
ATOM     23  C   UNL     1       1.558  -4.221  -8.267  0.00  0.00    +0.025 C 
ATOM     24  C   UNL     1       0.265  -4.939  -8.658  0.00  0.00    +0.019 C 
ATOM     25  C   UNL     1       2.353  -3.878  -9.528  0.00  0.00    +0.019 C 
ATOM     26  C   UNL     1       2.396  -5.133  -7.369  0.00  0.00    +0.019 C 
ENDBRANCH  20  23
ENDBRANCH  17  18
ENDBRANCH  16  17
ENDBRANCH   2  16
TORSDOF 7
