REMARK  Name = ZINC39993141
REMARK  9 active torsions:
REMARK  status: ('A' for Active; 'I' for Inactive)
REMARK    1  A    between atoms: C_1  and  C_2
REMARK    2  A    between atoms: C_5  and  O_9
REMARK    3  A    between atoms: C_6  and  C_8
REMARK    4  A    between atoms: O_9  and  C_10
REMARK    5  A    between atoms: C_11  and  C_22
REMARK    6  A    between atoms: C_18  and  C_21
REMARK    7  A    between atoms: C_23  and  C_24
REMARK    8  A    between atoms: C_23  and  C_26
REMARK    9  A    between atoms: N_28  and  C_29
REMARK                            x       y       z     vdW  Elec       q    Type
REMARK                         _______ _______ _______ _____ _____    ______ ____
ROOT
ATOM      1  C   UNL     1      -0.333  -4.782  -1.206  0.00  0.00    +0.235 A 
ATOM      2  C   UNL     1      -0.130  -6.182  -1.275  0.00  0.00    +0.103 A 
ATOM      3  C   UNL     1       0.052  -6.772  -2.554  0.00  0.00    +0.269 A 
ATOM      4  O   UNL     1       0.230  -7.973  -2.663  0.00  0.00    -0.266 OA
ATOM      5  N   UNL     1       0.024  -5.980  -3.647  0.00  0.00    -0.267 N 
ATOM      6  C   UNL     1       0.197  -6.536  -4.878  0.00  0.00    +0.096 A 
ATOM      7  C   UNL     1       0.174  -5.771  -5.993  0.00  0.00    +0.019 A 
ATOM      8  C   UNL     1      -0.029  -4.389  -5.892  0.00  0.00    +0.008 A 
ATOM      9  C   UNL     1      -0.203  -3.823  -4.664  0.00  0.00    -0.007 A 
ATOM     10  C   UNL     1      -0.178  -4.634  -3.516  0.00  0.00    +0.147 A 
ATOM     11  N   UNL     1      -0.354  -4.071  -2.319  0.00  0.00    -0.194 NA
ATOM     12  C   UNL     1      -0.422  -2.337  -4.537  0.00  0.00    +0.047 C 
ENDROOT
BRANCH   2  13
ATOM     13  C   UNL     1      -0.107  -6.967  -0.108  0.00  0.00    +0.042 C 
ATOM     14  C   UNL     1       0.798  -6.681   0.904  0.00  0.00    +0.114 C 
BRANCH  14  15
ATOM     15  C   UNL     1       0.735  -7.412   2.173  0.00  0.00    +0.259 C 
ATOM     16  O   UNL     1      -0.111  -8.271   2.339  0.00  0.00    -0.269 OA
ATOM     17  N   UNL     1       1.615  -7.134   3.156  0.00  0.00    -0.281 N 
ATOM     18  H   UNL     1       2.244  -6.403   3.051  0.00  0.00    +0.155 HD
BRANCH  17  19
ATOM     19  C   UNL     1       1.621  -7.900   4.327  0.00  0.00    +0.034 A 
ATOM     20  C   UNL     1       1.926  -7.307   5.545  0.00  0.00    +0.026 A 
ATOM     21  C   UNL     1       1.931  -8.065   6.699  0.00  0.00    +0.040 A 
ATOM     22  C   UNL     1       1.633  -9.416   6.643  0.00  0.00    +0.124 A 
ATOM     23  C   UNL     1       1.329 -10.010   5.430  0.00  0.00    +0.040 A 
ATOM     24  C   UNL     1       1.316  -9.254   4.274  0.00  0.00    +0.026 A 
ATOM     25  F   UNL     1       1.640 -10.155   7.774  0.00  0.00    -0.205 F 
ENDBRANCH  17  19
ENDBRANCH  14  15
BRANCH  14  26
ATOM     26  C   UNL     1       1.794  -5.670   0.709  0.00  0.00    +0.104 C 
ATOM     27  N   UNL     1       2.584  -4.869   0.554  0.00  0.00    -0.191 NA
ENDBRANCH  14  26
ENDBRANCH   2  13
BRANCH   1  28
ATOM     28  O   UNL     1      -0.510  -4.179  -0.009  0.00  0.00    -0.437 OA
BRANCH  28  33
ATOM     29  C   UNL     1      -1.735   1.319   0.023  0.00  0.00    +0.044 C 
ATOM     30  C   UNL     1      -1.407  -0.152   0.015  0.00  0.00    -0.050 A 
ATOM     31  C   UNL     1      -0.106  -0.571   0.227  0.00  0.00    +0.007 A 
ATOM     32  C   UNL     1       0.197  -1.918   0.219  0.00  0.00    +0.047 A 
ATOM     33  C   UNL     1      -0.806  -2.853  -0.001  0.00  0.00    +0.133 A 
ATOM     34  C   UNL     1      -2.110  -2.430  -0.213  0.00  0.00    -0.008 A 
ATOM     35  C   UNL     1      -2.409  -1.081  -0.199  0.00  0.00    +0.010 A 
ATOM     36  C   UNL     1      -3.201  -3.442  -0.452  0.00  0.00    +0.047 C 
ENDBRANCH  28  33
ENDBRANCH   1  28
TORSDOF 6
