REMARK  Name = ZINC36624159
REMARK  6 active torsions:
REMARK  status: ('A' for Active; 'I' for Inactive)
REMARK    1  A    between atoms: C_1  and  C_2
REMARK    2  A    between atoms: N_11  and  C_15
REMARK    3  A    between atoms: C_15  and  C_16
REMARK    4  A    between atoms: N_18  and  C_19
REMARK    5  A    between atoms: C_19  and  C_21
REMARK    6  A    between atoms: C_19  and  C_22
REMARK                            x       y       z     vdW  Elec       q    Type
REMARK                         _______ _______ _______ _____ _____    ______ ____
ROOT
ATOM      1  C   UNL     1       0.218   1.873  -0.841  0.00  0.00    +0.010 C 
ATOM      2  C   UNL     1       0.306   0.377  -1.151  0.00  0.00    +0.018 C 
ATOM      3  C   UNL     1       1.083   0.171  -2.454  0.00  0.00    +0.006 C 
ATOM      4  C   UNL     1       1.188  -1.326  -2.752  0.00  0.00    +0.000 C 
ATOM      5  C   UNL     1       1.932  -2.023  -1.611  0.00  0.00    +0.003 C 
ATOM      6  C   UNL     1       1.158  -1.826  -0.305  0.00  0.00    +0.035 C 
ATOM      7  C   UNL     1       1.024  -0.336  -0.011  0.00  0.00    +0.115 C 
ATOM      8  C   UNL     1       2.383   0.281   0.226  0.00  0.00    +0.247 C 
ATOM      9  O   UNL     1       3.308   0.339  -0.555  0.00  0.00    -0.273 OA
ATOM     10  N   UNL     1       2.349   0.753   1.489  0.00  0.00    -0.215 N 
ATOM     11  C   UNL     1       1.167   0.519   2.072  0.00  0.00    +0.310 C 
ATOM     12  O   UNL     1       0.897   0.851   3.209  0.00  0.00    -0.252 OA
ATOM     13  N   UNL     1       0.311  -0.126   1.256  0.00  0.00    -0.285 N 
ATOM     14  H   UNL     1      -0.597  -0.397   1.464  0.00  0.00    +0.151 HD
ENDROOT
BRANCH  10  15
ATOM     15  C   UNL     1       3.468   1.436   2.143  0.00  0.00    +0.213 C 
BRANCH  15  16
ATOM     16  C   UNL     1       3.370   2.918   1.888  0.00  0.00    +0.231 C 
ATOM     17  O   UNL     1       2.455   3.360   1.225  0.00  0.00    -0.274 OA
ATOM     18  N   UNL     1       4.298   3.753   2.396  0.00  0.00    -0.307 N 
ATOM     19  H   UNL     1       5.030   3.400   2.925  0.00  0.00    +0.149 HD
BRANCH  18  20
ATOM     20  C   UNL     1       4.202   5.194   2.148  0.00  0.00    +0.103 C 
ATOM     21  C   UNL     1       3.321   5.838   3.220  0.00  0.00    +0.033 C 
BRANCH  20  22
ATOM     22  C   UNL     1       5.579   5.804   2.196  0.00  0.00    +0.008 A 
ATOM     23  C   UNL     1       6.571   5.214   2.957  0.00  0.00    +0.008 A 
ATOM     24  C   UNL     1       7.834   5.774   3.001  0.00  0.00    +0.000 A 
ATOM     25  C   UNL     1       8.107   6.925   2.284  0.00  0.00    +0.003 A 
ATOM     26  C   UNL     1       7.117   7.516   1.523  0.00  0.00    +0.039 A 
ATOM     27  C   UNL     1       5.853   6.953   1.474  0.00  0.00    +0.128 A 
ATOM     28  F   UNL     1       4.886   7.528   0.726  0.00  0.00    -0.205 F 
ENDBRANCH  20  22
ENDBRANCH  18  20
ENDBRANCH  15  16
ENDBRANCH  10  15
TORSDOF 4
