REMARK  Name = ZINC32500792
REMARK  3 active torsions:
REMARK  status: ('A' for Active; 'I' for Inactive)
REMARK    1  A    between atoms: C_1  and  N_2
REMARK    2  A    between atoms: C_5  and  C_13
REMARK    3  A    between atoms: C_17  and  C_18
REMARK                            x       y       z     vdW  Elec       q    Type
REMARK                         _______ _______ _______ _____ _____    ______ ____
ROOT
ATOM      1  C   UNL     1      -0.018   1.461   0.010  0.00  0.00    +0.138 C 
ATOM      2  N   UNL     1       0.002  -0.004   0.002  0.00  0.00    -0.269 N 
ATOM      3  C   UNL     1      -1.196  -0.733   0.004  0.00  0.00    +0.079 A 
ATOM      4  C   UNL     1      -2.392  -0.118  -0.306  0.00  0.00    +0.035 A 
ATOM      5  C   UNL     1      -3.579  -0.865  -0.298  0.00  0.00    -0.018 A 
ATOM      6  C   UNL     1      -3.542  -2.229   0.025  0.00  0.00    +0.012 A 
ATOM      7  C   UNL     1      -2.343  -2.833   0.333  0.00  0.00    +0.048 A 
ATOM      8  C   UNL     1      -1.168  -2.094   0.323  0.00  0.00    +0.143 A 
ATOM      9  O   UNL     1       0.019  -2.683   0.622  0.00  0.00    -0.481 OA
ATOM     10  C   UNL     1       1.174  -2.181  -0.054  0.00  0.00    +0.325 C 
ATOM     11  C   UNL     1       1.175  -0.674  -0.013  0.00  0.00    +0.257 C 
ATOM     12  O   UNL     1       2.224  -0.066   0.011  0.00  0.00    -0.272 OA
ENDROOT
BRANCH   5  13
ATOM     13  C   UNL     1      -4.854  -0.222  -0.625  0.00  0.00    -0.015 C 
ATOM     14  C   UNL     1      -5.441   0.868   0.248  0.00  0.00    +0.112 C 
ATOM     15  S   UNL     1      -6.997   1.271  -0.643  0.00  0.00    -0.101 S 
ATOM     16  C   UNL     1      -6.837   0.113  -1.992  0.00  0.00    +0.101 C 
ATOM     17  C   UNL     1      -5.556  -0.565  -1.714  0.00  0.00    +0.072 C 
ATOM     18  N   UNL     1      -7.657  -0.085  -2.990  0.00  0.00    -0.292 NA
ATOM     19  H   UNL     1      -8.473   0.435  -3.058  0.00  0.00    +0.187 HD
BRANCH  17  20
ATOM     20  C   UNL     1      -5.056  -1.609  -2.621  0.00  0.00    +0.244 C 
ATOM     21  O   UNL     1      -4.001  -2.167  -2.383  0.00  0.00    -0.270 OA
ATOM     22  N   UNL     1      -5.767  -1.949  -3.714  0.00  0.00    -0.325 N 
ATOM     23  H   UNL     1      -6.608  -1.505  -3.903  0.00  0.00    +0.145 HD
ATOM     24  H   UNL     1      -5.437  -2.638  -4.312  0.00  0.00    +0.145 HD
ENDBRANCH  17  20
ENDBRANCH   5  13
TORSDOF 2
