REMARK  Name = ZINC66584931
REMARK  5 active torsions:
REMARK  status: ('A' for Active; 'I' for Inactive)
REMARK    1  A    between atoms: C_6  and  C_7
REMARK    2  A    between atoms: C_8  and  S_9
REMARK    3  A    between atoms: S_9  and  N_12
REMARK    4  A    between atoms: N_12  and  C_13
REMARK    5  A    between atoms: C_16  and  C_20
REMARK                            x       y       z     vdW  Elec       q    Type
REMARK                         _______ _______ _______ _____ _____    ______ ____
ROOT
ATOM      1  N   UNL     1      -2.848  -3.811  -1.424  0.00  0.00    -0.098 NA
ENDROOT
BRANCH   1   2
ATOM      2  C   UNL     1      -3.947  -4.618  -1.697  0.00  0.00    +0.077 A 
ATOM      3  C   UNL     1      -4.973  -4.733  -0.762  0.00  0.00    +0.027 A 
ATOM      4  C   UNL     1      -6.056  -5.523  -1.022  0.00  0.00    +0.018 A 
ATOM      5  C   UNL     1      -6.140  -6.222  -2.231  0.00  0.00    +0.072 A 
ATOM      6  C   UNL     1      -5.110  -6.108  -3.173  0.00  0.00    +0.137 A 
ATOM      7  C   UNL     1      -4.021  -5.304  -2.904  0.00  0.00    +0.065 A 
ATOM      8  F   UNL     1      -5.184  -6.780  -4.343  0.00  0.00    -0.205 F 
BRANCH   5   9
ATOM      9  C   UNL     1      -7.308  -7.075  -2.511  0.00  0.00    +0.244 C 
ATOM     10  O   UNL     1      -7.379  -7.682  -3.563  0.00  0.00    -0.270 OA
ATOM     11  N   UNL     1      -8.298  -7.183  -1.603  0.00  0.00    -0.325 N 
ATOM     12  H   UNL     1      -8.241  -6.699  -0.764  0.00  0.00    +0.145 HD
ATOM     13  H   UNL     1      -9.067  -7.744  -1.788  0.00  0.00    +0.145 HD
ENDBRANCH   5   9
ENDBRANCH   1   2
BRANCH   1  14
ATOM     14  S   UNL     1      -2.757  -2.994   0.013  0.00  0.00    +0.085 S 
ATOM     15  O   UNL     1      -2.635  -3.977   1.032  0.00  0.00    -0.149 OA
ATOM     16  O   UNL     1      -3.805  -2.034   0.002  0.00  0.00    -0.149 OA
BRANCH  14  18
ATOM     17  C   UNL     1      -1.266  -0.763   0.011  0.00  0.00    +0.028 C 
ATOM     18  C   UNL     1      -1.245  -2.089   0.003  0.00  0.00    +0.159 C 
BRANCH  17  24
ATOM     19  C   UNL     1      -0.017   1.391   0.010  0.00  0.00    +0.009 A 
ATOM     20  C   UNL     1       1.170   2.094   0.002  0.00  0.00    +0.016 A 
ATOM     21  C   UNL     1       2.378   1.419  -0.013  0.00  0.00    +0.018 A 
ATOM     22  C   UNL     1       2.403   0.034  -0.021  0.00  0.00    +0.016 A 
ATOM     23  C   UNL     1       1.223  -0.680  -0.014  0.00  0.00    +0.009 A 
ATOM     24  C   UNL     1       0.002  -0.004   0.002  0.00  0.00    -0.024 A 
ATOM     25 BR   UNL     1       4.000   2.390  -0.025  0.00  0.00    -0.050 Br
ENDBRANCH  17  24
ENDBRANCH  14  18
ENDBRANCH   1  14
TORSDOF 5
