REMARK  Name = ZINC39252504
REMARK  9 active torsions:
REMARK  status: ('A' for Active; 'I' for Inactive)
REMARK    1  A    between atoms: C_1  and  O_2
REMARK    2  A    between atoms: O_2  and  C_3
REMARK    3  A    between atoms: C_9  and  C_12
REMARK    4  A    between atoms: C_12  and  C_13
REMARK    5  A    between atoms: C_13  and  N_14
REMARK    6  A    between atoms: C_16  and  C_21
REMARK    7  A    between atoms: N_23  and  C_24
REMARK    8  A    between atoms: C_28  and  C_31
REMARK    9  A    between atoms: C_31  and  C_32
REMARK                            x       y       z     vdW  Elec       q    Type
REMARK                         _______ _______ _______ _____ _____    ______ ____
ROOT
ATOM      1  N   UNL     1      -0.765  -6.763  -1.437  0.00  0.00    -0.300 N 
ATOM      2  C   UNL     1      -0.595  -8.141  -1.914  0.00  0.00    +0.121 C 
ATOM      3  C   UNL     1      -0.751  -9.032  -0.662  0.00  0.00    +0.101 C 
ATOM      4  C   UNL     1      -1.623  -8.142   0.253  0.00  0.00    +0.110 C 
ATOM      5  C   UNL     1      -1.340  -6.734  -0.222  0.00  0.00    +0.216 C 
ATOM      6  O   UNL     1      -1.596  -5.726   0.401  0.00  0.00    -0.276 OA
ENDROOT
BRANCH   3   7
ATOM      7  C   UNL     1      -1.460 -10.318  -1.000  0.00  0.00    +0.220 C 
ATOM      8  O   UNL     1      -1.822 -10.530  -2.139  0.00  0.00    -0.275 OA
ATOM      9  N   UNL     1      -1.692 -11.233  -0.038  0.00  0.00    -0.290 N 
ATOM     10  H   UNL     1      -1.403 -11.064   0.872  0.00  0.00    +0.151 HD
BRANCH   9  11
ATOM     11  C   UNL     1      -2.382 -12.483  -0.367  0.00  0.00    +0.216 C 
ATOM     12  N   UNL     1      -2.761 -13.242   0.864  0.00  0.00    -0.227 NA
ATOM     13  N   UNL     1      -2.934 -14.656   0.605  0.00  0.00    -0.241 NA
ATOM     14  C   UNL     1      -2.061 -15.226  -0.449  0.00  0.00    +0.134 C 
ATOM     15  S   UNL     1      -1.227 -13.720  -1.113  0.00  0.00    -0.101 S 
ATOM     16  H   UNL     1      -3.586 -12.849   1.292  0.00  0.00    +0.143 HD
ATOM     17  H   UNL     1      -3.904 -14.876   0.429  0.00  0.00    +0.142 HD
BRANCH  14  18
ATOM     18  C   UNL     1      -1.043 -16.197   0.150  0.00  0.00    +0.066 C 
BRANCH  18  19
ATOM     19  C   UNL     1      -0.174 -16.756  -0.947  0.00  0.00    -0.045 A 
ATOM     20  C   UNL     1      -0.550 -17.912  -1.605  0.00  0.00    +0.004 A 
ATOM     21  C   UNL     1       0.246 -18.424  -2.612  0.00  0.00    +0.000 A 
ATOM     22  C   UNL     1       1.419 -17.781  -2.961  0.00  0.00    +0.000 A 
ATOM     23  C   UNL     1       1.794 -16.624  -2.304  0.00  0.00    +0.000 A 
ATOM     24  C   UNL     1       0.996 -16.109  -1.300  0.00  0.00    +0.004 A 
ENDBRANCH  18  19
ENDBRANCH  14  18
ENDBRANCH   9  11
ENDBRANCH   3   7
BRANCH   1  25
ATOM     25  C   UNL     1      -0.354  -5.573  -2.186  0.00  0.00    +0.112 C 
BRANCH  25  26
ATOM     26  C   UNL     1       1.091  -5.218  -1.828  0.00  0.00    +0.056 C 
BRANCH  26  33
ATOM     27  C   UNL     1       0.606  -0.608  -1.056  0.00  0.00    +0.121 A 
ATOM     28  C   UNL     1       1.169   0.167  -2.067  0.00  0.00    +0.047 A 
ATOM     29  C   UNL     1       1.785  -0.428  -3.146  0.00  0.00    +0.030 A 
ATOM     30  C   UNL     1       1.849  -1.815  -3.233  0.00  0.00    +0.047 A 
ATOM     31  N   UNL     1       2.383  -2.682  -4.162  0.00  0.00    -0.360 N 
ATOM     32  C   UNL     1       2.173  -3.974  -3.767  0.00  0.00    +0.087 A 
ATOM     33  C   UNL     1       1.513  -3.994  -2.598  0.00  0.00    -0.021 A 
ATOM     34  C   UNL     1       1.281  -2.599  -2.213  0.00  0.00    +0.006 A 
ATOM     35  C   UNL     1       0.664  -1.986  -1.121  0.00  0.00    +0.056 A 
ATOM     36  H   UNL     1       2.839  -2.415  -4.976  0.00  0.00    +0.165 HD
BRANCH  27  38
ATOM     37  C   UNL     1      -0.017   1.425   0.010  0.00  0.00    +0.277 C 
ATOM     38  O   UNL     1       0.002  -0.004   0.002  0.00  0.00    -0.495 OA
ENDBRANCH  27  38
ENDBRANCH  26  33
ENDBRANCH  25  26
ENDBRANCH   1  25
TORSDOF 8
