REMARK  Name = ZINC14118389
REMARK  4 active torsions:
REMARK  status: ('A' for Active; 'I' for Inactive)
REMARK    1  A    between atoms: C_1  and  C_2
REMARK    2  A    between atoms: C_5  and  C_28
REMARK    3  A    between atoms: C_10  and  C_12
REMARK    4  A    between atoms: C_12  and  N_13
REMARK                            x       y       z     vdW  Elec       q    Type
REMARK                         _______ _______ _______ _____ _____    ______ ____
ROOT
ATOM      1  N   UNL     1      -4.343   3.812   1.177  0.00  0.00    -0.215 N 
ATOM      2  C   UNL     1      -3.058   4.169   1.389  0.00  0.00    +0.251 C 
ATOM      3  O   UNL     1      -2.545   4.480   2.443  0.00  0.00    -0.272 OA
ATOM      4  C   UNL     1      -2.399   4.100   0.037  0.00  0.00    +0.138 C 
ATOM      5  C   UNL     1      -1.824   5.462  -0.373  0.00  0.00    +0.045 C 
ATOM      6  C   UNL     1      -0.342   5.330   0.046  0.00  0.00    +0.038 C 
ATOM      7  C   UNL     1      -0.053   3.844   0.026  0.00  0.00    -0.042 A 
ATOM      8  C   UNL     1      -1.244   3.135   0.030  0.00  0.00    -0.012 A 
ATOM      9  C   UNL     1      -1.218   1.750   0.017  0.00  0.00    +0.006 A 
ATOM     10  C   UNL     1      -0.013   1.076   0.008  0.00  0.00    +0.000 A 
ATOM     11  C   UNL     1       1.175   1.784   0.000  0.00  0.00    +0.000 A 
ATOM     12  C   UNL     1       1.152   3.165   0.010  0.00  0.00    +0.004 A 
ATOM     13  N   UNL     1      -3.465   3.676  -0.872  0.00  0.00    -0.281 N 
ATOM     14  C   UNL     1      -4.570   3.532  -0.113  0.00  0.00    +0.310 C 
ATOM     15  O   UNL     1      -5.650   3.187  -0.551  0.00  0.00    -0.252 OA
ATOM     16  H   UNL     1      -3.253   3.543  -1.943  0.00  0.00    +0.152 HD
ENDROOT
BRANCH   1  17
ATOM     17  C   UNL     1      -5.363   3.740   2.227  0.00  0.00    +0.213 C 
BRANCH  17  25
ATOM     18  C   UNL     1      -9.957   7.634   3.542  0.00  0.00    +0.009 C 
ATOM     19  C   UNL     1      -9.224   6.318   3.272  0.00  0.00    +0.004 C 
ATOM     20  C   UNL     1      -9.663   5.270   4.297  0.00  0.00    +0.009 C 
ATOM     21  C   UNL     1      -8.956   3.944   4.008  0.00  0.00    +0.004 C 
ATOM     22  C   UNL     1      -7.445   4.138   4.131  0.00  0.00    +0.111 C 
ATOM     23  N   UNL     1      -7.032   5.246   3.259  0.00  0.00    -0.300 N 
ATOM     24  C   UNL     1      -7.713   6.541   3.391  0.00  0.00    +0.111 C 
ATOM     25  C   UNL     1      -6.051   5.075   2.350  0.00  0.00    +0.234 C 
ATOM     26  O   UNL     1      -5.723   5.995   1.632  0.00  0.00    -0.274 OA
ATOM     27  C   UNL     1      -9.420   2.888   5.013  0.00  0.00    +0.009 C 
ENDBRANCH  17  25
ENDBRANCH   1  17
TORSDOF 2
