REMARK  Name = ZINC16431249
REMARK  10 active torsions:
REMARK  status: ('A' for Active; 'I' for Inactive)
REMARK    1  A    between atoms: C_6  and  N_7
REMARK    2  A    between atoms: N_13  and  C_24
REMARK    3  A    between atoms: C_24  and  C_25
REMARK    4  A    between atoms: C_25  and  C_27
REMARK    5  A    between atoms: C_25  and  O_35
REMARK    6  A    between atoms: C_27  and  C_29
REMARK    7  A    between atoms: C_27  and  O_34
REMARK    8  A    between atoms: C_29  and  C_31
REMARK    9  A    between atoms: C_29  and  O_33
REMARK   10  A    between atoms: C_31  and  O_32
REMARK                            x       y       z     vdW  Elec       q    Type
REMARK                         _______ _______ _______ _____ _____    ______ ____
ROOT
ATOM      1  C   UNL     1      -6.122   3.450  -1.591  0.00  0.00    +0.025 A 
ATOM      2  C   UNL     1      -5.078   2.577  -1.663  0.00  0.00    +0.031 A 
ATOM      3  C   UNL     1      -3.854   2.882  -1.042  0.00  0.00    +0.086 A 
ATOM      4  C   UNL     1      -3.727   4.094  -0.336  0.00  0.00    +0.059 A 
ATOM      5  C   UNL     1      -4.793   4.976  -0.278  0.00  0.00    +0.048 A 
ATOM      6  C   UNL     1      -5.992   4.657  -0.903  0.00  0.00    +0.032 A 
ATOM      7  N   UNL     1      -2.536   4.407   0.338  0.00  0.00    -0.302 N 
ATOM      8  C   UNL     1      -1.501   3.360   0.368  0.00  0.00    +0.217 C 
ATOM      9  C   UNL     1      -1.697   2.181  -0.568  0.00  0.00    +0.142 C 
ATOM     10  N   UNL     1      -2.835   2.003  -1.153  0.00  0.00    -0.242 NA
ATOM     11  C   UNL     1      -0.542   1.293  -0.777  0.00  0.00    +0.269 C 
ATOM     12  O   UNL     1      -0.678   0.107  -1.009  0.00  0.00    -0.268 OA
ATOM     13  N   UNL     1       0.682   1.871  -0.702  0.00  0.00    -0.235 N 
ATOM     14  C   UNL     1       0.805   3.176  -0.412  0.00  0.00    +0.308 C 
ATOM     15  O   UNL     1       1.895   3.694  -0.554  0.00  0.00    -0.252 OA
ATOM     16  N   UNL     1      -0.208   3.942   0.026  0.00  0.00    -0.275 N 
ATOM     17  H   UNL     1       1.477   1.337  -0.860  0.00  0.00    +0.159 HD
ATOM     18  H   UNL     1      -0.076   4.899   0.117  0.00  0.00    +0.152 HD
ENDROOT
BRANCH   6  19
ATOM     19  N   UNL     1      -7.063   5.541  -0.843  0.00  0.00    -0.330 N 
ATOM     20  C   UNL     1      -7.404   5.861   0.549  0.00  0.00    +0.105 C 
ATOM     21  C   UNL     1      -8.486   6.943   0.575  0.00  0.00    +0.019 C 
ATOM     22  C   UNL     1      -9.725   6.438  -0.171  0.00  0.00    +0.003 C 
ATOM     23  C   UNL     1      -9.332   6.066  -1.604  0.00  0.00    +0.019 C 
ATOM     24  C   UNL     1      -8.225   5.009  -1.566  0.00  0.00    +0.105 C 
ENDBRANCH   6  19
BRANCH   7  25
ATOM     25  C   UNL     1      -2.798   4.927   1.686  0.00  0.00    +0.141 C 
BRANCH  25  26
ATOM     26  C   UNL     1      -1.666   5.871   2.098  0.00  0.00    +0.163 C 
BRANCH  26  27
ATOM     27  O   UNL     1      -0.452   5.128   2.234  0.00  0.00    -0.388 OA
ATOM     28  H   UNL     1      -0.494   4.426   2.898  0.00  0.00    +0.210 HD
ENDBRANCH  26  27
BRANCH  26  29
ATOM     29  C   UNL     1      -2.012   6.532   3.433  0.00  0.00    +0.175 C 
BRANCH  29  30
ATOM     30  O   UNL     1      -2.294   5.522   4.405  0.00  0.00    -0.387 OA
ATOM     31  H   UNL     1      -1.558   4.917   4.569  0.00  0.00    +0.210 HD
ENDBRANCH  29  30
BRANCH  29  32
ATOM     32  C   UNL     1      -0.829   7.378   3.906  0.00  0.00    +0.171 C 
BRANCH  32  33
ATOM     33  O   UNL     1       0.346   6.567   3.960  0.00  0.00    -0.387 OA
ATOM     34  H   UNL     1       0.276   5.813   4.561  0.00  0.00    +0.210 HD
ENDBRANCH  32  33
BRANCH  32  35
ATOM     35  C   UNL     1      -1.126   7.938   5.299  0.00  0.00    +0.189 C 
BRANCH  35  36
ATOM     36  O   UNL     1      -0.074   8.822   5.691  0.00  0.00    -0.392 OA
ATOM     37  H   UNL     1      -0.196   9.214   6.566  0.00  0.00    +0.210 HD
ENDBRANCH  35  36
ENDBRANCH  32  35
ENDBRANCH  29  32
ENDBRANCH  26  29
ENDBRANCH  25  26
ENDBRANCH   7  25
TORSDOF 10
