REMARK  Name = ZINC14996733
REMARK  14 active torsions:
REMARK  status: ('A' for Active; 'I' for Inactive)
REMARK    1  A    between atoms: C_1  and  C_2
REMARK    2  A    between atoms: C_3  and  C_7
REMARK    3  A    between atoms: C_7  and  N_8
REMARK    4  A    between atoms: C_9  and  C_11
REMARK    5  A    between atoms: C_14  and  S_30
REMARK    6  A    between atoms: C_17  and  C_18
REMARK    7  A    between atoms: C_17  and  N_65
REMARK    8  A    between atoms: C_21  and  O_28
REMARK    9  A    between atoms: C_22  and  O_26
REMARK   10  A    between atoms: C_23  and  O_24
REMARK   11  A    between atoms: O_24  and  C_25
REMARK   12  A    between atoms: O_26  and  C_27
REMARK   13  A    between atoms: O_28  and  C_29
REMARK   14  A    between atoms: S_30  and  C_31
REMARK                            x       y       z     vdW  Elec       q    Type
REMARK                         _______ _______ _______ _____ _____    ______ ____
ROOT
ATOM      1  C   UNL     1       1.556  -4.101   1.771  0.00  0.00    +0.021 C 
ATOM      2  C   UNL     1       2.530  -4.429   2.922  0.00  0.00    +0.006 C 
ATOM      3  C   UNL     1       3.600  -3.319   2.871  0.00  0.00    +0.034 C 
ATOM      4  C   UNL     1       3.182  -2.413   1.693  0.00  0.00    -0.063 C 
ATOM      5  N   UNL     1       1.742  -2.667   1.561  0.00  0.00    +0.391 N 
ATOM      6  H   UNL     1       1.225  -2.138   2.273  0.00  0.00    -0.080 HD
ENDROOT
BRANCH   1   8
ATOM      7  N   UNL     1      -0.226  -5.684   2.432  0.00  0.00    -0.311 N 
ATOM      8  C   UNL     1       0.138  -4.412   2.178  0.00  0.00    +0.200 C 
ATOM      9  O   UNL     1      -0.675  -3.517   2.276  0.00  0.00    -0.278 OA
ATOM     10  H   UNL     1       0.424  -6.400   2.353  0.00  0.00    +0.149 HD
BRANCH   7  11
ATOM     11  C   UNL     1      -1.604  -5.987   2.826  0.00  0.00    +0.165 C 
BRANCH  11  14
ATOM     12  C   UNL     1      -1.137  -7.470   5.567  0.00  0.00    +0.071 C 
ATOM     13  C   UNL     1      -1.540  -8.133   4.276  0.00  0.00    +0.106 A 
ATOM     14  C   UNL     1      -1.748  -7.471   3.050  0.00  0.00    +0.124 A 
ATOM     15  N   UNL     1      -2.090  -8.337   2.143  0.00  0.00    -0.052 NA
ATOM     16  O   UNL     1      -2.106  -9.614   2.761  0.00  0.00    -0.242 OA
ATOM     17  N   UNL     1      -1.749  -9.406   4.119  0.00  0.00    -0.054 NA
ENDBRANCH  11  14
ENDBRANCH   7  11
ENDBRANCH   1   8
BRANCH   5  18
ATOM     18  C   UNL     1       1.262  -2.261   0.203  0.00  0.00    -0.038 C 
BRANCH  18  19
ATOM     19  C   UNL     1       1.213  -0.759   0.095  0.00  0.00    -0.018 A 
ATOM     20  C   UNL     1       0.007  -0.096   0.229  0.00  0.00    +0.009 A 
ATOM     21  C   UNL     1      -0.043   1.282   0.132  0.00  0.00    +0.050 A 
ATOM     22  C   UNL     1       1.118   2.005  -0.100  0.00  0.00    +0.165 A 
ATOM     23  C   UNL     1       2.332   1.342  -0.235  0.00  0.00    +0.204 A 
ATOM     24  C   UNL     1       2.378  -0.043  -0.137  0.00  0.00    +0.167 A 
BRANCH  24  25
ATOM     25  O   UNL     1       3.564  -0.696  -0.268  0.00  0.00    -0.491 OA
ATOM     26  C   UNL     1       3.993  -1.002  -1.596  0.00  0.00    +0.277 C 
ENDBRANCH  24  25
BRANCH  23  27
ATOM     27  O   UNL     1       3.473   2.049  -0.464  0.00  0.00    -0.488 OA
ATOM     28  C   UNL     1       4.202   2.491   0.682  0.00  0.00    +0.277 C 
ENDBRANCH  23  27
BRANCH  22  29
ATOM     29  O   UNL     1       1.067   3.361  -0.196  0.00  0.00    -0.491 OA
ATOM     30  C   UNL     1      -0.214   3.974  -0.048  0.00  0.00    +0.277 C 
ENDBRANCH  22  29
ENDBRANCH  18  19
ENDBRANCH   5  18
BRANCH   3  31
ATOM     31  S   UNL     1       5.238  -4.036   2.564  0.00  0.00    -0.124 S 
BRANCH  31  32
ATOM     32  C   UNL     1       6.334  -2.662   2.685  0.00  0.00    +0.008 A 
ATOM     33  C   UNL     1       5.834  -1.394   2.958  0.00  0.00    +0.017 A 
ATOM     34  C   UNL     1       6.696  -0.320   3.058  0.00  0.00    +0.039 A 
ATOM     35  C   UNL     1       8.056  -0.503   2.875  0.00  0.00    +0.123 A 
ATOM     36  C   UNL     1       8.556  -1.764   2.598  0.00  0.00    +0.039 A 
ATOM     37  C   UNL     1       7.699  -2.843   2.502  0.00  0.00    +0.017 A 
ATOM     38  F   UNL     1       8.897   0.551   2.968  0.00  0.00    -0.205 F 
ENDBRANCH  31  32
ENDBRANCH   3  31
TORSDOF 10
