REMARK  Name = ZINC66678992
REMARK  7 active torsions:
REMARK  status: ('A' for Active; 'I' for Inactive)
REMARK    1  A    between atoms: C_1  and  C_2
REMARK    2  A    between atoms: C_2  and  C_3
REMARK    3  A    between atoms: C_2  and  C_4
REMARK    4  A    between atoms: C_2  and  N_23
REMARK    5  A    between atoms: C_4  and  N_5
REMARK    6  A    between atoms: N_8  and  C_9
REMARK    7  A    between atoms: C_13  and  C_15
REMARK                            x       y       z     vdW  Elec       q    Type
REMARK                         _______ _______ _______ _____ _____    ______ ____
ROOT
ATOM      1  N   UNL     1      -1.310  -1.904  -0.086  0.00  0.00    -0.300 N 
ATOM      2  C   UNL     1      -2.449  -2.611  -0.228  0.00  0.00    +0.304 C 
ATOM      3  O   UNL     1      -3.513  -2.033  -0.336  0.00  0.00    -0.253 OA
ATOM      4  N   UNL     1      -2.408  -3.958  -0.250  0.00  0.00    -0.269 N 
ATOM      5  H   UNL     1      -0.461  -2.365  -0.000  0.00  0.00    +0.150 HD
ATOM      6  H   UNL     1      -1.554  -4.418  -0.224  0.00  0.00    +0.156 HD
ENDROOT
BRANCH   4   7
ATOM      7  C   UNL     1      -3.598  -4.693  -0.309  0.00  0.00    +0.035 A 
ATOM      8  C   UNL     1      -4.676  -4.212  -1.042  0.00  0.00    +0.023 A 
ATOM      9  C   UNL     1      -5.852  -4.935  -1.103  0.00  0.00    +0.002 A 
ATOM     10  C   UNL     1      -5.963  -6.139  -0.436  0.00  0.00    +0.010 A 
ATOM     11  C   UNL     1      -4.886  -6.629   0.301  0.00  0.00    +0.004 A 
ATOM     12  C   UNL     1      -3.698  -5.904   0.358  0.00  0.00    +0.033 A 
BRANCH  11  13
ATOM     13  C   UNL     1      -5.003  -7.922   1.018  0.00  0.00    +0.091 A 
ATOM     14  C   UNL     1      -6.208  -8.660   0.948  0.00  0.00    +0.035 A 
ATOM     15  C   UNL     1      -6.279  -9.845   1.620  0.00  0.00    +0.073 A 
ATOM     16  C   UNL     1      -5.142 -10.262   2.346  0.00  0.00    +0.265 A 
ATOM     17  O   UNL     1      -5.159 -11.316   2.962  0.00  0.00    -0.266 OA
ATOM     18  N   UNL     1      -4.039  -9.491   2.353  0.00  0.00    -0.243 N 
ATOM     19  H   UNL     1      -3.261  -9.783   2.853  0.00  0.00    +0.192 HD
ATOM     20  N   UNL     1      -3.987  -8.380   1.711  0.00  0.00    -0.171 NA
ENDBRANCH  11  13
ENDBRANCH   4   7
BRANCH   1  21
ATOM     21  C   UNL     1      -1.354  -0.440  -0.062  0.00  0.00    +0.093 C 
BRANCH  21  23
ATOM     22  C   UNL     1       0.831  -0.335  -1.269  0.00  0.00    -0.008 C 
ATOM     23  C   UNL     1       0.072   0.113  -0.018  0.00  0.00    -0.055 C 
ATOM     24  C   UNL     1       0.025   1.641   0.030  0.00  0.00    -0.008 C 
BRANCH  23  25
ATOM     25  N   UNL     1       0.757  -0.394   1.178  0.00  0.00    +0.384 N 
ATOM     26  C   UNL     1      -0.033  -0.061   2.370  0.00  0.00    -0.078 C 
ATOM     27  C   UNL     1       0.635  -0.656   3.611  0.00  0.00    -0.019 C 
ATOM     28  C   UNL     1       2.046  -0.078   3.753  0.00  0.00    -0.004 C 
ATOM     29  C   UNL     1       2.836  -0.367   2.474  0.00  0.00    -0.019 C 
ATOM     30  C   UNL     1       2.087   0.218   1.274  0.00  0.00    -0.078 C 
ATOM     31  H   UNL     1       0.853  -1.396   1.110  0.00  0.00    -0.081 HD
ENDBRANCH  23  25
ENDBRANCH  21  23
ENDBRANCH   1  21
TORSDOF 5
