REMARK  Name = ZINC36289746
REMARK  5 active torsions:
REMARK  status: ('A' for Active; 'I' for Inactive)
REMARK    1  A    between atoms: C_3  and  O_23
REMARK    2  A    between atoms: C_4  and  C_8
REMARK    3  A    between atoms: N_9  and  N_10
REMARK    4  A    between atoms: C_11  and  C_13
REMARK    5  A    between atoms: C_15  and  N_21
REMARK                            x       y       z     vdW  Elec       q    Type
REMARK                         _______ _______ _______ _____ _____    ______ ____
ROOT
ATOM      1  N   UNL     1       6.029  -0.708  -0.061  0.00  0.00    -0.202 N 
ATOM      2  C   UNL     1       7.187  -0.018  -0.069  0.00  0.00    +0.283 C 
ATOM      3  O   UNL     1       7.170   1.198  -0.062  0.00  0.00    -0.267 OA
ATOM      4  H   UNL     1       6.043  -1.678  -0.066  0.00  0.00    +0.178 HD
ENDROOT
BRANCH   2   5
ATOM      5  C   UNL     1       8.479  -0.739  -0.085  0.00  0.00    +0.149 A 
ATOM      6  C   UNL     1       9.670  -0.019  -0.087  0.00  0.00    +0.094 A 
ATOM      7  C   UNL     1      10.880  -0.715  -0.103  0.00  0.00    +0.067 A 
ATOM      8  C   UNL     1      10.842  -2.108  -0.116  0.00  0.00    +0.100 A 
ATOM      9  C   UNL     1       9.615  -2.752  -0.113  0.00  0.00    +0.150 A 
ATOM     10  N   UNL     1       8.490  -2.068  -0.093  0.00  0.00    -0.228 NA
ATOM     11 CL   UNL     1       9.561  -4.487  -0.130  0.00  0.00    -0.060 Cl
ATOM     12 CL   UNL     1      12.316  -3.026  -0.137  0.00  0.00    -0.078 Cl
ATOM     13 CL   UNL     1       9.652   1.717  -0.071  0.00  0.00    -0.079 Cl
BRANCH   7  14
ATOM     14  N   UNL     1      12.095  -0.033  -0.107  0.00  0.00    -0.356 N 
ATOM     15  H   UNL     1      12.108   0.937  -0.098  0.00  0.00    +0.142 HD
ATOM     16  H   UNL     1      12.929  -0.529  -0.118  0.00  0.00    +0.142 HD
ENDBRANCH   7  14
ENDBRANCH   2   5
BRANCH   1  18
ATOM     17  C   UNL     1       3.692  -0.690  -0.037  0.00  0.00    +0.142 C 
ATOM     18  N   UNL     1       4.806  -0.025  -0.045  0.00  0.00    -0.187 NA
BRANCH  17  22
ATOM     19  C   UNL     1      -0.017   1.381   0.010  0.00  0.00    +0.019 A 
ATOM     20  C   UNL     1       1.166   2.096   0.002  0.00  0.00    +0.047 A 
ATOM     21  C   UNL     1       2.381   1.430  -0.013  0.00  0.00    +0.126 A 
ATOM     22  C   UNL     1       2.405   0.028  -0.021  0.00  0.00    +0.037 A 
ATOM     23  C   UNL     1       1.204  -0.683  -0.013  0.00  0.00    +0.028 A 
ATOM     24  C   UNL     1       0.002  -0.004   0.002  0.00  0.00    +0.019 A 
ATOM     25 BR   UNL     1      -1.625  -0.968   0.013  0.00  0.00    -0.050 Br
BRANCH  21  26
ATOM     26  O   UNL     1       3.543   2.132  -0.021  0.00  0.00    -0.506 OA
ATOM     27  H   UNL     1       3.888   2.331   0.860  0.00  0.00    +0.292 HD
ENDBRANCH  21  26
ENDBRANCH  17  22
ENDBRANCH   1  18
TORSDOF 5
