REMARK  Name = ZINC35671550
REMARK  6 active torsions:
REMARK  status: ('A' for Active; 'I' for Inactive)
REMARK    1  A    between atoms: C_1  and  C_2
REMARK    2  A    between atoms: C_2  and  C_3
REMARK    3  A    between atoms: C_6  and  C_9
REMARK    4  A    between atoms: C_9  and  C_11
REMARK    5  A    between atoms: C_9  and  N_27
REMARK    6  A    between atoms: C_11  and  N_12
REMARK                            x       y       z     vdW  Elec       q    Type
REMARK                         _______ _______ _______ _____ _____    ______ ____
ROOT
ATOM      1  C   UNL     1       3.377  -0.599  -5.293  0.00  0.00    +0.115 C 
ENDROOT
BRANCH   1   2
ATOM      2  N   UNL     1       2.360   0.277  -5.880  0.00  0.00    -0.300 N 
ATOM      3  C   UNL     1       1.957   0.095  -7.166  0.00  0.00    +0.202 A 
ATOM      4  N   UNL     1       1.063   0.836  -7.740  0.00  0.00    -0.235 NA
ATOM      5  C   UNL     1       0.449   1.874  -7.081  0.00  0.00    +0.107 A 
ATOM      6  C   UNL     1      -0.533   2.750  -7.588  0.00  0.00    +0.081 A 
ATOM      7  C   UNL     1      -1.000   3.722  -6.734  0.00  0.00    +0.070 A 
ATOM      8  S   UNL     1      -0.126   3.467  -5.223  0.00  0.00    -0.073 S 
ATOM      9  C   UNL     1       0.851   2.080  -5.747  0.00  0.00    +0.105 A 
ATOM     10  C   UNL     1       1.808   1.272  -5.145  0.00  0.00    +0.268 A 
ATOM     11  O   UNL     1       2.146   1.457  -3.987  0.00  0.00    -0.266 OA
ATOM     12  S   UNL     1      -2.210   4.921  -7.150  0.00  0.00    -0.107 S 
ATOM     13  C   UNL     1      -2.015   5.012  -8.961  0.00  0.00    +0.171 C 
ATOM     14  C   UNL     1      -1.760   3.632  -9.498  0.00  0.00    +0.227 C 
ATOM     15  O   UNL     1      -2.252   3.367 -10.575  0.00  0.00    -0.275 OA
ATOM     16  N   UNL     1      -1.051   2.672  -8.912  0.00  0.00    -0.282 N 
ATOM     17  H   UNL     1      -0.875   1.865  -9.420  0.00  0.00    +0.155 HD
ENDBRANCH   1   2
BRANCH   1  18
ATOM     18  C   UNL     1       2.713  -1.875  -4.773  0.00  0.00    -0.017 C 
BRANCH  18  19
ATOM     19  N   UNL     1       3.742  -2.788  -4.260  0.00  0.00    +0.385 N 
ATOM     20  C   UNL     1       4.647  -3.167  -5.351  0.00  0.00    -0.078 C 
ATOM     21  C   UNL     1       5.768  -4.054  -4.806  0.00  0.00    -0.019 C 
ATOM     22  C   UNL     1       5.159  -5.314  -4.186  0.00  0.00    -0.004 C 
ATOM     23  C   UNL     1       4.161  -4.905  -3.098  0.00  0.00    -0.019 C 
ATOM     24  C   UNL     1       3.099  -3.987  -3.708  0.00  0.00    -0.078 C 
ATOM     25  H   UNL     1       4.269  -2.326  -3.534  0.00  0.00    -0.081 HD
ENDBRANCH  18  19
BRANCH  18  29
ATOM     26  C   UNL     1      -0.008  -0.888  -1.632  0.00  0.00    -0.048 A 
ATOM     27  C   UNL     1      -0.482  -1.119  -2.910  0.00  0.00    +0.004 A 
ATOM     28  C   UNL     1       0.398  -1.438  -3.926  0.00  0.00    +0.002 A 
ATOM     29  C   UNL     1       1.753  -1.526  -3.665  0.00  0.00    -0.059 A 
ATOM     30  C   UNL     1       2.227  -1.294  -2.388  0.00  0.00    +0.002 A 
ATOM     31  C   UNL     1       1.347  -0.970  -1.372  0.00  0.00    +0.004 A 
BRANCH  26  33
ATOM     32  C   UNL     1      -1.148   0.979  -0.462  0.00  0.00    +0.009 C 
ATOM     33  C   UNL     1      -0.968  -0.539  -0.524  0.00  0.00    +0.032 C 
ENDBRANCH  26  33
ENDBRANCH  18  29
ENDBRANCH   1  18
TORSDOF 5
