REMARK  Name = ZINC67632223
REMARK  12 active torsions:
REMARK  status: ('A' for Active; 'I' for Inactive)
REMARK    1  A    between atoms: C_1  and  C_2
REMARK    2  A    between atoms: C_6  and  O_8
REMARK    3  A    between atoms: O_8  and  C_9
REMARK    4  A    between atoms: C_9  and  C_10
REMARK    5  A    between atoms: C_10  and  C_12
REMARK    6  A    between atoms: C_10  and  N_13
REMARK    7  A    between atoms: N_16  and  C_17
REMARK    8  A    between atoms: C_17  and  C_18
REMARK    9  A    between atoms: C_18  and  C_20
REMARK   10  A    between atoms: C_18  and  O_28
REMARK   11  A    between atoms: C_20  and  N_21
REMARK   12  A    between atoms: C_24  and  C_27
REMARK                            x       y       z     vdW  Elec       q    Type
REMARK                         _______ _______ _______ _____ _____    ______ ____
ROOT
ATOM      1  N   UNL     1       1.333  -4.432   4.355  0.00  0.00    -0.294 N 
ATOM      2  C   UNL     1       1.812  -5.202   5.351  0.00  0.00    +0.300 C 
ATOM      3  O   UNL     1       1.208  -6.200   5.693  0.00  0.00    -0.253 OA
ATOM      4  N   UNL     1       2.963  -4.867   5.968  0.00  0.00    -0.297 N 
ATOM      5  H   UNL     1       1.816  -3.636   4.082  0.00  0.00    +0.151 HD
ATOM      6  H   UNL     1       3.445  -4.071   5.696  0.00  0.00    +0.150 HD
ENDROOT
BRANCH   1   7
ATOM      7  C   UNL     1       0.083  -4.796   3.683  0.00  0.00    +0.109 C 
ATOM      8  C   UNL     1      -1.103  -4.248   4.480  0.00  0.00    +0.031 C 
BRANCH   7   9
ATOM      9  C   UNL     1       0.069  -4.202   2.274  0.00  0.00    +0.251 C 
BRANCH   9  10
ATOM     10  O   UNL     1       0.050  -2.776   2.358  0.00  0.00    -0.490 OA
BRANCH  10  16
ATOM     11  C   UNL     1      -0.018   1.503   0.010  0.00  0.00    +0.044 C 
ATOM     12  C   UNL     1       0.002  -0.004   0.002  0.00  0.00    -0.047 A 
ATOM     13  C   UNL     1       0.006  -0.688  -1.200  0.00  0.00    +0.003 A 
ATOM     14  C   UNL     1       0.024  -2.071  -1.211  0.00  0.00    +0.004 A 
ATOM     15  C   UNL     1       0.039  -2.772  -0.020  0.00  0.00    +0.045 A 
ATOM     16  C   UNL     1       0.035  -2.088   1.186  0.00  0.00    +0.121 A 
ATOM     17  C   UNL     1       0.023  -0.700   1.195  0.00  0.00    +0.049 A 
ENDBRANCH  10  16
ENDBRANCH   9  10
ENDBRANCH   7   9
ENDBRANCH   1   7
BRANCH   4  18
ATOM     18  C   UNL     1       3.484  -5.704   7.052  0.00  0.00    +0.135 C 
BRANCH  18  19
ATOM     19  C   UNL     1       4.790  -5.105   7.576  0.00  0.00    +0.115 C 
BRANCH  19  20
ATOM     20  O   UNL     1       4.525  -3.834   8.174  0.00  0.00    -0.392 OA
ATOM     21  H   UNL     1       3.909  -3.871   8.919  0.00  0.00    +0.210 HD
ENDBRANCH  19  20
BRANCH  19  22
ATOM     22  C   UNL     1       5.399  -6.043   8.620  0.00  0.00    -0.046 C 
BRANCH  22  23
ATOM     23  N   UNL     1       6.653  -5.468   9.123  0.00  0.00    +0.381 N 
ATOM     24  C   UNL     1       7.632  -5.401   8.031  0.00  0.00    -0.078 C 
ATOM     25  C   UNL     1       8.913  -4.728   8.530  0.00  0.00    -0.016 C 
ATOM     26  C   UNL     1       9.494  -5.544   9.689  0.00  0.00    -0.018 C 
ATOM     27  C   UNL     1       8.438  -5.670  10.791  0.00  0.00    -0.016 C 
ATOM     28  C   UNL     1       7.174  -6.308  10.208  0.00  0.00    -0.078 C 
ATOM     29  C   UNL     1      10.730  -4.835  10.244  0.00  0.00    +0.007 C 
ATOM     30  H   UNL     1       6.479  -4.538   9.473  0.00  0.00    -0.082 HD
ENDBRANCH  22  23
ENDBRANCH  19  22
ENDBRANCH  18  19
ENDBRANCH   4  18
TORSDOF 9
