REMARK  Name = ZINC44773427
REMARK  5 active torsions:
REMARK  status: ('A' for Active; 'I' for Inactive)
REMARK    1  A    between atoms: C_1  and  C_2
REMARK    2  A    between atoms: C_2  and  C_3
REMARK    3  A    between atoms: C_2  and  C_4
REMARK    4  A    between atoms: C_2  and  C_7
REMARK    5  A    between atoms: C_4  and  N_6
REMARK                            x       y       z     vdW  Elec       q    Type
REMARK                         _______ _______ _______ _____ _____    ______ ____
ROOT
ATOM      1  C   UNL     1       0.561  -0.752   1.225  0.00  0.00    +0.027 C 
ATOM      2  C   UNL     1       0.085  -0.002  -0.020  0.00  0.00    +0.086 C 
ATOM      3  C   UNL     1      -1.295  -0.521  -0.432  0.00  0.00    +0.027 C 
ENDROOT
BRANCH   2   4
ATOM      4  C   UNL     1       1.062  -0.226  -1.146  0.00  0.00    +0.227 C 
ATOM      5  O   UNL     1       0.731  -0.873  -2.117  0.00  0.00    -0.275 OA
ATOM      6  N   UNL     1       2.304   0.292  -1.073  0.00  0.00    -0.301 N 
ATOM      7  C   UNL     1       2.752   0.995   0.137  0.00  0.00    +0.108 C 
ATOM      8  C   UNL     1       4.063   0.364   0.617  0.00  0.00    +0.019 C 
ATOM      9  C   UNL     1       5.078   0.374  -0.528  0.00  0.00    +0.003 C 
ATOM     10  C   UNL     1       4.541  -0.457  -1.696  0.00  0.00    +0.019 C 
ATOM     11  C   UNL     1       3.238   0.159  -2.199  0.00  0.00    +0.108 C 
ENDBRANCH   2   4
BRANCH   2  12
ATOM     12  C   UNL     1      -0.002   1.471   0.283  0.00  0.00    +0.061 C 
ATOM     13  S   UNL     1       0.550   2.539  -0.771  0.00  0.00    -0.040 S 
BRANCH  12  14
ATOM     14  N   UNL     1      -0.546   1.889   1.444  0.00  0.00    -0.355 N 
ATOM     15  H   UNL     1      -0.881   1.241   2.083  0.00  0.00    +0.143 HD
ATOM     16  H   UNL     1      -0.602   2.838   1.639  0.00  0.00    +0.143 HD
ENDBRANCH  12  14
ENDBRANCH   2  12
TORSDOF 3
