REMARK  Name = ZINC35781453
REMARK  3 active torsions:
REMARK  status: ('A' for Active; 'I' for Inactive)
REMARK    1  A    between atoms: C_1  and  C_2
REMARK    2  A    between atoms: C_2  and  N_3
REMARK    3  A    between atoms: C_5  and  N_8
REMARK                            x       y       z     vdW  Elec       q    Type
REMARK                         _______ _______ _______ _____ _____    ______ ____
ROOT
ATOM      1  N   UNL     1       3.127  -2.319  -3.025  0.00  0.00    -0.296 N 
ATOM      2  C   UNL     1       3.357  -2.415  -4.385  0.00  0.00    +0.134 A 
ATOM      3  C   UNL     1       4.407  -3.235  -4.882  0.00  0.00    +0.048 A 
ATOM      4  C   UNL     1       5.362  -4.059  -4.162  0.00  0.00    +0.021 A 
ATOM      5  C   UNL     1       6.277  -4.756  -4.852  0.00  0.00    +0.048 A 
ATOM      6  S   UNL     1       5.917  -4.349  -6.550  0.00  0.00    -0.077 S 
ATOM      7  C   UNL     1       4.547  -3.254  -6.287  0.00  0.00    +0.113 A 
ATOM      8  N   UNL     1       3.748  -2.552  -7.067  0.00  0.00    -0.228 NA
ATOM      9  C   UNL     1       2.791  -1.809  -6.546  0.00  0.00    +0.224 A 
ATOM     10  N   UNL     1       2.599  -1.748  -5.241  0.00  0.00    -0.220 NA
ATOM     11  H   UNL     1       3.686  -2.810  -2.402  0.00  0.00    +0.154 HD
ENDROOT
BRANCH   1  14
ATOM     12  N   UNL     1       0.688  -0.476  -1.203  0.00  0.00    -0.270 N 
ATOM     13  C   UNL     1       1.747  -1.327  -1.240  0.00  0.00    +0.131 A 
ATOM     14  C   UNL     1       2.081  -1.510  -2.543  0.00  0.00    +0.070 A 
ATOM     15  C   UNL     1       1.199  -0.748  -3.323  0.00  0.00    +0.157 A 
ATOM     16  N   UNL     1       0.364  -0.137  -2.523  0.00  0.00    -0.178 NA
BRANCH  12  18
ATOM     17  C   UNL     1      -0.019   1.526   0.010  0.00  0.00    +0.029 C 
ATOM     18  C   UNL     1       0.002  -0.004   0.002  0.00  0.00    +0.140 C 
ENDBRANCH  12  18
ENDBRANCH   1  14
TORSDOF 2
