REMARK  Name = ZINC12195138
REMARK  8 active torsions:
REMARK  status: ('A' for Active; 'I' for Inactive)
REMARK    1  A    between atoms: C_1  and  C_2
REMARK    2  A    between atoms: C_2  and  C_3
REMARK    3  A    between atoms: C_3  and  C_4
REMARK    4  A    between atoms: C_4  and  C_5
REMARK    5  A    between atoms: C_9  and  C_11
REMARK    6  A    between atoms: C_11  and  N_59
REMARK    7  A    between atoms: C_24  and  C_26
REMARK    8  A    between atoms: C_30  and  C_32
REMARK                            x       y       z     vdW  Elec       q    Type
REMARK                         _______ _______ _______ _____ _____    ______ ____
ROOT
ATOM      1  C   UNL     1      -2.196   1.129  -1.931  0.00  0.00    -0.072 C 
ATOM      2  C   UNL     1      -3.031   1.416  -3.186  0.00  0.00    +0.019 C 
ATOM      3  C   UNL     1      -2.252   2.370  -4.056  0.00  0.00    -0.022 A 
ATOM      4  C   UNL     1      -2.444   2.706  -5.449  0.00  0.00    +0.003 A 
ATOM      5  C   UNL     1      -3.368   2.284  -6.410  0.00  0.00    +0.010 A 
ATOM      6  C   UNL     1      -3.249   2.827  -7.666  0.00  0.00    +0.001 A 
ATOM      7  C   UNL     1      -2.265   3.750  -7.979  0.00  0.00    +0.002 A 
ATOM      8  C   UNL     1      -1.338   4.185  -7.048  0.00  0.00    +0.026 A 
ATOM      9  C   UNL     1      -1.433   3.651  -5.765  0.00  0.00    +0.047 A 
ATOM     10  N   UNL     1      -0.698   3.856  -4.632  0.00  0.00    -0.359 N 
ATOM     11  H   UNL     1       0.061   4.455  -4.560  0.00  0.00    +0.166 HD
ATOM     12  C   UNL     1      -1.194   3.087  -3.614  0.00  0.00    +0.012 A 
ATOM     13  C   UNL     1      -0.683   3.011  -2.195  0.00  0.00    +0.030 C 
ATOM     14  N   UNL     1      -1.748   2.416  -1.354  0.00  0.00    +0.393 N 
ATOM     15  H   UNL     1      -2.546   3.062  -1.323  0.00  0.00    -0.080 HD
ENDROOT
BRANCH  13  16
ATOM     16  C   UNL     1      -0.380   4.399  -1.691  0.00  0.00    +0.034 A 
ATOM     17  C   UNL     1       0.856   4.964  -1.945  0.00  0.00    +0.022 A 
ATOM     18  C   UNL     1       1.124   6.241  -1.477  0.00  0.00    +0.003 A 
ATOM     19  C   UNL     1       0.135   6.905  -0.768  0.00  0.00    +0.023 A 
ATOM     20  C   UNL     1      -1.077   6.277  -0.552  0.00  0.00    +0.038 A 
ATOM     21  N   UNL     1      -1.299   5.062  -1.017  0.00  0.00    -0.258 NA
ATOM     22  C   UNL     1      -2.159   6.989   0.217  0.00  0.00    +0.065 C 
ENDBRANCH  13  16
BRANCH  14  23
ATOM     23  C   UNL     1      -1.247   2.206   0.020  0.00  0.00    -0.019 C 
BRANCH  23  28
ATOM     24  C   UNL     1       1.240  -0.418  -0.012  0.00  0.00    +0.107 A 
ATOM     25  N   UNL     1       2.056   0.658  -0.014  0.00  0.00    -0.348 N 
ATOM     26  H   UNL     1       3.056   0.645  -0.024  0.00  0.00    +0.166 HD
ATOM     27  C   UNL     1       1.259   1.771  -0.000  0.00  0.00    +0.105 A 
ATOM     28  C   UNL     1      -0.016   1.337   0.009  0.00  0.00    +0.043 A 
ATOM     29  N   UNL     1       0.002  -0.004   0.002  0.00  0.00    -0.239 NA
BRANCH  24  30
ATOM     30  C   UNL     1       1.685  -1.857  -0.024  0.00  0.00    +0.074 C 
BRANCH  30  31
ATOM     31  C   UNL     1       1.056  -2.595   1.160  0.00  0.00    +0.007 C 
BRANCH  31  33
ATOM     32  C   UNL     1       0.878  -4.795   2.332  0.00  0.00    +0.004 C 
ATOM     33  C   UNL     1       1.507  -4.057   1.149  0.00  0.00    -0.003 C 
ENDBRANCH  31  33
ENDBRANCH  30  31
ENDBRANCH  24  30
ENDBRANCH  23  28
ENDBRANCH  14  23
TORSDOF 6
