REMARK  Name = ZINC35344157
REMARK  3 active torsions:
REMARK  status: ('A' for Active; 'I' for Inactive)
REMARK    1  A    between atoms: C_5  and  N_17
REMARK    2  A    between atoms: C_6  and  N_7
REMARK    3  A    between atoms: C_11  and  C_14
REMARK                            x       y       z     vdW  Elec       q    Type
REMARK                         _______ _______ _______ _____ _____    ______ ____
ROOT
ATOM      1  C   UNL     1      -0.017   1.387   0.010  0.00  0.00    +0.026 A 
ATOM      2  C   UNL     1       1.177   2.085   0.002  0.00  0.00    +0.019 A 
ATOM      3  C   UNL     1       2.367   1.398  -0.013  0.00  0.00    +0.041 A 
ATOM      4  C   UNL     1       2.429  -0.013  -0.021  0.00  0.00    +0.101 A 
ATOM      5  C   UNL     1       1.195  -0.705  -0.013  0.00  0.00    +0.073 A 
ATOM      6  C   UNL     1       0.002  -0.004   0.002  0.00  0.00    +0.053 A 
ATOM      7  N   UNL     1       3.689  -0.495  -0.036  0.00  0.00    -0.246 NA
ATOM      8  C   UNL     1       4.729   0.286  -0.042  0.00  0.00    +0.157 A 
ATOM      9  S   UNL     1       4.085   1.841  -0.028  0.00  0.00    -0.075 S 
ENDROOT
BRANCH   6  10
ATOM     10  N   UNL     1      -1.212  -0.710   0.010  0.00  0.00    -0.328 N 
ATOM     11  C   UNL     1      -1.849  -1.087   1.279  0.00  0.00    +0.105 C 
ATOM     12  C   UNL     1      -3.293  -0.576   1.276  0.00  0.00    +0.020 C 
ATOM     13  C   UNL     1      -4.013  -1.099   0.031  0.00  0.00    +0.016 C 
ATOM     14  C   UNL     1      -3.312  -0.573  -1.224  0.00  0.00    +0.092 C 
ATOM     15  C   UNL     1      -1.871  -1.079  -1.250  0.00  0.00    +0.118 C 
BRANCH  14  16
ATOM     16  C   UNL     1      -4.041  -1.062  -2.449  0.00  0.00    +0.215 C 
ATOM     17  O   UNL     1      -3.463  -1.748  -3.265  0.00  0.00    -0.276 OA
ATOM     18  N   UNL     1      -5.335  -0.735  -2.638  0.00  0.00    -0.329 N 
ATOM     19  H   UNL     1      -5.797  -0.186  -1.986  0.00  0.00    +0.145 HD
ATOM     20  H   UNL     1      -5.804  -1.050  -3.427  0.00  0.00    +0.145 HD
ENDBRANCH  14  16
ENDBRANCH   6  10
BRANCH   5  21
ATOM     21  N   UNL     1       1.180  -2.106  -0.020  0.00  0.00    -0.355 N 
ATOM     22  H   UNL     1       2.015  -2.599  -0.031  0.00  0.00    +0.142 HD
ATOM     23  H   UNL     1       0.335  -2.582  -0.014  0.00  0.00    +0.142 HD
ENDBRANCH   5  21
TORSDOF 3
