REMARK  Name = ZINC39635857
REMARK  4 active torsions:
REMARK  status: ('A' for Active; 'I' for Inactive)
REMARK    1  A    between atoms: C_1  and  C_2
REMARK    2  A    between atoms: C_8  and  N_10
REMARK    3  A    between atoms: C_11  and  C_13
REMARK    4  A    between atoms: C_24  and  C_26
REMARK                            x       y       z     vdW  Elec       q    Type
REMARK                         _______ _______ _______ _____ _____    ______ ____
ROOT
ATOM      1  C   UNL     1       4.209   0.649   2.377  0.00  0.00    +0.100 C 
ATOM      2  C   UNL     1       5.154  -0.371   1.704  0.00  0.00    +0.121 C 
ATOM      3  N   UNL     1       6.408  -0.294   2.489  0.00  0.00    -0.300 N 
ATOM      4  C   UNL     1       5.956  -0.152   3.894  0.00  0.00    +0.115 C 
ATOM      5  C   UNL     1       4.739   0.790   3.814  0.00  0.00    -0.004 C 
ATOM      6  C   UNL     1       5.167   2.230   4.081  0.00  0.00    -0.010 C 
ATOM      7  C   UNL     1       5.636   2.357   5.533  0.00  0.00    -0.082 C 
ATOM      8  N   UNL     1       4.545   1.975   6.437  0.00  0.00    +0.379 N 
ATOM      9  C   UNL     1       4.202   0.561   6.238  0.00  0.00    -0.082 C 
ATOM     10  C   UNL     1       3.672   0.358   4.816  0.00  0.00    -0.010 C 
ATOM     11  C   UNL     1       7.674  -0.343   2.030  0.00  0.00    +0.219 C 
ATOM     12  O   UNL     1       8.604  -0.266   2.805  0.00  0.00    -0.275 OA
ATOM     13  H   UNL     1       4.836   2.117   7.393  0.00  0.00    -0.086 HD
ATOM     14  H   UNL     1       3.736   2.546   6.246  0.00  0.00    -0.086 HD
ENDROOT
BRANCH   1  16
ATOM     15  N   UNL     1       1.759   0.989   2.358  0.00  0.00    -0.312 N 
ATOM     16  C   UNL     1       2.795   0.128   2.388  0.00  0.00    +0.218 C 
ATOM     17  O   UNL     1       2.590  -1.067   2.424  0.00  0.00    -0.275 OA
ATOM     18  H   UNL     1       1.923   1.945   2.330  0.00  0.00    +0.149 HD
BRANCH  15  25
ATOM     19  C   UNL     1      -0.119   1.888   4.372  0.00  0.00    +0.009 C 
ATOM     20  C   UNL     1      -0.549   1.550   2.943  0.00  0.00    +0.006 C 
ATOM     21  C   UNL     1      -1.984   1.020   2.954  0.00  0.00    +0.005 C 
ATOM     22  C   UNL     1      -2.414   0.682   1.525  0.00  0.00    +0.000 C 
ATOM     23  C   UNL     1      -1.481  -0.386   0.951  0.00  0.00    +0.002 C 
ATOM     24  C   UNL     1      -0.045   0.144   0.940  0.00  0.00    +0.022 C 
ATOM     25  C   UNL     1       0.384   0.482   2.369  0.00  0.00    +0.076 C 
ENDBRANCH  15  25
ENDBRANCH   1  16
BRANCH  11  26
ATOM     26  C   UNL     1       7.935  -0.491   0.553  0.00  0.00    +0.075 C 
ATOM     27  C   UNL     1       7.858  -1.945   0.057  0.00  0.00    +0.013 C 
ATOM     28  C   UNL     1       9.074  -1.624  -0.828  0.00  0.00    +0.001 C 
ATOM     29  C   UNL     1       9.429  -0.530   0.192  0.00  0.00    +0.013 C 
ENDBRANCH  11  26
TORSDOF 3
