REMARK  Name = ZINC62998174
REMARK  8 active torsions:
REMARK  status: ('A' for Active; 'I' for Inactive)
REMARK    1  A    between atoms: C_1  and  C_2
REMARK    2  A    between atoms: C_4  and  N_20
REMARK    3  A    between atoms: C_5  and  C_19
REMARK    4  A    between atoms: C_7  and  O_8
REMARK    5  A    between atoms: O_8  and  C_9
REMARK    6  A    between atoms: C_12  and  C_15
REMARK    7  A    between atoms: C_15  and  C_17
REMARK    8  A    between atoms: C_15  and  O_18
REMARK                            x       y       z     vdW  Elec       q    Type
REMARK                         _______ _______ _______ _____ _____    ______ ____
ROOT
ATOM      1  C   UNL     1       0.120   2.023   0.085  0.00  0.00    +0.047 C 
ATOM      2  C   UNL     1      -0.123   0.580  -0.277  0.00  0.00    -0.006 A 
ATOM      3  C   UNL     1      -0.255   0.212  -1.603  0.00  0.00    +0.040 A 
ATOM      4  C   UNL     1      -0.477  -1.111  -1.935  0.00  0.00    +0.130 A 
ATOM      5  C   UNL     1      -0.568  -2.070  -0.943  0.00  0.00    -0.017 A 
ATOM      6  C   UNL     1      -0.437  -1.708   0.384  0.00  0.00    +0.052 A 
ATOM      7  C   UNL     1      -0.208  -0.381   0.720  0.00  0.00    +0.132 A 
ATOM      8  C   UNL     1      -0.812  -3.511  -1.309  0.00  0.00    +0.046 C 
ENDROOT
BRANCH   4   9
ATOM      9  N   UNL     1      -0.619  -1.502  -3.356  0.00  0.00    +0.057 N 
ATOM     10  O   UNL     1      -0.136  -2.538  -3.748  0.00  0.00    -0.126 OA
ATOM     11  O   UNL     1      -1.218  -0.785  -4.123  0.00  0.00    -0.126 OA
ENDBRANCH   4   9
BRANCH   7  12
ATOM     12  O   UNL     1      -0.073  -0.023   2.024  0.00  0.00    -0.456 OA
BRANCH  12  13
ATOM     13  C   UNL     1      -0.063  -1.009   2.958  0.00  0.00    +0.128 A 
ATOM     14  C   UNL     1       1.022  -1.869   3.050  0.00  0.00    +0.046 A 
ATOM     15  C   UNL     1       1.030  -2.870   4.001  0.00  0.00    +0.010 A 
ATOM     16  C   UNL     1      -0.043  -3.017   4.861  0.00  0.00    -0.019 A 
ATOM     17  C   UNL     1      -1.126  -2.162   4.772  0.00  0.00    +0.010 A 
ATOM     18  C   UNL     1      -1.136  -1.155   3.826  0.00  0.00    +0.046 A 
BRANCH  16  19
ATOM     19  C   UNL     1      -0.032  -4.111   5.898  0.00  0.00    +0.141 C 
ATOM     20  C   UNL     1      -0.770  -5.336   5.354  0.00  0.00    +0.043 C 
BRANCH  19  21
ATOM     21  O   UNL     1      -0.684  -3.650   7.083  0.00  0.00    -0.387 OA
ATOM     22  H   UNL     1      -0.714  -4.304   7.795  0.00  0.00    +0.210 HD
ENDBRANCH  19  21
ENDBRANCH  16  19
ENDBRANCH  12  13
ENDBRANCH   7  12
TORSDOF 5
