REMARK  Name = ZINC39225699
REMARK  9 active torsions:
REMARK  status: ('A' for Active; 'I' for Inactive)
REMARK    1  A    between atoms: C_1  and  C_2
REMARK    2  A    between atoms: C_2  and  C_3
REMARK    3  A    between atoms: C_2  and  C_4
REMARK    4  A    between atoms: C_4  and  C_5
REMARK    5  A    between atoms: N_9  and  C_25
REMARK    6  A    between atoms: N_18  and  C_19
REMARK    7  A    between atoms: C_19  and  C_20
REMARK    8  A    between atoms: C_25  and  C_26
REMARK    9  A    between atoms: C_26  and  N_28
REMARK                            x       y       z     vdW  Elec       q    Type
REMARK                         _______ _______ _______ _____ _____    ______ ____
ROOT
ATOM      1  C   UNL     1      -1.615  -2.216  -0.417  0.00  0.00    +0.164 C 
ATOM      2  C   UNL     1      -3.055  -2.633  -0.520  0.00  0.00    +0.237 C 
ATOM      3  O   UNL     1      -3.811  -2.329   0.379  0.00  0.00    -0.274 OA
ATOM      4  N   UNL     1      -3.541  -3.323  -1.553  0.00  0.00    -0.288 N 
ATOM      5  C   UNL     1      -2.780  -3.666  -2.745  0.00  0.00    +0.147 C 
ATOM      6  C   UNL     1      -1.275  -3.632  -2.459  0.00  0.00    +0.165 C 
ATOM      7  N   UNL     1      -0.963  -2.407  -1.726  0.00  0.00    -0.273 N 
ATOM      8  C   UNL     1      -0.126  -1.461  -2.176  0.00  0.00    +0.219 C 
ATOM      9  O   UNL     1      -0.003  -0.427  -1.556  0.00  0.00    -0.275 OA
ATOM     10  C   UNL     1       0.665  -1.667  -3.444  0.00  0.00    +0.111 C 
ATOM     11  C   UNL     1       0.806  -3.180  -3.662  0.00  0.00    +0.096 C 
ATOM     12  N   UNL     1      -0.542  -3.740  -3.714  0.00  0.00    -0.278 NA
ENDROOT
BRANCH   1  13
ATOM     13  C   UNL     1      -1.537  -0.741  -0.018  0.00  0.00    +0.035 C 
BRANCH  13  15
ATOM     14  C   UNL     1      -2.117   1.568  -0.777  0.00  0.00    +0.007 C 
ATOM     15  C   UNL     1      -2.452   0.083  -0.927  0.00  0.00    -0.015 C 
ATOM     16  C   UNL     1      -2.243  -0.343  -2.381  0.00  0.00    +0.007 C 
ENDBRANCH  13  15
ENDBRANCH   1  13
BRANCH  12  17
ATOM     17  C   UNL     1      -0.489  -5.133  -4.176  0.00  0.00    +0.130 C 
BRANCH  17  18
ATOM     18  C   UNL     1       0.054  -5.177  -5.581  0.00  0.00    +0.023 A 
ATOM     19  C   UNL     1       1.336  -5.296  -6.012  0.00  0.00    +0.123 A 
ATOM     20  N   UNL     1       1.530  -5.307  -7.315  0.00  0.00    -0.255 NA
ATOM     21  C   UNL     1       0.528  -5.208  -8.154  0.00  0.00    +0.156 A 
ATOM     22  S   UNL     1      -0.811  -5.095  -7.141  0.00  0.00    -0.079 S 
ENDBRANCH  17  18
ENDBRANCH  12  17
BRANCH   4  23
ATOM     23  C   UNL     1      -4.936  -3.764  -1.483  0.00  0.00    +0.205 C 
BRANCH  23  24
ATOM     24  C   UNL     1      -5.829  -2.704  -2.073  0.00  0.00    +0.256 C 
ATOM     25  O   UNL     1      -5.347  -1.677  -2.510  0.00  0.00    -0.272 OA
BRANCH  24  26
ATOM     26  N   UNL     1      -7.145  -2.891  -2.116  0.00  0.00    -0.146 NA
ATOM     27  C   UNL     1      -7.942  -1.915  -2.543  0.00  0.00    +0.198 A 
ATOM     28  N   UNL     1      -7.527  -0.734  -3.071  0.00  0.00    -0.326 N 
ATOM     29  H   UNL     1      -6.604  -0.462  -3.200  0.00  0.00    +0.169 HD
ATOM     30  C   UNL     1      -8.651   0.018  -3.396  0.00  0.00    +0.065 A 
ATOM     31  C   UNL     1      -8.819   1.278  -3.954  0.00  0.00    +0.028 A 
ATOM     32  C   UNL     1     -10.091   1.773  -4.163  0.00  0.00    +0.002 A 
ATOM     33  C   UNL     1     -11.200   1.018  -3.818  0.00  0.00    +0.002 A 
ATOM     34  C   UNL     1     -11.043  -0.235  -3.262  0.00  0.00    +0.028 A 
ATOM     35  C   UNL     1      -9.769  -0.743  -3.048  0.00  0.00    +0.065 A 
ATOM     36  N   UNL     1      -9.300  -1.943  -2.525  0.00  0.00    -0.326 N 
ATOM     37  H   UNL     1      -9.849  -2.674  -2.200  0.00  0.00    +0.169 HD
ENDBRANCH  24  26
ENDBRANCH  23  24
ENDBRANCH   4  23
TORSDOF 7
