REMARK  Name = ZINC36882677
REMARK  3 active torsions:
REMARK  status: ('A' for Active; 'I' for Inactive)
REMARK    1  A    between atoms: N_13  and  C_17
REMARK    2  A    between atoms: C_17  and  C_18
REMARK    3  A    between atoms: N_20  and  C_21
REMARK                            x       y       z     vdW  Elec       q    Type
REMARK                         _______ _______ _______ _____ _____    ______ ____
ROOT
ATOM      1  C   UNL     1      -0.020   1.372   0.001  0.00  0.00    +0.001 A 
ATOM      2  C   UNL     1       1.171   2.074  -0.013  0.00  0.00    +0.004 A 
ATOM      3  C   UNL     1       2.372   1.395  -0.038  0.00  0.00    +0.046 A 
ATOM      4  C   UNL     1       2.389   0.004  -0.050  0.00  0.00    +0.126 A 
ATOM      5  C   UNL     1       1.194  -0.698  -0.033  0.00  0.00    +0.027 A 
ATOM      6  C   UNL     1      -0.007  -0.009  -0.009  0.00  0.00    +0.010 A 
ATOM      7  C   UNL     1       1.176  -2.200  -0.035  0.00  0.00    +0.144 C 
ATOM      8  C   UNL     1       2.529  -2.757  -0.470  0.00  0.00    +0.081 C 
ATOM      9  C   UNL     1       3.628  -2.009   0.298  0.00  0.00    +0.232 C 
ATOM     10  O   UNL     1       3.588  -0.633  -0.081  0.00  0.00    -0.492 OA
ATOM     11  C   UNL     1       0.805  -2.725   1.333  0.00  0.00    +0.252 C 
ATOM     12  O   UNL     1       1.407  -2.558   2.372  0.00  0.00    -0.272 OA
ATOM     13  N   UNL     1      -0.338  -3.420   1.154  0.00  0.00    -0.215 N 
ATOM     14  C   UNL     1      -0.730  -3.402  -0.126  0.00  0.00    +0.310 C 
ATOM     15  O   UNL     1      -1.732  -3.958  -0.533  0.00  0.00    -0.252 OA
ATOM     16  N   UNL     1       0.109  -2.700  -0.911  0.00  0.00    -0.281 N 
ATOM     17  H   UNL     1       0.025  -2.553  -1.866  0.00  0.00    +0.152 HD
ENDROOT
BRANCH  13  18
ATOM     18  C   UNL     1      -1.060  -4.107   2.227  0.00  0.00    +0.214 C 
BRANCH  18  19
ATOM     19  C   UNL     1      -2.062  -3.165   2.843  0.00  0.00    +0.235 C 
ATOM     20  O   UNL     1      -2.163  -2.031   2.426  0.00  0.00    -0.274 OA
ATOM     21  N   UNL     1      -2.846  -3.583   3.856  0.00  0.00    -0.283 N 
ATOM     22  H   UNL     1      -2.811  -4.508   4.147  0.00  0.00    +0.155 HD
BRANCH  21  23
ATOM     23  C   UNL     1      -3.711  -2.682   4.490  0.00  0.00    +0.052 A 
ATOM     24  C   UNL     1      -4.321  -1.672   3.759  0.00  0.00    +0.027 A 
ATOM     25  C   UNL     1      -5.174  -0.784   4.386  0.00  0.00    +0.040 A 
ATOM     26  C   UNL     1      -5.420  -0.900   5.744  0.00  0.00    +0.125 A 
ATOM     27  C   UNL     1      -4.812  -1.905   6.476  0.00  0.00    +0.060 A 
ATOM     28  C   UNL     1      -3.963  -2.800   5.852  0.00  0.00    +0.065 A 
ATOM     29 CL   UNL     1      -3.207  -4.065   6.769  0.00  0.00    -0.082 Cl
ATOM     30  F   UNL     1      -6.254  -0.030   6.354  0.00  0.00    -0.205 F 
ENDBRANCH  21  23
ENDBRANCH  18  19
ENDBRANCH  13  18
TORSDOF 3
