REMARK  Name = ZINC50987748
REMARK  5 active torsions:
REMARK  status: ('A' for Active; 'I' for Inactive)
REMARK    1  A    between atoms: C_1  and  C_2
REMARK    2  A    between atoms: C_4  and  C_11
REMARK    3  A    between atoms: N_6  and  C_7
REMARK    4  A    between atoms: C_7  and  C_8
REMARK    5  A    between atoms: N_14  and  C_16
REMARK                            x       y       z     vdW  Elec       q    Type
REMARK                         _______ _______ _______ _____ _____    ______ ____
ROOT
ATOM      1  C   UNL     1      -0.013   1.086   0.008  0.00  0.00    +0.081 C 
ATOM      2  C   UNL     1      -0.742   1.585  -1.213  0.00  0.00    +0.073 C 
ATOM      3  N   UNL     1      -1.252   0.805  -2.099  0.00  0.00    -0.363 N 
ATOM      4  C   UNL     1      -1.878   1.638  -3.137  0.00  0.00    +0.175 C 
ATOM      5  C   UNL     1      -1.624   3.058  -2.667  0.00  0.00    +0.101 C 
ATOM      6  N   UNL     1      -0.930   2.911  -1.485  0.00  0.00    -0.275 N 
ATOM      7  N   UNL     1      -1.981   4.158  -3.243  0.00  0.00    -0.388 N 
ATOM      8  H   UNL     1      -2.473   4.130  -4.078  0.00  0.00    +0.157 HD
ATOM      9  H   UNL     1      -1.757   5.011  -2.840  0.00  0.00    +0.157 HD
ATOM     10  H   UNL     1      -1.228  -0.164  -2.086  0.00  0.00    +0.162 HD
ENDROOT
BRANCH   4  11
ATOM     11  C   UNL     1      -3.358   1.364  -3.214  0.00  0.00    +0.019 A 
ATOM     12  C   UNL     1      -4.209   1.130  -2.129  0.00  0.00    +0.140 A 
ATOM     13  N   UNL     1      -5.417   0.933  -2.592  0.00  0.00    -0.180 NA
ATOM     14  N   UNL     1      -5.373   1.036  -3.988  0.00  0.00    -0.274 N 
ATOM     15  C   UNL     1      -4.100   1.306  -4.345  0.00  0.00    +0.114 A 
ATOM     16  C   UNL     1      -6.509   0.883  -4.900  0.00  0.00    +0.172 C 
ENDBRANCH   4  11
BRANCH   6  17
ATOM     17  C   UNL     1      -0.461   4.015  -0.644  0.00  0.00    +0.140 C 
BRANCH  17  18
ATOM     18  C   UNL     1       0.924   4.421  -1.075  0.00  0.00    -0.015 C 
ATOM     19  C   UNL     1       1.171   5.666  -1.399  0.00  0.00    +0.005 C 
ENDBRANCH  17  18
ENDBRANCH   6  17
TORSDOF 3
