REMARK  Name = ZINC65832937
REMARK  8 active torsions:
REMARK  status: ('A' for Active; 'I' for Inactive)
REMARK    1  A    between atoms: C_1  and  O_2
REMARK    2  A    between atoms: O_2  and  C_3
REMARK    3  A    between atoms: C_3  and  C_5
REMARK    4  A    between atoms: C_7  and  S_12
REMARK    5  A    between atoms: C_10  and  O_11
REMARK    6  A    between atoms: S_12  and  N_15
REMARK    7  A    between atoms: N_15  and  N_16
REMARK    8  A    between atoms: N_19  and  C_20
REMARK                            x       y       z     vdW  Elec       q    Type
REMARK                         _______ _______ _______ _____ _____    ______ ____
ROOT
ATOM      1  S   UNL     1      -0.572  -5.206   1.089  0.00  0.00    +0.074 S 
ATOM      2  O   UNL     1       0.092  -6.462   1.059  0.00  0.00    -0.152 OA
ATOM      3  O   UNL     1      -0.611  -4.392   2.253  0.00  0.00    -0.152 OA
ENDROOT
BRANCH   1   6
ATOM      4  C   UNL     1       0.659  -2.073  -1.122  0.00  0.00    +0.102 A 
ATOM      5  C   UNL     1       0.089  -2.852  -0.111  0.00  0.00    +0.047 A 
ATOM      6  C   UNL     1       0.147  -4.226  -0.187  0.00  0.00    +0.108 A 
ATOM      7  C   UNL     1       0.767  -4.841  -1.262  0.00  0.00    +0.032 A 
ATOM      8  C   UNL     1       1.334  -4.084  -2.268  0.00  0.00    +0.048 A 
ATOM      9  C   UNL     1       1.280  -2.699  -2.211  0.00  0.00    +0.131 A 
BRANCH   4  10
ATOM     10  C   UNL     1       0.601  -0.602  -1.047  0.00  0.00    +0.343 C 
ATOM     11  O   UNL     1       1.093   0.071  -1.930  0.00  0.00    -0.245 OA
BRANCH  10  13
ATOM     12  C   UNL     1      -0.017   1.425   0.010  0.00  0.00    +0.280 C 
ATOM     13  O   UNL     1       0.002  -0.004   0.002  0.00  0.00    -0.464 OA
ENDBRANCH  10  13
ENDBRANCH   4  10
BRANCH   9  14
ATOM     14  O   UNL     1       1.832  -1.955  -3.202  0.00  0.00    -0.506 OA
ATOM     15  H   UNL     1       2.761  -1.731  -3.055  0.00  0.00    +0.292 HD
ENDBRANCH   9  14
ENDBRANCH   1   6
BRANCH   1  16
ATOM     16  N   UNL     1      -2.146  -5.492   0.658  0.00  0.00    -0.107 NA
ATOM     17  H   UNL     1      -2.867  -5.194   1.233  0.00  0.00    +0.172 HD
BRANCH  16  18
ATOM     18  N   UNL     1      -2.434  -6.166  -0.536  0.00  0.00    -0.216 N 
ATOM     19  C   UNL     1      -3.203  -7.273  -0.516  0.00  0.00    +0.315 C 
ATOM     20  O   UNL     1      -3.453  -7.857  -1.553  0.00  0.00    -0.251 OA
ATOM     21  N   UNL     1      -3.694  -7.732   0.651  0.00  0.00    -0.296 N 
ATOM     22  H   UNL     1      -2.080  -5.835  -1.376  0.00  0.00    +0.172 HD
ATOM     23  H   UNL     1      -3.494  -7.266   1.478  0.00  0.00    +0.151 HD
BRANCH  21  24
ATOM     24  C   UNL     1      -4.529  -8.935   0.672  0.00  0.00    +0.074 C 
ATOM     25  C   UNL     1      -6.008  -8.555   0.450  0.00  0.00    +0.022 C 
ATOM     26  C   UNL     1      -6.792  -9.524   1.370  0.00  0.00    +0.002 C 
ATOM     27  C   UNL     1      -5.885  -9.612   2.623  0.00  0.00    +0.002 C 
ATOM     28  C   UNL     1      -4.451  -9.607   2.054  0.00  0.00    +0.022 C 
ENDBRANCH  21  24
ENDBRANCH  16  18
ENDBRANCH   1  16
TORSDOF 7
