REMARK  Name = ZINC06282143
REMARK  7 active torsions:
REMARK  status: ('A' for Active; 'I' for Inactive)
REMARK    1  A    between atoms: C_1  and  C_2
REMARK    2  A    between atoms: C_7  and  C_14
REMARK    3  A    between atoms: C_14  and  C_16
REMARK    4  A    between atoms: C_14  and  N_67
REMARK    5  A    between atoms: N_20  and  C_21
REMARK    6  A    between atoms: C_21  and  C_22
REMARK    7  A    between atoms: N_30  and  C_33
REMARK                            x       y       z     vdW  Elec       q    Type
REMARK                         _______ _______ _______ _____ _____    ______ ____
ROOT
ATOM      1  C   UNL     1       3.512   0.638  -0.028  0.00  0.00    +0.039 C 
ENDROOT
BRANCH   1   8
ATOM      2  C   UNL     1       5.301  -1.701  -7.440  0.00  0.00    +0.044 C 
ATOM      3  C   UNL     1       4.740  -1.276  -6.108  0.00  0.00    -0.048 A 
ATOM      4  C   UNL     1       3.365  -1.192  -5.937  0.00  0.00    +0.004 A 
ATOM      5  C   UNL     1       2.836  -0.807  -4.737  0.00  0.00    +0.010 A 
ATOM      6  C   UNL     1       3.687  -0.496  -3.672  0.00  0.00    -0.001 A 
ATOM      7  C   UNL     1       3.154  -0.086  -2.371  0.00  0.00    +0.017 A 
ATOM      8  C   UNL     1       4.027   0.208  -1.377  0.00  0.00    +0.011 A 
ATOM      9  C   UNL     1       5.417   0.107  -1.599  0.00  0.00    +0.251 A 
ATOM     10  O   UNL     1       6.185   0.372  -0.690  0.00  0.00    -0.268 OA
ATOM     11  N   UNL     1       5.916  -0.273  -2.788  0.00  0.00    -0.322 N 
ATOM     12  H   UNL     1       6.877  -0.331  -2.907  0.00  0.00    +0.169 HD
ATOM     13  C   UNL     1       5.082  -0.580  -3.842  0.00  0.00    +0.049 A 
ATOM     14  C   UNL     1       5.597  -0.973  -5.072  0.00  0.00    +0.029 A 
ENDBRANCH   1   8
BRANCH   1  20
ATOM     15  C   UNL     1       3.585  -1.680   0.669  0.00  0.00    -0.058 C 
ATOM     16  C   UNL     1       4.158  -2.636   1.718  0.00  0.00    +0.086 C 
ATOM     17  N   UNL     1       3.665  -2.254   3.048  0.00  0.00    -0.331 N 
ATOM     18  C   UNL     1       4.059  -0.877   3.377  0.00  0.00    +0.086 C 
ATOM     19  C   UNL     1       3.486   0.079   2.329  0.00  0.00    -0.058 C 
ATOM     20  N   UNL     1       4.008  -0.303   0.999  0.00  0.00    +0.391 N 
ATOM     21  H   UNL     1       5.034  -0.264   1.020  0.00  0.00    -0.080 HD
BRANCH  17  22
ATOM     22  C   UNL     1       4.110  -3.150   4.025  0.00  0.00    +0.065 A 
ATOM     23  C   UNL     1       5.468  -3.270   4.291  0.00  0.00    +0.026 A 
ATOM     24  C   UNL     1       5.905  -4.157   5.257  0.00  0.00    +0.002 A 
ATOM     25  C   UNL     1       4.993  -4.924   5.958  0.00  0.00    +0.003 A 
ATOM     26  C   UNL     1       3.640  -4.808   5.696  0.00  0.00    +0.040 A 
ATOM     27  C   UNL     1       3.195  -3.919   4.735  0.00  0.00    +0.144 A 
ATOM     28  F   UNL     1       1.873  -3.801   4.483  0.00  0.00    -0.204 F 
ENDBRANCH  17  22
ENDBRANCH   1  20
BRANCH   1  29
ATOM     29  C   UNL     1       2.005   0.652  -0.047  0.00  0.00    +0.143 A 
ATOM     30  N   UNL     1       1.212  -0.392  -0.012  0.00  0.00    -0.115 NA
ATOM     31  N   UNL     1      -0.004   0.032  -0.044  0.00  0.00    -0.023 NA
ATOM     32  N   UNL     1      -0.008   1.318  -0.099  0.00  0.00    -0.044 NA
ATOM     33  N   UNL     1       1.212   1.738  -0.102  0.00  0.00    -0.228 N 
BRANCH  33  34
ATOM     34  C   UNL     1       1.651   3.134  -0.157  0.00  0.00    +0.178 C 
BRANCH  34  35
ATOM     35  C   UNL     1       1.787   3.682   1.265  0.00  0.00    +0.140 C 
ATOM     36  C   UNL     1       2.304   5.143   1.231  0.00  0.00    +0.035 C 
ATOM     37  C   UNL     1       1.763   5.678   2.585  0.00  0.00    +0.031 C 
ATOM     38  C   UNL     1       0.426   4.919   2.727  0.00  0.00    +0.160 C 
ATOM     39  O   UNL     1       0.499   3.754   1.897  0.00  0.00    -0.375 OA
ENDBRANCH  34  35
ENDBRANCH  33  34
ENDBRANCH   1  29
TORSDOF 6
