REMARK  Name = ZINC40569164
REMARK  7 active torsions:
REMARK  status: ('A' for Active; 'I' for Inactive)
REMARK    1  A    between atoms: C_1  and  C_2
REMARK    2  A    between atoms: C_2  and  C_3
REMARK    3  A    between atoms: C_3  and  C_4
REMARK    4  A    between atoms: N_10  and  C_11
REMARK    5  A    between atoms: C_12  and  C_20
REMARK    6  A    between atoms: C_14  and  C_18
REMARK    7  A    between atoms: C_15  and  N_17
REMARK                            x       y       z     vdW  Elec       q    Type
REMARK                         _______ _______ _______ _____ _____    ______ ____
ROOT
ATOM      1  C   UNL     1       0.644  -2.023  -1.077  0.00  0.00    +0.025 A 
ATOM      2  C   UNL     1      -0.370  -2.699  -1.658  0.00  0.00    +0.068 A 
ATOM      3  C   UNL     1      -0.259  -4.090  -1.861  0.00  0.00    +0.141 A 
ATOM      4  C   UNL     1       0.892  -4.734  -1.458  0.00  0.00    +0.072 A 
ATOM      5  C   UNL     1       1.917  -3.991  -0.859  0.00  0.00    +0.259 A 
ATOM      6  O   UNL     1       2.942  -4.548  -0.497  0.00  0.00    -0.267 OA
ATOM      7  N   UNL     1       1.777  -2.664  -0.687  0.00  0.00    -0.315 N 
ATOM      8  C   UNL     1       2.860  -1.898  -0.065  0.00  0.00    +0.152 C 
ATOM      9  C   UNL     1       1.053  -6.216  -1.656  0.00  0.00    +0.103 C 
ATOM     10  C   UNL     1      -0.282  -6.850  -1.933  0.00  0.00    +0.098 C 
ATOM     11  C   UNL     1      -1.349  -6.104  -2.304  0.00  0.00    +0.199 C 
ATOM     12  O   UNL     1      -1.271  -4.769  -2.441  0.00  0.00    -0.441 OA
ENDROOT
BRANCH   9  13
ATOM     13  C   UNL     1       1.974  -6.467  -2.822  0.00  0.00    -0.032 A 
ATOM     14  C   UNL     1       1.645  -5.989  -4.077  0.00  0.00    +0.005 A 
ATOM     15  C   UNL     1       2.489  -6.218  -5.148  0.00  0.00    +0.003 A 
ATOM     16  C   UNL     1       3.662  -6.926  -4.965  0.00  0.00    +0.038 A 
ATOM     17  C   UNL     1       3.992  -7.404  -3.709  0.00  0.00    +0.124 A 
ATOM     18  C   UNL     1       3.149  -7.169  -2.636  0.00  0.00    +0.043 A 
ATOM     19  F   UNL     1       5.139  -8.096  -3.529  0.00  0.00    -0.205 F 
ENDBRANCH   9  13
BRANCH  11  20
ATOM     20  N   UNL     1      -2.547  -6.730  -2.546  0.00  0.00    -0.328 N 
ATOM     21  H   UNL     1      -2.619  -7.693  -2.451  0.00  0.00    +0.145 HD
ATOM     22  H   UNL     1      -3.321  -6.210  -2.812  0.00  0.00    +0.145 HD
ENDBRANCH  11  20
BRANCH  10  23
ATOM     23  C   UNL     1      -0.426  -8.268  -1.804  0.00  0.00    +0.101 C 
ATOM     24  N   UNL     1      -0.541  -9.394  -1.701  0.00  0.00    -0.191 NA
ENDBRANCH  10  23
BRANCH   1  25
ATOM     25  C   UNL     1       0.520  -0.536  -0.863  0.00  0.00    +0.053 C 
BRANCH  25  27
ATOM     26  C   UNL     1       0.948   1.712  -1.867  0.00  0.00    +0.004 C 
ATOM     27  C   UNL     1       1.074   0.202  -2.083  0.00  0.00    +0.003 C 
ENDBRANCH  25  27
ENDBRANCH   1  25
TORSDOF 5
