REMARK  Name = ZINC11661098
REMARK  7 active torsions:
REMARK  status: ('A' for Active; 'I' for Inactive)
REMARK    1  A    between atoms: C_1  and  O_2
REMARK    2  A    between atoms: O_2  and  C_3
REMARK    3  A    between atoms: C_11  and  C_13
REMARK    4  A    between atoms: C_13  and  N_56
REMARK    5  A    between atoms: C_16  and  N_58
REMARK    6  A    between atoms: C_18  and  O_21
REMARK    7  A    between atoms: C_24  and  O_27
REMARK                            x       y       z     vdW  Elec       q    Type
REMARK                         _______ _______ _______ _____ _____    ______ ____
ROOT
ATOM      1  C   UNL     1       0.290   3.699   2.218  0.00  0.00    -0.080 C 
ATOM      2  C   UNL     1       0.552   4.041   3.687  0.00  0.00    -0.031 C 
ATOM      3  C   UNL     1       0.701   5.557   3.834  0.00  0.00    -0.043 C 
ATOM      4  C   UNL     1       1.838   6.041   2.930  0.00  0.00    +0.085 C 
ATOM      5  C   UNL     1       1.538   5.641   1.484  0.00  0.00    -0.048 C 
ATOM      6  N   UNL     1       1.431   4.169   1.405  0.00  0.00    +0.384 N 
ATOM      7  H   UNL     1       2.295   3.752   1.772  0.00  0.00    -0.081 HD
ENDROOT
BRANCH   3  13
ATOM      8  C   UNL     1      -0.109   5.538   6.115  0.00  0.00    -0.076 C 
ATOM      9  C   UNL     1       0.189   6.026   7.535  0.00  0.00    +0.013 C 
ATOM     10  C   UNL     1       1.480   5.372   8.034  0.00  0.00    +0.111 C 
ATOM     11  C   UNL     1       2.620   5.712   7.070  0.00  0.00    +0.013 C 
ATOM     12  C   UNL     1       2.252   5.233   5.664  0.00  0.00    -0.076 C 
ATOM     13  N   UNL     1       1.015   5.917   5.232  0.00  0.00    +0.383 N 
ATOM     14  H   UNL     1       1.157   6.932   5.292  0.00  0.00    -0.081 HD
BRANCH  10  15
ATOM     15  O   UNL     1       1.794   5.868   9.337  0.00  0.00    -0.392 OA
ATOM     16  H   UNL     1       1.113   5.688  10.001  0.00  0.00    +0.210 HD
ENDBRANCH  10  15
ENDBRANCH   3  13
BRANCH   4  17
ATOM     17  O   UNL     1       1.946   7.463   3.019  0.00  0.00    -0.395 OA
ATOM     18  H   UNL     1       2.646   7.840   2.469  0.00  0.00    +0.210 HD
ENDBRANCH   4  17
BRANCH   6  19
ATOM     19  C   UNL     1       1.256   3.750  -0.001  0.00  0.00    -0.044 C 
BRANCH  19  28
ATOM     20  C   UNL     1       1.867  -1.891   0.100  0.00  0.00    +0.162 A 
ATOM     21  C   UNL     1       0.787  -2.714  -0.184  0.00  0.00    +0.049 A 
ATOM     22  C   UNL     1      -0.465  -2.173  -0.418  0.00  0.00    +0.004 A 
ATOM     23  C   UNL     1      -0.652  -0.805  -0.379  0.00  0.00    +0.012 A 
ATOM     24  C   UNL     1       0.426   0.030  -0.100  0.00  0.00    +0.020 A 
ATOM     25  C   UNL     1       1.690  -0.516   0.149  0.00  0.00    +0.169 A 
ATOM     26  O   UNL     1       2.721   0.318   0.445  0.00  0.00    -0.484 OA
ATOM     27  C   UNL     1       2.726   1.603  -0.175  0.00  0.00    +0.258 C 
ATOM     28  C   UNL     1       1.369   2.249  -0.078  0.00  0.00    -0.049 C 
ATOM     29  C   UNL     1       0.271   1.500  -0.060  0.00  0.00    +0.012 C 
BRANCH  20  31
ATOM     30  C   UNL     1       3.201  -3.853   0.261  0.00  0.00    +0.277 C 
ATOM     31  O   UNL     1       3.095  -2.430   0.329  0.00  0.00    -0.491 OA
ENDBRANCH  20  31
ENDBRANCH  19  28
ENDBRANCH   6  19
TORSDOF 6
