REMARK  Name = ZINC12402356
REMARK  7 active torsions:
REMARK  status: ('A' for Active; 'I' for Inactive)
REMARK    1  A    between atoms: C_1  and  C_2
REMARK    2  A    between atoms: C_2  and  C_31
REMARK    3  A    between atoms: C_6  and  C_20
REMARK    4  A    between atoms: C_8  and  C_18
REMARK    5  A    between atoms: C_9  and  N_17
REMARK    6  A    between atoms: N_10  and  C_11
REMARK    7  A    between atoms: C_23  and  N_25
REMARK                            x       y       z     vdW  Elec       q    Type
REMARK                         _______ _______ _______ _____ _____    ______ ____
ROOT
ATOM      1  C   UNL     1      -3.099   6.893  -3.876  0.00  0.00    +0.011 C 
ATOM      2  C   UNL     1      -4.242   7.795  -3.404  0.00  0.00    -0.023 C 
ATOM      3  C   UNL     1      -3.943   8.307  -1.993  0.00  0.00    +0.058 C 
ATOM      4  C   UNL     1      -3.842   7.141  -1.041  0.00  0.00    +0.025 C 
ATOM      5  C   UNL     1      -4.553   6.013  -1.245  0.00  0.00    +0.026 C 
ATOM      6  C   UNL     1      -4.452   4.850  -0.290  0.00  0.00    +0.104 C 
ATOM      7  C   UNL     1      -3.864   5.276   1.022  0.00  0.00    +0.077 C 
ATOM      8  C   UNL     1      -3.174   6.439   1.138  0.00  0.00    +0.107 C 
ATOM      9  N   UNL     1      -3.011   7.257   0.043  0.00  0.00    -0.259 N 
ATOM     10  C   UNL     1      -5.408   5.885  -2.354  0.00  0.00    +0.162 C 
ATOM     11  O   UNL     1      -6.048   4.862  -2.500  0.00  0.00    -0.292 OA
ATOM     12  C   UNL     1      -5.547   6.992  -3.362  0.00  0.00    +0.086 C 
ATOM     13  C   UNL     1      -4.395   8.976  -4.364  0.00  0.00    +0.011 C 
ENDROOT
BRANCH   9  14
ATOM     14  C   UNL     1      -1.988   8.213   0.035  0.00  0.00    +0.058 A 
ATOM     15  C   UNL     1      -0.730   7.898  -0.475  0.00  0.00    +0.027 A 
ATOM     16  C   UNL     1       0.249   8.877  -0.461  0.00  0.00    +0.021 A 
ATOM     17  C   UNL     1      -0.051  10.125   0.054  0.00  0.00    +0.111 A 
ATOM     18  N   UNL     1      -1.252  10.391   0.529  0.00  0.00    -0.261 NA
ATOM     19  C   UNL     1      -2.214   9.490   0.530  0.00  0.00    +0.134 A 
ENDBRANCH   9  14
BRANCH   6  20
ATOM     20  C   UNL     1      -3.579   3.784  -0.900  0.00  0.00    +0.005 A 
ATOM     21  C   UNL     1      -3.890   2.504  -1.219  0.00  0.00    +0.014 A 
ATOM     22  C   UNL     1      -2.919   1.698  -1.782  0.00  0.00    +0.041 A 
ATOM     23  C   UNL     1      -1.680   2.208  -1.988  0.00  0.00    +0.164 A 
ATOM     24  S   UNL     1      -1.865   3.880  -1.391  0.00  0.00    -0.068 S 
BRANCH  23  25
ATOM     25  N   UNL     1      -0.485   1.550  -2.564  0.00  0.00    +0.063 N 
ATOM     26  O   UNL     1      -0.543   0.388  -2.922  0.00  0.00    -0.126 OA
ATOM     27  O   UNL     1       0.554   2.174  -2.684  0.00  0.00    -0.126 OA
ENDBRANCH  23  25
ENDBRANCH   6  20
BRANCH   8  28
ATOM     28  N   UNL     1      -2.638   6.802   2.351  0.00  0.00    -0.345 N 
ATOM     29  H   UNL     1      -2.223   7.672   2.457  0.00  0.00    +0.144 HD
ATOM     30  H   UNL     1      -2.676   6.188   3.101  0.00  0.00    +0.144 HD
ENDBRANCH   8  28
BRANCH   7  31
ATOM     31  C   UNL     1      -4.032   4.442   2.174  0.00  0.00    +0.099 C 
ATOM     32  N   UNL     1      -4.166   3.780   3.087  0.00  0.00    -0.191 NA
ENDBRANCH   7  31
TORSDOF 5
