REMARK  Name = ZINC39481054
REMARK  9 active torsions:
REMARK  status: ('A' for Active; 'I' for Inactive)
REMARK    1  A    between atoms: C_1  and  C_2
REMARK    2  A    between atoms: C_2  and  C_3
REMARK    3  A    between atoms: C_6  and  N_23
REMARK    4  A    between atoms: C_7  and  N_9
REMARK    5  A    between atoms: C_13  and  C_16
REMARK    6  A    between atoms: C_16  and  C_17
REMARK    7  A    between atoms: N_23  and  S_24
REMARK    8  A    between atoms: S_24  and  C_27
REMARK    9  A    between atoms: C_32  and  O_33
REMARK                            x       y       z     vdW  Elec       q    Type
REMARK                         _______ _______ _______ _____ _____    ______ ____
ROOT
ATOM      1  C   UNL     1       1.266   0.548  -1.734  0.00  0.00    -0.046 A 
ATOM      2  C   UNL     1       0.408   0.124  -2.732  0.00  0.00    +0.005 A 
ATOM      3  C   UNL     1       0.890  -0.613  -3.797  0.00  0.00    +0.026 A 
ATOM      4  C   UNL     1       2.239  -0.929  -3.868  0.00  0.00    +0.069 A 
ATOM      5  C   UNL     1       3.104  -0.501  -2.861  0.00  0.00    +0.052 A 
ATOM      6  C   UNL     1       2.612   0.242  -1.799  0.00  0.00    +0.028 A 
ENDROOT
BRANCH   5   7
ATOM      7  N   UNL     1       4.467  -0.817  -2.926  0.00  0.00    -0.332 N 
ATOM      8  C   UNL     1       5.421   0.081  -3.595  0.00  0.00    +0.086 C 
ATOM      9  C   UNL     1       6.597   0.335  -2.646  0.00  0.00    -0.063 C 
ATOM     10  N   UNL     1       7.169  -0.950  -2.223  0.00  0.00    +0.383 N 
ATOM     11  C   UNL     1       6.182  -1.702  -1.437  0.00  0.00    -0.050 C 
ATOM     12  C   UNL     1       4.986  -2.053  -2.321  0.00  0.00    +0.089 C 
ATOM     13  H   UNL     1       7.427  -1.486  -3.038  0.00  0.00    -0.085 HD
ATOM     14  H   UNL     1       7.989  -0.782  -1.659  0.00  0.00    -0.085 HD
BRANCH  11  15
ATOM     15  C   UNL     1       6.823  -2.986  -0.908  0.00  0.00    +0.021 C 
BRANCH  15  16
ATOM     16  C   UNL     1       7.923  -2.637   0.062  0.00  0.00    -0.049 A 
ATOM     17  C   UNL     1       9.213  -2.449  -0.396  0.00  0.00    +0.003 A 
ATOM     18  C   UNL     1      10.222  -2.128   0.494  0.00  0.00    +0.000 A 
ATOM     19  C   UNL     1       9.939  -1.995   1.840  0.00  0.00    +0.000 A 
ATOM     20  C   UNL     1       8.648  -2.182   2.297  0.00  0.00    +0.000 A 
ATOM     21  C   UNL     1       7.639  -2.498   1.407  0.00  0.00    +0.003 A 
ENDBRANCH  15  16
ENDBRANCH  11  15
ENDBRANCH   5   7
BRANCH   1  23
ATOM     22  C   UNL     1       0.793   2.841  -0.918  0.00  0.00    +0.009 C 
ATOM     23  C   UNL     1       0.732   1.351  -0.576  0.00  0.00    +0.032 C 
ENDBRANCH   1  23
BRANCH   4  24
ATOM     24  N   UNL     1       2.730  -1.676  -4.945  0.00  0.00    -0.214 N 
ATOM     25  H   UNL     1       3.449  -2.312  -4.807  0.00  0.00    +0.174 HD
BRANCH  24  26
ATOM     26  S   UNL     1       2.084  -1.472  -6.457  0.00  0.00    +0.076 S 
ATOM     27  O   UNL     1       1.990  -0.071  -6.673  0.00  0.00    -0.150 OA
ATOM     28  O   UNL     1       2.808  -2.331  -7.327  0.00  0.00    -0.150 OA
BRANCH  26  29
ATOM     29  C   UNL     1       0.432  -2.085  -6.404  0.00  0.00    +0.150 A 
ATOM     30  C   UNL     1      -0.630  -1.228  -6.619  0.00  0.00    +0.032 A 
ATOM     31  C   UNL     1      -1.926  -1.708  -6.577  0.00  0.00    +0.002 A 
ATOM     32  C   UNL     1      -2.162  -3.047  -6.321  0.00  0.00    +0.004 A 
ATOM     33  C   UNL     1      -1.103  -3.907  -6.106  0.00  0.00    +0.047 A 
ATOM     34  C   UNL     1       0.198  -3.429  -6.152  0.00  0.00    +0.143 A 
BRANCH  34  35
ATOM     35  O   UNL     1       1.242  -4.275  -5.947  0.00  0.00    -0.505 OA
ATOM     36  H   UNL     1       1.499  -4.364  -5.019  0.00  0.00    +0.292 HD
ENDBRANCH  34  35
ENDBRANCH  26  29
ENDBRANCH  24  26
ENDBRANCH   4  24
TORSDOF 8
