REMARK  Name = ZINC24955962
REMARK  13 active torsions:
REMARK  status: ('A' for Active; 'I' for Inactive)
REMARK    1  A    between atoms: C_1  and  C_2
REMARK    2  A    between atoms: C_2  and  C_3
REMARK    3  A    between atoms: C_3  and  C_4
REMARK    4  A    between atoms: C_4  and  N_5
REMARK    5  A    between atoms: C_6  and  N_35
REMARK    6  A    between atoms: C_7  and  N_14
REMARK    7  A    between atoms: N_14  and  C_15
REMARK    8  A    between atoms: N_14  and  C_17
REMARK    9  A    between atoms: C_15  and  C_16
REMARK   10  A    between atoms: C_17  and  C_18
REMARK   11  A    between atoms: N_20  and  C_21
REMARK   12  A    between atoms: C_21  and  C_23
REMARK   13  A    between atoms: C_21  and  C_30
REMARK                            x       y       z     vdW  Elec       q    Type
REMARK                         _______ _______ _______ _____ _____    ______ ____
ROOT
ATOM      1  N   UNL     1      -1.375  -4.815   2.369  0.00  0.00    -0.315 N 
ENDROOT
BRANCH   1   4
ATOM      2  N   UNL     1      -1.170  -1.669   0.490  0.00  0.00    -0.280 N 
ATOM      3  C   UNL     1      -1.301  -2.546   1.543  0.00  0.00    +0.127 A 
ATOM      4  C   UNL     1      -1.244  -3.893   1.305  0.00  0.00    +0.134 A 
ATOM      5  C   UNL     1      -1.053  -4.346  -0.013  0.00  0.00    +0.277 A 
ATOM      6  O   UNL     1      -0.999  -5.541  -0.249  0.00  0.00    -0.266 OA
ATOM      7  N   UNL     1      -0.930  -3.450  -1.012  0.00  0.00    -0.273 N 
ATOM      8  H   UNL     1      -0.776  -3.797  -2.045  0.00  0.00    +0.173 HD
ATOM      9  C   UNL     1      -0.994  -2.130  -0.762  0.00  0.00    +0.331 A 
ATOM     10  O   UNL     1      -0.885  -1.341  -1.680  0.00  0.00    -0.246 OA
BRANCH   3  11
ATOM     11  N   UNL     1      -1.486  -2.074   2.822  0.00  0.00    -0.343 N 
ATOM     12  H   UNL     1      -1.590  -2.779   3.659  0.00  0.00    +0.144 HD
ATOM     13  H   UNL     1      -1.530  -0.990   3.007  0.00  0.00    +0.144 HD
ENDBRANCH   3  11
BRANCH   2  14
ATOM     14  C   UNL     1      -1.230  -0.226   0.733  0.00  0.00    +0.128 C 
BRANCH  14  15
ATOM     15  C   UNL     1       0.178   0.302   1.016  0.00  0.00    +0.021 C 
BRANCH  15  17
ATOM     16  C   UNL     1       1.523   2.338   1.553  0.00  0.00    +0.004 C 
ATOM     17  C   UNL     1       0.115   1.810   1.270  0.00  0.00    -0.002 C 
ENDBRANCH  15  17
ENDBRANCH  14  15
ENDBRANCH   2  14
ENDBRANCH   1   4
BRANCH   1  18
ATOM     18  C   UNL     1      -2.583  -5.637   2.207  0.00  0.00    +0.102 C 
ATOM     19  C   UNL     1      -3.816  -4.809   2.575  0.00  0.00    +0.024 C 
ENDBRANCH   1  18
BRANCH   1  20
ATOM     20  C   UNL     1      -0.178  -5.658   2.487  0.00  0.00    +0.201 C 
BRANCH  20  21
ATOM     21  C   UNL     1      -0.166  -6.328   3.836  0.00  0.00    +0.231 C 
ATOM     22  O   UNL     1      -1.004  -6.039   4.664  0.00  0.00    -0.274 OA
ATOM     23  N   UNL     1       0.776  -7.248   4.123  0.00  0.00    -0.303 N 
ATOM     24  H   UNL     1       1.536  -7.510   3.372  0.00  0.00    +0.150 HD
BRANCH  23  25
ATOM     25  C   UNL     1       0.788  -7.900   5.435  0.00  0.00    +0.140 C 
BRANCH  25  26
ATOM     26  C   UNL     1       2.184  -8.375   5.748  0.00  0.00    -0.022 A 
ATOM     27  C   UNL     1       2.958  -8.943   4.754  0.00  0.00    +0.008 A 
ATOM     28  C   UNL     1       4.241  -9.374   5.038  0.00  0.00    +0.038 A 
ATOM     29  C   UNL     1       4.745  -9.248   6.321  0.00  0.00    +0.123 A 
ATOM     30  C   UNL     1       3.966  -8.684   7.317  0.00  0.00    +0.038 A 
ATOM     31  C   UNL     1       2.686  -8.248   7.029  0.00  0.00    +0.008 A 
ATOM     32  F   UNL     1       5.995  -9.674   6.601  0.00  0.00    -0.205 F 
ENDBRANCH  25  26
BRANCH  25  33
ATOM     33  C   UNL     1      -0.152  -9.078   5.420  0.00  0.00    +0.014 A 
ATOM     34  C   UNL     1      -1.001  -9.505   6.386  0.00  0.00    +0.013 A 
ATOM     35  C   UNL     1      -1.781 -10.621   6.147  0.00  0.00    +0.008 A 
ATOM     36  C   UNL     1      -1.665 -11.262   4.958  0.00  0.00    +0.045 A 
ATOM     37  S   UNL     1      -0.430 -10.277   4.127  0.00  0.00    -0.099 S 
ENDBRANCH  25  33
ENDBRANCH  23  25
ENDBRANCH  20  21
ENDBRANCH   1  20
TORSDOF 11
