REMARK  Name = ZINC15746587
REMARK  7 active torsions:
REMARK  status: ('A' for Active; 'I' for Inactive)
REMARK    1  A    between atoms: C_1  and  O_2
REMARK    2  A    between atoms: O_2  and  C_3
REMARK    3  A    between atoms: C_3  and  C_5
REMARK    4  A    between atoms: C_6  and  C_23
REMARK    5  A    between atoms: C_9  and  N_10
REMARK    6  A    between atoms: C_11  and  C_13
REMARK    7  A    between atoms: C_19  and  C_21
REMARK                            x       y       z     vdW  Elec       q    Type
REMARK                         _______ _______ _______ _____ _____    ______ ____
ROOT
ATOM      1  C   UNL     1       1.200   2.262  -0.177  0.00  0.00    +0.095 A 
ATOM      2  C   UNL     1      -0.024   1.483  -0.146  0.00  0.00    +0.005 A 
ATOM      3  C   UNL     1      -1.185   2.176  -0.033  0.00  0.00    +0.056 A 
ATOM      4  S   UNL     1      -0.645   3.871   0.044  0.00  0.00    -0.080 S 
ATOM      5  C   UNL     1       1.065   3.641  -0.082  0.00  0.00    +0.086 A 
ENDROOT
BRANCH   2   6
ATOM      6  C   UNL     1      -0.007   0.004  -0.241  0.00  0.00    -0.016 A 
ATOM      7  C   UNL     1       0.710  -0.624  -1.258  0.00  0.00    +0.009 A 
ATOM      8  C   UNL     1       0.726  -2.001  -1.339  0.00  0.00    +0.016 A 
ATOM      9  C   UNL     1       0.024  -2.759  -0.417  0.00  0.00    +0.018 A 
ATOM     10  C   UNL     1      -0.694  -2.140   0.592  0.00  0.00    +0.016 A 
ATOM     11  C   UNL     1      -0.713  -0.764   0.684  0.00  0.00    +0.009 A 
ATOM     12 BR   UNL     1       0.045  -4.646  -0.538  0.00  0.00    -0.050 Br
ENDBRANCH   2   6
BRANCH   5  13
ATOM     13  N   UNL     1       2.063   4.603  -0.086  0.00  0.00    -0.279 N 
ATOM     14  C   UNL     1       1.742   5.907   0.017  0.00  0.00    +0.222 C 
ATOM     15  O   UNL     1       0.579   6.240   0.114  0.00  0.00    -0.275 OA
ATOM     16  H   UNL     1       2.993   4.337  -0.163  0.00  0.00    +0.155 HD
BRANCH  14  17
ATOM     17  C   UNL     1       2.826   6.953   0.013  0.00  0.00    +0.093 C 
ATOM     18  C   UNL     1       2.359   8.175  -0.781  0.00  0.00    +0.040 C 
ATOM     19  C   UNL     1       1.282   8.900  -0.028  0.00  0.00    -0.030 C 
ATOM     20  C   UNL     1       1.044   8.737   1.234  0.00  0.00    -0.030 C 
ATOM     21  C   UNL     1       1.806   7.793   2.118  0.00  0.00    +0.042 C 
ATOM     22  C   UNL     1       3.124   7.394   1.451  0.00  0.00    +0.118 C 
BRANCH  22  23
ATOM     23  C   UNL     1       3.756   6.255   2.210  0.00  0.00    +0.360 C 
ATOM     24  O   UNL     1       3.950   5.197   1.659  0.00  0.00    -0.246 OA
ATOM     25  O   UNL     1       4.103   6.416   3.496  0.00  0.00    -0.246 OA
ENDBRANCH  22  23
ENDBRANCH  14  17
ENDBRANCH   5  13
BRANCH   1  26
ATOM     26  C   UNL     1       2.511   1.626  -0.303  0.00  0.00    +0.342 C 
ATOM     27  O   UNL     1       2.988   1.428  -1.405  0.00  0.00    -0.245 OA
BRANCH  26  29
ATOM     28  C   UNL     1       4.486   0.633   0.602  0.00  0.00    +0.280 C 
ATOM     29  O   UNL     1       3.192   1.259   0.802  0.00  0.00    -0.464 OA
ENDBRANCH  26  29
ENDBRANCH   1  26
TORSDOF 6
