REMARK  Name = ZINC42183379
REMARK  13 active torsions:
REMARK  status: ('A' for Active; 'I' for Inactive)
REMARK    1  A    between atoms: C_1  and  C_2
REMARK    2  A    between atoms: C_2  and  C_3
REMARK    3  A    between atoms: N_5  and  C_6
REMARK    4  A    between atoms: C_9  and  C_12
REMARK    5  A    between atoms: C_12  and  C_14
REMARK    6  A    between atoms: C_12  and  N_15
REMARK    7  A    between atoms: N_15  and  C_16
REMARK    8  A    between atoms: C_16  and  C_18
REMARK    9  A    between atoms: C_16  and  C_19
REMARK   10  A    between atoms: N_21  and  C_22
REMARK   11  A    between atoms: C_27  and  O_28
REMARK   12  A    between atoms: O_28  and  C_29
REMARK   13  A    between atoms: C_29  and  C_30
REMARK                            x       y       z     vdW  Elec       q    Type
REMARK                         _______ _______ _______ _____ _____    ______ ____
ROOT
ATOM      1  N   UNL     1       4.649  -4.604  -5.662  0.00  0.00    +0.391 N 
ATOM      2  H   UNL     1       5.218  -4.385  -4.858  0.00  0.00    -0.084 HD
ATOM      3  H   UNL     1       4.051  -5.388  -5.447  0.00  0.00    -0.084 HD
ENDROOT
BRANCH   1   4
ATOM      4  C   UNL     1       3.824  -3.440  -6.011  0.00  0.00    -0.043 C 
ATOM      5  C   UNL     1       2.872  -3.812  -7.149  0.00  0.00    -0.009 C 
BRANCH   4   9
ATOM      6  C   UNL     1       1.557  -2.227  -2.596  0.00  0.00    +0.033 A 
ATOM      7  C   UNL     1       2.125  -1.272  -3.430  0.00  0.00    +0.023 A 
ATOM      8  C   UNL     1       2.857  -1.667  -4.533  0.00  0.00    +0.004 A 
ATOM      9  C   UNL     1       3.025  -3.012  -4.807  0.00  0.00    -0.062 A 
ATOM     10  C   UNL     1       2.461  -3.965  -3.979  0.00  0.00    +0.004 A 
ATOM     11  C   UNL     1       1.733  -3.576  -2.871  0.00  0.00    +0.023 A 
BRANCH   6  14
ATOM     12  C   UNL     1       0.862  -2.558  -0.345  0.00  0.00    +0.217 C 
ATOM     13  O   UNL     1       1.477  -3.602  -0.321  0.00  0.00    -0.275 OA
ATOM     14  N   UNL     1       0.815  -1.829  -1.479  0.00  0.00    -0.286 N 
ATOM     15  H   UNL     1       0.267  -1.030  -1.520  0.00  0.00    +0.155 HD
BRANCH  12  17
ATOM     16  C   UNL     1       0.359  -3.077   2.027  0.00  0.00    +0.013 C 
ATOM     17  C   UNL     1       0.149  -2.073   0.891  0.00  0.00    +0.093 C 
ENDBRANCH  12  17
ENDBRANCH   6  14
ENDBRANCH   4   9
ENDBRANCH   1   4
BRANCH   1  18
ATOM     18  C   UNL     1       5.516  -4.948  -6.797  0.00  0.00    +0.014 C 
ATOM     19  C   UNL     1       6.507  -3.809  -7.045  0.00  0.00    -0.004 C 
BRANCH  18  20
ATOM     20  C   UNL     1       6.272  -6.214  -6.487  0.00  0.00    +0.203 C 
ATOM     21  O   UNL     1       6.106  -6.775  -5.424  0.00  0.00    -0.277 OA
ATOM     22  N   UNL     1       7.134  -6.722  -7.390  0.00  0.00    -0.284 N 
ATOM     23  H   UNL     1       7.328  -6.233  -8.204  0.00  0.00    +0.155 HD
BRANCH  22  24
ATOM     24  C   UNL     1       7.749  -7.959  -7.152  0.00  0.00    +0.076 A 
ATOM     25  C   UNL     1       7.146  -8.886  -6.315  0.00  0.00    +0.027 A 
ATOM     26  C   UNL     1       7.754 -10.105  -6.082  0.00  0.00    +0.002 A 
ATOM     27  C   UNL     1       8.964 -10.403  -6.681  0.00  0.00    +0.004 A 
ATOM     28  C   UNL     1       9.572  -9.483  -7.516  0.00  0.00    +0.047 A 
ATOM     29  C   UNL     1       8.966  -8.261  -7.759  0.00  0.00    +0.142 A 
BRANCH  29  30
ATOM     30  O   UNL     1       9.559  -7.358  -8.584  0.00  0.00    -0.490 OA
BRANCH  30  31
ATOM     31  C   UNL     1      10.806  -7.737  -9.171  0.00  0.00    +0.226 C 
ATOM     32  C   UNL     1      11.316  -6.602 -10.061  0.00  0.00    +0.048 C 
ENDBRANCH  30  31
ENDBRANCH  29  30
ENDBRANCH  22  24
ENDBRANCH  18  20
ENDBRANCH   1  18
TORSDOF 9
