REMARK  Name = ZINC03585374
REMARK  11 active torsions:
REMARK  status: ('A' for Active; 'I' for Inactive)
REMARK    1  A    between atoms: C_1  and  C_2
REMARK    2  A    between atoms: C_2  and  N_3
REMARK    3  A    between atoms: N_3  and  C_4
REMARK    4  A    between atoms: C_5  and  N_20
REMARK    5  A    between atoms: N_6  and  C_13
REMARK    6  A    between atoms: C_13  and  C_14
REMARK    7  A    between atoms: C_21  and  C_23
REMARK    8  A    between atoms: C_23  and  N_58
REMARK    9  A    between atoms: C_24  and  N_58
REMARK   10  A    between atoms: C_25  and  C_26
REMARK   11  A    between atoms: C_25  and  N_58
REMARK                            x       y       z     vdW  Elec       q    Type
REMARK                         _______ _______ _______ _____ _____    ______ ____
ROOT
ATOM      1  C   UNL     1      -1.701   1.087  -5.859  0.00  0.00    +0.140 A 
ATOM      2  C   UNL     1      -3.042   0.767  -5.798  0.00  0.00    +0.128 A 
ATOM      3  N   UNL     1      -3.837   0.996  -6.897  0.00  0.00    -0.276 N 
ATOM      4  C   UNL     1      -3.312   1.514  -8.021  0.00  0.00    +0.331 A 
ATOM      5  O   UNL     1      -4.031   1.704  -8.984  0.00  0.00    -0.246 OA
ATOM      6  N   UNL     1      -2.006   1.827  -8.101  0.00  0.00    -0.273 N 
ATOM      7  H   UNL     1      -1.641   2.211  -8.949  0.00  0.00    +0.173 HD
ATOM      8  C   UNL     1      -1.185   1.628  -7.052  0.00  0.00    +0.277 A 
ATOM      9  O   UNL     1      -0.003   1.915  -7.135  0.00  0.00    -0.266 OA
ENDROOT
BRANCH   1  10
ATOM     10  N   UNL     1      -0.860   0.870  -4.747  0.00  0.00    -0.266 N 
ATOM     11  C   UNL     1      -1.079   1.538  -3.595  0.00  0.00    +0.203 C 
ATOM     12  O   UNL     1      -1.945   2.386  -3.541  0.00  0.00    -0.277 OA
BRANCH  10  14
ATOM     13  C   UNL     1      -0.243  -1.480  -4.468  0.00  0.00    +0.025 C 
ATOM     14  C   UNL     1       0.250  -0.081  -4.843  0.00  0.00    +0.110 C 
ENDBRANCH  10  14
BRANCH  11  15
ATOM     15  C   UNL     1      -0.247   1.231  -2.377  0.00  0.00    +0.019 C 
BRANCH  15  17
ATOM     16  C   UNL     1      -0.384   3.499  -1.539  0.00  0.00    -0.095 C 
ATOM     17  N   UNL     1      -0.705   2.084  -1.260  0.00  0.00    +0.386 N 
ATOM     18  H   UNL     1      -1.723   1.986  -1.161  0.00  0.00    -0.081 HD
BRANCH  17  19
ATOM     19  C   UNL     1      -0.059   1.658  -0.001  0.00  0.00    -0.043 C 
BRANCH  19  20
ATOM     20  C   UNL     1      -0.703   2.389   1.149  0.00  0.00    -0.064 A 
ATOM     21  C   UNL     1      -0.182   3.596   1.578  0.00  0.00    +0.003 A 
ATOM     22  C   UNL     1      -0.776   4.271   2.628  0.00  0.00    +0.020 A 
ATOM     23  C   UNL     1      -1.884   3.732   3.257  0.00  0.00    +0.041 A 
ATOM     24  C   UNL     1      -2.401   2.522   2.831  0.00  0.00    +0.020 A 
ATOM     25  C   UNL     1      -1.810   1.851   1.777  0.00  0.00    +0.003 A 
ATOM     26 CL   UNL     1      -2.627   4.576   4.581  0.00  0.00    -0.084 Cl
ENDBRANCH  19  20
ENDBRANCH  17  19
ENDBRANCH  15  17
ENDBRANCH  11  15
ENDBRANCH   1  10
BRANCH   2  27
ATOM     27  N   UNL     1      -3.578   0.232  -4.651  0.00  0.00    -0.343 N 
ATOM     28  H   UNL     1      -2.996  -0.024  -3.918  0.00  0.00    +0.144 HD
ATOM     29  H   UNL     1      -4.537   0.110  -4.575  0.00  0.00    +0.144 HD
ENDBRANCH   2  27
BRANCH   3  30
ATOM     30  C   UNL     1      -5.264   0.667  -6.844  0.00  0.00    +0.163 C 
BRANCH  30  31
ATOM     31  C   UNL     1      -5.468  -0.756  -7.296  0.00  0.00    -0.028 A 
ATOM     32  C   UNL     1      -5.696  -1.031  -8.632  0.00  0.00    +0.005 A 
ATOM     33  C   UNL     1      -5.879  -2.336  -9.048  0.00  0.00    +0.000 A 
ATOM     34  C   UNL     1      -5.844  -3.366  -8.127  0.00  0.00    +0.000 A 
ATOM     35  C   UNL     1      -5.621  -3.091  -6.790  0.00  0.00    +0.000 A 
ATOM     36  C   UNL     1      -5.433  -1.786  -6.375  0.00  0.00    +0.005 A 
ENDBRANCH  30  31
ENDBRANCH   3  30
TORSDOF 9
