REMARK  Name = ZINC06556804
REMARK  6 active torsions:
REMARK  status: ('A' for Active; 'I' for Inactive)
REMARK    1  A    between atoms: C_1  and  C_2
REMARK    2  A    between atoms: C_5  and  C_8
REMARK    3  A    between atoms: C_9  and  C_22
REMARK    4  A    between atoms: C_12  and  C_21
REMARK    5  A    between atoms: C_13  and  C_18
REMARK    6  A    between atoms: C_18  and  C_19
REMARK                            x       y       z     vdW  Elec       q    Type
REMARK                         _______ _______ _______ _____ _____    ______ ____
ROOT
ATOM      1  C   UNL     1       0.058  -4.256  -0.021  0.00  0.00    +0.098 A 
ATOM      2  C   UNL     1       0.723  -5.076   0.907  0.00  0.00    +0.020 A 
ATOM      3  C   UNL     1       0.498  -6.371   0.556  0.00  0.00    +0.141 A 
ATOM      4  N   UNL     1       0.907  -7.569   1.112  0.00  0.00    -0.343 N 
ATOM      5  C   UNL     1       0.529  -8.749   0.547  0.00  0.00    +0.023 A 
ATOM      6  C   UNL     1      -0.247  -8.751  -0.561  0.00  0.00    +0.041 A 
ATOM      7  C   UNL     1      -0.663  -7.529  -1.127  0.00  0.00    +0.278 A 
ATOM      8  N   UNL     1      -0.286  -6.365  -0.563  0.00  0.00    -0.179 N 
ATOM      9  N   UNL     1      -0.549  -5.030  -0.897  0.00  0.00    -0.162 NA
ATOM     10  O   UNL     1      -1.363  -7.526  -2.125  0.00  0.00    -0.265 OA
ATOM     11  C   UNL     1       0.978 -10.054   1.155  0.00  0.00    +0.064 C 
ATOM     12  C   UNL     1       1.539  -4.604   2.083  0.00  0.00    +0.050 C 
ATOM     13  H   UNL     1       1.463  -7.569   1.907  0.00  0.00    +0.167 HD
ENDROOT
BRANCH   1  18
ATOM     14  C   UNL     1      -0.018   1.503   0.010  0.00  0.00    +0.044 C 
ATOM     15  C   UNL     1       0.002  -0.004   0.002  0.00  0.00    -0.050 A 
ATOM     16  C   UNL     1       0.006  -0.686  -1.201  0.00  0.00    +0.004 A 
ATOM     17  C   UNL     1       0.024  -2.067  -1.214  0.00  0.00    +0.010 A 
ATOM     18  C   UNL     1       0.039  -2.772  -0.013  0.00  0.00    +0.002 A 
ATOM     19  C   UNL     1       0.036  -2.080   1.196  0.00  0.00    +0.010 A 
ATOM     20  C   UNL     1       0.023  -0.700   1.198  0.00  0.00    +0.004 A 
ENDBRANCH   1  18
BRANCH   6  21
ATOM     21  C   UNL     1      -0.665 -10.056  -1.189  0.00  0.00    +0.069 C 
BRANCH  21  22
ATOM     22  C   UNL     1      -2.025 -10.448  -0.673  0.00  0.00    -0.030 C 
ATOM     23  C   UNL     1      -2.999 -10.692  -1.515  0.00  0.00    +0.004 C 
ENDBRANCH  21  22
ENDBRANCH   6  21
TORSDOF 3
