REMARK  Name = ZINC67389873
REMARK  10 active torsions:
REMARK  status: ('A' for Active; 'I' for Inactive)
REMARK    1  A    between atoms: C_1  and  C_2
REMARK    2  A    between atoms: C_5  and  N_9
REMARK    3  A    between atoms: C_10  and  C_12
REMARK    4  A    between atoms: C_12  and  C_13
REMARK    5  A    between atoms: C_13  and  N_14
REMARK    6  A    between atoms: N_17  and  C_18
REMARK    7  A    between atoms: C_18  and  C_19
REMARK    8  A    between atoms: C_19  and  C_21
REMARK    9  A    between atoms: C_19  and  N_22
REMARK   10  A    between atoms: C_26  and  C_29
REMARK                            x       y       z     vdW  Elec       q    Type
REMARK                         _______ _______ _______ _____ _____    ______ ____
ROOT
ATOM      1  N   UNL     1      -0.663  -8.590  -2.111  0.00  0.00    -0.299 N 
ATOM      2  C   UNL     1      -0.698  -9.110  -3.354  0.00  0.00    +0.300 C 
ATOM      3  O   UNL     1      -0.730  -8.374  -4.321  0.00  0.00    -0.253 OA
ATOM      4  N   UNL     1      -0.696 -10.447  -3.524  0.00  0.00    -0.301 N 
ATOM      5  H   UNL     1      -0.637  -9.177  -1.340  0.00  0.00    +0.150 HD
ATOM      6  H   UNL     1      -0.670 -11.035  -2.753  0.00  0.00    +0.150 HD
ENDROOT
BRANCH   1   7
ATOM      7  C   UNL     1      -0.664  -7.136  -1.926  0.00  0.00    +0.115 C 
BRANCH   7   8
ATOM      8  C   UNL     1      -0.621  -6.813  -0.431  0.00  0.00    +0.115 C 
BRANCH   8  10
ATOM      9  N   UNL     1      -0.588  -4.797   1.003  0.00  0.00    -0.284 N 
ATOM     10  C   UNL     1      -0.623  -5.318  -0.240  0.00  0.00    +0.219 C 
ATOM     11  O   UNL     1      -0.655  -4.584  -1.205  0.00  0.00    -0.275 OA
ATOM     12  H   UNL     1      -0.491  -5.382   1.771  0.00  0.00    +0.155 HD
BRANCH   9  17
ATOM     13  C   UNL     1      -1.015   0.813   1.740  0.00  0.00    +0.044 C 
ATOM     14  C   UNL     1      -0.901  -0.677   1.545  0.00  0.00    -0.049 A 
ATOM     15  C   UNL     1      -1.344  -1.255   0.369  0.00  0.00    +0.005 A 
ATOM     16  C   UNL     1      -1.242  -2.620   0.186  0.00  0.00    +0.025 A 
ATOM     17  C   UNL     1      -0.693  -3.413   1.185  0.00  0.00    +0.052 A 
ATOM     18  C   UNL     1      -0.248  -2.831   2.365  0.00  0.00    +0.062 A 
ATOM     19  C   UNL     1      -0.348  -1.463   2.539  0.00  0.00    +0.025 A 
ATOM     20 CL   UNL     1       0.440  -3.818   3.616  0.00  0.00    -0.082 Cl
ENDBRANCH   9  17
ENDBRANCH   8  10
ENDBRANCH   7   8
ENDBRANCH   1   7
BRANCH   4  21
ATOM     21  C   UNL     1      -0.734 -11.013  -4.875  0.00  0.00    +0.090 C 
BRANCH  21  22
ATOM     22  C   UNL     1      -0.826 -12.538  -4.787  0.00  0.00    -0.054 C 
ATOM     23  C   UNL     1      -0.807 -13.133  -6.196  0.00  0.00    -0.012 C 
BRANCH  22  24
ATOM     24  N   UNL     1       0.317 -13.054  -4.022  0.00  0.00    +0.383 N 
ATOM     25  C   UNL     1       1.561 -12.753  -4.741  0.00  0.00    -0.078 C 
ATOM     26  C   UNL     1       2.760 -13.216  -3.911  0.00  0.00    -0.018 C 
ATOM     27  C   UNL     1       2.658 -14.726  -3.675  0.00  0.00    -0.001 C 
ATOM     28  C   UNL     1       1.323 -15.037  -2.992  0.00  0.00    -0.031 C 
ATOM     29  C   UNL     1       0.178 -14.506  -3.856  0.00  0.00    -0.075 C 
ATOM     30  C   UNL     1       1.177 -16.550  -2.821  0.00  0.00    +0.005 C 
ATOM     31  H   UNL     1       0.341 -12.614  -3.115  0.00  0.00    -0.081 HD
ENDBRANCH  22  24
ENDBRANCH  21  22
ENDBRANCH   4  21
TORSDOF 7
