REMARK  Name = ZINC46973308
REMARK  8 active torsions:
REMARK  status: ('A' for Active; 'I' for Inactive)
REMARK    1  A    between atoms: C_1  and  C_2
REMARK    2  A    between atoms: C_2  and  C_4
REMARK    3  A    between atoms: C_2  and  N_10
REMARK    4  A    between atoms: N_13  and  N_14
REMARK    5  A    between atoms: C_15  and  C_17
REMARK    6  A    between atoms: C_17  and  C_19
REMARK    7  A    between atoms: C_17  and  O_20
REMARK    8  A    between atoms: O_20  and  C_21
REMARK                            x       y       z     vdW  Elec       q    Type
REMARK                         _______ _______ _______ _____ _____    ______ ____
ROOT
ATOM      1  N   UNL     1       1.990  -1.670   3.334  0.00  0.00    -0.230 N 
ATOM      2  C   UNL     1       2.627  -2.082   4.449  0.00  0.00    +0.270 C 
ATOM      3  O   UNL     1       3.809  -2.348   4.408  0.00  0.00    -0.270 OA
ATOM      4  H   UNL     1       1.044  -1.457   3.367  0.00  0.00    +0.173 HD
ENDROOT
BRANCH   1   8
ATOM      5  N   UNL     1       0.742  -0.843   1.060  0.00  0.00    -0.293 N 
ATOM      6  C   UNL     1       2.056  -1.139   1.015  0.00  0.00    +0.316 C 
ATOM      7  O   UNL     1       2.667  -1.035  -0.031  0.00  0.00    -0.251 OA
ATOM      8  N   UNL     1       2.693  -1.550   2.129  0.00  0.00    -0.218 N 
ATOM      9  H   UNL     1       0.255  -0.926   1.895  0.00  0.00    +0.151 HD
ATOM     10  H   UNL     1       3.639  -1.763   2.096  0.00  0.00    +0.174 HD
BRANCH   5  12
ATOM     11  C   UNL     1       0.234   1.114  -0.316  0.00  0.00    +0.030 C 
ATOM     12  C   UNL     1       0.050  -0.396  -0.151  0.00  0.00    +0.100 C 
BRANCH  12  13
ATOM     13  C   UNL     1      -1.441  -0.718  -0.034  0.00  0.00    +0.138 C 
ATOM     14  C   UNL     1      -2.159  -0.360  -1.353  0.00  0.00    +0.035 C 
ATOM     15  C   UNL     1      -3.500   0.238  -0.847  0.00  0.00    +0.031 C 
ATOM     16  C   UNL     1      -3.037   0.936   0.456  0.00  0.00    +0.160 C 
ATOM     17  O   UNL     1      -2.029   0.071   1.008  0.00  0.00    -0.375 OA
ENDBRANCH  12  13
ENDBRANCH   5  12
ENDBRANCH   1   8
BRANCH   2  18
ATOM     18  C   UNL     1       1.870  -2.211   5.745  0.00  0.00    +0.257 C 
ATOM     19  C   UNL     1       0.814  -3.310   5.612  0.00  0.00    +0.062 C 
BRANCH  18  20
ATOM     20  O   UNL     1       2.778  -2.546   6.796  0.00  0.00    -0.480 OA
BRANCH  20  21
ATOM     21  C   UNL     1       2.413  -2.206   8.060  0.00  0.00    +0.122 A 
ATOM     22  C   UNL     1       3.296  -2.396   9.113  0.00  0.00    +0.048 A 
ATOM     23  C   UNL     1       2.923  -2.049  10.397  0.00  0.00    +0.042 A 
ATOM     24  C   UNL     1       1.669  -1.514  10.634  0.00  0.00    +0.124 A 
ATOM     25  C   UNL     1       0.786  -1.325   9.584  0.00  0.00    +0.042 A 
ATOM     26  C   UNL     1       1.158  -1.664   8.298  0.00  0.00    +0.048 A 
ATOM     27  F   UNL     1       1.305  -1.176  11.891  0.00  0.00    -0.205 F 
ENDBRANCH  20  21
ENDBRANCH  18  20
ENDBRANCH   2  18
TORSDOF 6
