REMARK  Name = ZINC15959860
REMARK  5 active torsions:
REMARK  status: ('A' for Active; 'I' for Inactive)
REMARK    1  A    between atoms: C_6  and  C_7
REMARK    2  A    between atoms: C_7  and  N_8
REMARK    3  A    between atoms: C_13  and  C_31
REMARK    4  A    between atoms: C_31  and  C_32
REMARK    5  A    between atoms: C_32  and  C_33
REMARK                            x       y       z     vdW  Elec       q    Type
REMARK                         _______ _______ _______ _____ _____    ______ ____
ROOT
ATOM      1  N   UNL     1      -1.727  -1.016  -1.368  0.00  0.00    -0.237 N 
ATOM      2  C   UNL     1      -2.510  -0.165  -2.040  0.00  0.00    +0.227 C 
ATOM      3  O   UNL     1      -2.948   0.878  -1.604  0.00  0.00    -0.275 OA
ATOM      4  C   UNL     1      -2.765  -0.706  -3.428  0.00  0.00    +0.107 C 
ATOM      5  C   UNL     1      -4.254  -1.089  -3.562  0.00  0.00    +0.068 C 
ATOM      6  N   UNL     1      -4.335  -2.485  -3.055  0.00  0.00    -0.295 NA
ATOM      7  C   UNL     1      -3.102  -3.122  -3.552  0.00  0.00    +0.136 C 
ATOM      8  C   UNL     1      -1.988  -2.051  -3.437  0.00  0.00    +0.122 C 
ATOM      9  C   UNL     1      -1.366  -2.103  -2.060  0.00  0.00    +0.229 C 
ATOM     10  O   UNL     1      -0.654  -2.992  -1.645  0.00  0.00    -0.275 OA
ATOM     11  C   UNL     1      -3.257  -3.597  -4.968  0.00  0.00    +0.005 A 
ATOM     12  C   UNL     1      -3.562  -2.964  -6.153  0.00  0.00    +0.027 A 
ATOM     13  C   UNL     1      -3.635  -3.692  -7.328  0.00  0.00    +0.041 A 
ATOM     14  C   UNL     1      -3.402  -5.056  -7.309  0.00  0.00    +0.022 A 
ATOM     15  C   UNL     1      -3.096  -5.694  -6.125  0.00  0.00    +0.025 A 
ATOM     16  C   UNL     1      -3.021  -4.969  -4.938  0.00  0.00    +0.039 A 
ATOM     17  N   UNL     1      -2.735  -5.380  -3.633  0.00  0.00    -0.283 N 
ATOM     18  C   UNL     1      -2.762  -4.355  -2.760  0.00  0.00    +0.243 C 
ATOM     19  O   UNL     1      -2.554  -4.415  -1.567  0.00  0.00    -0.273 OA
ATOM     20 CL   UNL     1      -4.020  -2.896  -8.822  0.00  0.00    -0.084 Cl
ATOM     21  H   UNL     1      -4.371  -2.503  -2.047  0.00  0.00    +0.123 HD
ATOM     22  H   UNL     1      -2.538  -6.297  -3.386  0.00  0.00    +0.155 HD
ENDROOT
BRANCH   1  23
ATOM     23  C   UNL     1      -1.294  -0.774   0.010  0.00  0.00    +0.151 C 
BRANCH  23  29
ATOM     24  C   UNL     1      -0.017   1.378   0.010  0.00  0.00    +0.009 A 
ATOM     25  C   UNL     1       1.170   2.088   0.002  0.00  0.00    +0.050 A 
ATOM     26  C   UNL     1       2.380   1.416  -0.013  0.00  0.00    +0.166 A 
ATOM     27  C   UNL     1       2.399   0.023  -0.021  0.00  0.00    +0.167 A 
ATOM     28  C   UNL     1       1.207  -0.682  -0.014  0.00  0.00    +0.054 A 
ATOM     29  C   UNL     1       0.002  -0.004   0.002  0.00  0.00    -0.026 A 
ATOM     30  O   UNL     1       3.698  -0.395  -0.036  0.00  0.00    -0.453 OA
ATOM     31  C   UNL     1       4.466   0.750  -0.450  0.00  0.00    +0.466 C 
ATOM     32  O   UNL     1       3.668   1.870  -0.024  0.00  0.00    -0.453 OA
ENDBRANCH  23  29
ENDBRANCH   1  23
BRANCH   5  33
ATOM     33  C   UNL     1      -5.121  -0.160  -2.710  0.00  0.00    +0.031 C 
BRANCH  33  34
ATOM     34  C   UNL     1      -6.598  -0.477  -2.953  0.00  0.00    +0.126 C 
BRANCH  34  35
ATOM     35  C   UNL     1      -7.453   0.438  -2.114  0.00  0.00    +0.356 C 
ATOM     36  O   UNL     1      -6.928   1.267  -1.389  0.00  0.00    -0.246 OA
ATOM     37  O   UNL     1      -8.668   0.350  -2.160  0.00  0.00    -0.246 OA
ENDBRANCH  34  35
ENDBRANCH  33  34
ENDBRANCH   5  33
TORSDOF 5
