REMARK  Name = ZINC39565313
REMARK  3 active torsions:
REMARK  status: ('A' for Active; 'I' for Inactive)
REMARK    1  A    between atoms: C_3  and  C_6
REMARK    2  A    between atoms: C_7  and  C_8
REMARK    3  A    between atoms: N_12  and  N_17
REMARK                            x       y       z     vdW  Elec       q    Type
REMARK                         _______ _______ _______ _____ _____    ______ ____
ROOT
ATOM      1  C   UNL     1       6.166   1.464  -0.049  0.00  0.00    +0.236 C 
ATOM      2  C   UNL     1       6.874   0.903   1.171  0.00  0.00    +0.265 C 
ATOM      3  O   UNL     1       6.470   1.111   2.295  0.00  0.00    -0.271 OA
ATOM      4  N   UNL     1       7.980   0.157   0.936  0.00  0.00    -0.182 N 
ATOM      5  C   UNL     1       8.393  -0.049  -0.325  0.00  0.00    +0.197 C 
ATOM      6  S   UNL     1       9.796  -0.998  -0.566  0.00  0.00    -0.013 S 
ATOM      7  N   UNL     1       7.774   0.442  -1.404  0.00  0.00    -0.097 NA
ATOM      8  N   UNL     1       6.755   1.139  -1.358  0.00  0.00    -0.179 NA
ENDROOT
BRANCH   4   9
ATOM      9  N   UNL     1       8.675  -0.384   1.980  0.00  0.00    -0.245 NA
ATOM     10  H   UNL     1       9.470  -0.910   1.651  0.00  0.00    +0.141 HD
ATOM     11  H   UNL     1       8.959   0.331   2.634  0.00  0.00    +0.141 HD
ENDBRANCH   4   9
BRANCH   1  13
ATOM     12  C   UNL     1       3.734   1.821  -0.024  0.00  0.00    +0.013 C 
ATOM     13  C   UNL     1       4.746   0.959  -0.038  0.00  0.00    +0.011 C 
BRANCH  12  16
ATOM     14  C   UNL     1      -0.016   1.354   0.009  0.00  0.00    +0.008 A 
ATOM     15  C   UNL     1       1.176   2.042   0.002  0.00  0.00    +0.015 A 
ATOM     16  C   UNL     1       2.348   1.328  -0.013  0.00  0.00    +0.012 A 
ATOM     17  S   UNL     1       1.752  -0.355  -0.017  0.00  0.00    -0.097 S 
ATOM     18  C   UNL     1       0.002  -0.004   0.002  0.00  0.00    +0.046 A 
ENDBRANCH  12  16
ENDBRANCH   1  13
TORSDOF 3
