REMARK  Name = ZINC66981174
REMARK  4 active torsions:
REMARK  status: ('A' for Active; 'I' for Inactive)
REMARK    1  A    between atoms: C_1  and  C_2
REMARK    2  A    between atoms: N_4  and  C_5
REMARK    3  A    between atoms: C_7  and  N_13
REMARK    4  A    between atoms: N_16  and  C_17
REMARK                            x       y       z     vdW  Elec       q    Type
REMARK                         _______ _______ _______ _____ _____    ______ ____
ROOT
ATOM      1  N   UNL     1       0.134  -5.012   1.018  0.00  0.00    -0.267 N 
ATOM      2  C   UNL     1      -0.075  -4.400   2.201  0.00  0.00    +0.304 C 
ATOM      3  O   UNL     1      -0.158  -3.188   2.252  0.00  0.00    -0.252 OA
ATOM      4  N   UNL     1      -0.193  -5.131   3.327  0.00  0.00    -0.292 N 
ATOM      5  H   UNL     1       0.265  -5.972   0.986  0.00  0.00    +0.156 HD
ATOM      6  H   UNL     1      -0.126  -6.098   3.286  0.00  0.00    +0.151 HD
ENDROOT
BRANCH   4   7
ATOM      7  C   UNL     1      -0.420  -4.466   4.612  0.00  0.00    +0.106 C 
ATOM      8  C   UNL     1       0.103  -5.356   5.738  0.00  0.00    +0.027 C 
ATOM      9  C   UNL     1      -0.347  -4.751   7.074  0.00  0.00    +0.008 C 
ATOM     10  C   UNL     1      -1.861  -4.913   7.186  0.00  0.00    +0.054 C 
ATOM     11  C   UNL     1      -2.545  -4.400   5.945  0.00  0.00    +0.024 A 
ATOM     12  C   UNL     1      -1.894  -4.205   4.781  0.00  0.00    -0.008 A 
ATOM     13  C   UNL     1      -2.602  -3.735   3.657  0.00  0.00    +0.012 A 
ATOM     14  C   UNL     1      -3.934  -3.477   3.753  0.00  0.00    +0.070 A 
ATOM     15  C   UNL     1      -4.582  -3.685   4.983  0.00  0.00    +0.249 A 
ATOM     16  O   UNL     1      -5.776  -3.457   5.093  0.00  0.00    -0.268 OA
ATOM     17  N   UNL     1      -3.882  -4.133   6.035  0.00  0.00    -0.326 N 
ATOM     18  H   UNL     1      -4.337  -4.272   6.881  0.00  0.00    +0.169 HD
ENDBRANCH   4   7
BRANCH   1  21
ATOM     19  C   UNL     1       0.712  -2.233  -1.330  0.00  0.00    +0.071 A 
ATOM     20  C   UNL     1       0.685  -2.975  -0.157  0.00  0.00    +0.052 A 
ATOM     21  C   UNL     1       0.163  -4.260  -0.164  0.00  0.00    +0.072 A 
ATOM     22  C   UNL     1      -0.332  -4.802  -1.346  0.00  0.00    +0.147 A 
ATOM     23  C   UNL     1      -0.303  -4.061  -2.513  0.00  0.00    +0.080 A 
ATOM     24  C   UNL     1       0.212  -2.777  -2.507  0.00  0.00    +0.147 A 
ATOM     25  F   UNL     1       0.234  -2.053  -3.648  0.00  0.00    -0.203 F 
ATOM     26  F   UNL     1      -0.839  -6.054  -1.353  0.00  0.00    -0.203 F 
BRANCH  19  30
ATOM     27  C   UNL     1       2.910   0.735  -0.592  0.00  0.00    +0.109 C 
ATOM     28  C   UNL     1       2.279  -0.632  -0.524  0.00  0.00    +0.214 C 
ATOM     29  O   UNL     1       2.709  -1.460   0.251  0.00  0.00    -0.276 OA
ATOM     30  N   UNL     1       1.238  -0.934  -1.325  0.00  0.00    -0.283 N 
ATOM     31  H   UNL     1       0.854  -0.253  -1.898  0.00  0.00    +0.155 HD
ENDBRANCH  19  30
ENDBRANCH   1  21
TORSDOF 3
