REMARK  Name = ZINC12776498
REMARK  9 active torsions:
REMARK  status: ('A' for Active; 'I' for Inactive)
REMARK    1  A    between atoms: C_1  and  C_2
REMARK    2  A    between atoms: C_2  and  C_35
REMARK    3  A    between atoms: C_9  and  C_21
REMARK    4  A    between atoms: C_17  and  C_19
REMARK    5  A    between atoms: C_17  and  C_20
REMARK    6  A    between atoms: N_23  and  C_24
REMARK    7  A    between atoms: C_24  and  C_25
REMARK    8  A    between atoms: N_27  and  C_28
REMARK    9  A    between atoms: C_33  and  O_34
REMARK                            x       y       z     vdW  Elec       q    Type
REMARK                         _______ _______ _______ _____ _____    ______ ____
ROOT
ATOM      1  C   UNL     1      -1.532  -0.440  -1.901  0.00  0.00    +0.245 C 
ATOM      2  O   UNL     1      -2.074  -1.483  -2.201  0.00  0.00    -0.273 OA
ATOM      3  N   UNL     1      -2.229   0.713  -1.929  0.00  0.00    -0.304 N 
ATOM      4  H   UNL     1      -1.796   1.548  -1.690  0.00  0.00    +0.149 HD
ENDROOT
BRANCH   1  11
ATOM      5  C   UNL     1       1.621   2.712  -1.295  0.00  0.00    +0.074 C 
ATOM      6  C   UNL     1       1.360   1.889  -0.032  0.00  0.00    +0.166 C 
ATOM      7  O   UNL     1       2.223   0.735  -0.021  0.00  0.00    -0.341 OA
ATOM      8  C   UNL     1       1.416  -0.302   0.566  0.00  0.00    +0.187 C 
ATOM      9  C   UNL     1       0.020  -0.005  -0.037  0.00  0.00    +0.191 C 
ATOM     10  O   UNL     1      -0.004   1.445  -0.019  0.00  0.00    -0.340 OA
ATOM     11  C   UNL     1      -0.080  -0.433  -1.498  0.00  0.00    +0.238 C 
ATOM     12  O   UNL     1       0.472  -1.731  -1.749  0.00  0.00    -0.333 OA
ATOM     13  C   UNL     1       1.838  -1.779  -1.376  0.00  0.00    +0.286 C 
ATOM     14  C   UNL     1       1.859  -1.682   0.174  0.00  0.00    +0.209 C 
ATOM     15  O   UNL     1       3.213  -2.070   0.440  0.00  0.00    -0.338 OA
ATOM     16  C   UNL     1       3.463  -3.137  -0.509  0.00  0.00    +0.168 C 
ATOM     17  O   UNL     1       2.553  -2.984  -1.622  0.00  0.00    -0.318 OA
ATOM     18  C   UNL     1       3.229  -4.491   0.165  0.00  0.00    +0.074 C 
ATOM     19  C   UNL     1       4.906  -3.053  -1.009  0.00  0.00    +0.074 C 
ATOM     20  C   UNL     1       1.634   2.748   1.204  0.00  0.00    +0.074 C 
ENDBRANCH   1  11
BRANCH   3  21
ATOM     21  C   UNL     1      -3.641   0.707  -2.321  0.00  0.00    +0.200 C 
BRANCH  21  22
ATOM     22  C   UNL     1      -4.183   2.112  -2.270  0.00  0.00    +0.234 C 
ATOM     23  O   UNL     1      -3.461   3.029  -1.939  0.00  0.00    -0.274 OA
ATOM     24  N   UNL     1      -5.470   2.350  -2.593  0.00  0.00    -0.281 N 
ATOM     25  H   UNL     1      -6.029   1.628  -2.920  0.00  0.00    +0.155 HD
BRANCH  24  26
ATOM     26  C   UNL     1      -5.999   3.640  -2.456  0.00  0.00    +0.075 A 
ATOM     27  C   UNL     1      -5.201   4.749  -2.699  0.00  0.00    +0.027 A 
ATOM     28  C   UNL     1      -5.726   6.020  -2.564  0.00  0.00    +0.002 A 
ATOM     29  C   UNL     1      -7.045   6.191  -2.186  0.00  0.00    +0.004 A 
ATOM     30  C   UNL     1      -7.846   5.091  -1.942  0.00  0.00    +0.047 A 
ATOM     31  C   UNL     1      -7.329   3.813  -2.080  0.00  0.00    +0.138 A 
BRANCH  31  32
ATOM     32  O   UNL     1      -8.118   2.730  -1.846  0.00  0.00    -0.505 OA
ATOM     33  H   UNL     1      -8.105   2.425  -0.928  0.00  0.00    +0.292 HD
ENDBRANCH  31  32
ENDBRANCH  24  26
ENDBRANCH  21  22
ENDBRANCH   3  21
TORSDOF 5
