REMARK  Name = ZINC08764700
REMARK  10 active torsions:
REMARK  status: ('A' for Active; 'I' for Inactive)
REMARK    1  A    between atoms: C_1  and  C_2
REMARK    2  A    between atoms: C_6  and  O_26
REMARK    3  A    between atoms: C_7  and  C_20
REMARK    4  A    between atoms: C_12  and  C_13
REMARK    5  A    between atoms: C_13  and  C_14
REMARK    6  A    between atoms: C_20  and  N_48
REMARK    7  A    between atoms: C_21  and  C_22
REMARK    8  A    between atoms: C_21  and  N_48
REMARK    9  A    between atoms: C_22  and  C_24
REMARK   10  A    between atoms: C_22  and  O_25
REMARK                            x       y       z     vdW  Elec       q    Type
REMARK                         _______ _______ _______ _____ _____    ______ ____
ROOT
ATOM      1  C   UNL     1       1.694  -1.364  -1.391  0.00  0.00    +0.045 C 
ATOM      2  C   UNL     1       2.538  -0.326  -2.085  0.00  0.00    -0.030 A 
ATOM      3  C   UNL     1       2.969  -0.512  -3.472  0.00  0.00    +0.021 A 
ATOM      4  C   UNL     1       2.610  -1.658  -4.191  0.00  0.00    +0.015 A 
ATOM      5  C   UNL     1       3.030  -1.808  -5.481  0.00  0.00    +0.046 A 
ATOM      6  C   UNL     1       3.815  -0.829  -6.087  0.00  0.00    +0.122 A 
ATOM      7  C   UNL     1       4.180   0.311  -5.390  0.00  0.00    +0.020 A 
ATOM      8  C   UNL     1       3.761   0.481  -4.078  0.00  0.00    +0.144 A 
ATOM      9  O   UNL     1       4.106   1.585  -3.381  0.00  0.00    -0.422 OA
ATOM     10  C   UNL     1       3.710   1.763  -2.111  0.00  0.00    +0.341 A 
ATOM     11  O   UNL     1       4.045   2.775  -1.522  0.00  0.00    -0.245 OA
ATOM     12  C   UNL     1       2.915   0.810  -1.442  0.00  0.00    +0.045 A 
ENDROOT
BRANCH   6  13
ATOM     13  O   UNL     1       4.225  -0.993  -7.370  0.00  0.00    -0.506 OA
ATOM     14  H   UNL     1       5.074  -1.448  -7.457  0.00  0.00    +0.292 HD
ENDBRANCH   6  13
BRANCH  12  15
ATOM     15  C   UNL     1       2.490   1.048  -0.016  0.00  0.00    +0.077 C 
BRANCH  15  16
ATOM     16  C   UNL     1       1.175   1.783   0.000  0.00  0.00    -0.043 A 
ATOM     17  C   UNL     1      -0.013   1.076   0.008  0.00  0.00    +0.004 A 
ATOM     18  C   UNL     1      -1.219   1.751   0.017  0.00  0.00    +0.000 A 
ATOM     19  C   UNL     1      -1.238   3.133   0.030  0.00  0.00    +0.000 A 
ATOM     20  C   UNL     1      -0.050   3.840   0.022  0.00  0.00    +0.000 A 
ATOM     21  C   UNL     1       1.156   3.165   0.008  0.00  0.00    +0.004 A 
ENDBRANCH  15  16
ENDBRANCH  12  15
BRANCH   7  22
ATOM     22  C   UNL     1       5.029   1.365  -6.054  0.00  0.00    -0.039 C 
BRANCH  22  23
ATOM     23  N   UNL     1       6.452   1.059  -5.817  0.00  0.00    +0.384 N 
ATOM     24  H   UNL     1       6.671   0.136  -6.210  0.00  0.00    -0.085 HD
ATOM     25  H   UNL     1       6.633   1.052  -4.806  0.00  0.00    -0.085 HD
BRANCH  23  26
ATOM     26  C   UNL     1       7.308   2.076  -6.457  0.00  0.00    -0.051 C 
BRANCH  26  27
ATOM     27  C   UNL     1       8.776   1.733  -6.194  0.00  0.00    +0.095 C 
ATOM     28  C   UNL     1       9.671   2.784  -6.856  0.00  0.00    +0.035 C 
BRANCH  27  29
ATOM     29  O   UNL     1       9.017   1.721  -4.786  0.00  0.00    -0.394 OA
ATOM     30  H   UNL     1       8.838   2.564  -4.349  0.00  0.00    +0.210 HD
ENDBRANCH  27  29
ENDBRANCH  26  27
ENDBRANCH  23  26
ENDBRANCH  22  23
ENDBRANCH   7  22
TORSDOF 8
