REMARK  Name = ZINC65501827
REMARK  12 active torsions:
REMARK  status: ('A' for Active; 'I' for Inactive)
REMARK    1  A    between atoms: C_1  and  C_2
REMARK    2  A    between atoms: C_2  and  O_3
REMARK    3  A    between atoms: O_3  and  C_4
REMARK    4  A    between atoms: C_9  and  O_10
REMARK    5  A    between atoms: O_10  and  C_11
REMARK    6  A    between atoms: C_11  and  C_12
REMARK    7  A    between atoms: N_14  and  N_15
REMARK    8  A    between atoms: N_18  and  C_19
REMARK    9  A    between atoms: C_19  and  C_20
REMARK   10  A    between atoms: C_19  and  C_21
REMARK   11  A    between atoms: C_23  and  C_27
REMARK   12  A    between atoms: C_25  and  C_26
REMARK                            x       y       z     vdW  Elec       q    Type
REMARK                         _______ _______ _______ _____ _____    ______ ____
ROOT
ATOM      1  C   UNL     1       3.191  -1.077   5.376  0.00  0.00    +0.267 C 
ATOM      2  O   UNL     1       3.017   0.094   5.114  0.00  0.00    -0.271 OA
ATOM      3  N   UNL     1       3.857  -1.425   6.495  0.00  0.00    -0.230 N 
ATOM      4  H   UNL     1       3.997  -2.361   6.705  0.00  0.00    +0.173 HD
ENDROOT
BRANCH   3   5
ATOM      5  N   UNL     1       4.348  -0.434   7.355  0.00  0.00    -0.218 N 
ATOM      6  C   UNL     1       5.014  -0.782   8.474  0.00  0.00    +0.316 C 
ATOM      7  O   UNL     1       5.440   0.079   9.220  0.00  0.00    -0.251 OA
ATOM      8  N   UNL     1       5.208  -2.083   8.765  0.00  0.00    -0.292 N 
ATOM      9  H   UNL     1       4.209   0.503   7.145  0.00  0.00    +0.174 HD
ATOM     10  H   UNL     1       4.869  -2.769   8.170  0.00  0.00    +0.151 HD
BRANCH   8  11
ATOM     11  C   UNL     1       5.932  -2.461   9.982  0.00  0.00    +0.105 C 
ATOM     12  C   UNL     1       4.962  -2.493  11.164  0.00  0.00    +0.033 C 
BRANCH  11  13
ATOM     13  C   UNL     1       6.544  -3.826   9.798  0.00  0.00    +0.013 A 
ATOM     14  C   UNL     1       6.162  -4.800   8.847  0.00  0.00    +0.050 A 
ATOM     15  C   UNL     1       6.966  -5.862   9.031  0.00  0.00    +0.103 A 
ATOM     16  O   UNL     1       7.811  -5.585  10.038  0.00  0.00    -0.465 OA
ATOM     17  C   UNL     1       7.563  -4.349  10.503  0.00  0.00    +0.107 A 
ATOM     18  C   UNL     1       8.299  -3.667  11.627  0.00  0.00    +0.086 C 
ATOM     19  C   UNL     1       6.926  -7.146   8.243  0.00  0.00    +0.086 C 
ENDBRANCH  11  13
ENDBRANCH   8  11
ENDBRANCH   3   5
BRANCH   1  20
ATOM     20  C   UNL     1       2.664  -2.143   4.451  0.00  0.00    +0.326 C 
BRANCH  20  21
ATOM     21  O   UNL     1       2.000  -1.528   3.345  0.00  0.00    -0.479 OA
BRANCH  21  27
ATOM     22  C   UNL     1       0.802  -1.825   1.306  0.00  0.00    +0.162 A 
ATOM     23  C   UNL     1       0.261  -2.673   0.353  0.00  0.00    +0.049 A 
ATOM     24  C   UNL     1       0.372  -4.043   0.502  0.00  0.00    +0.004 A 
ATOM     25  C   UNL     1       1.024  -4.570   1.602  0.00  0.00    +0.004 A 
ATOM     26  C   UNL     1       1.566  -3.730   2.557  0.00  0.00    +0.049 A 
ATOM     27  C   UNL     1       1.462  -2.356   2.410  0.00  0.00    +0.163 A 
BRANCH  22  28
ATOM     28  O   UNL     1       0.693  -0.477   1.160  0.00  0.00    -0.489 OA
BRANCH  28  30
ATOM     29  C   UNL     1      -0.019   1.526   0.010  0.00  0.00    +0.048 C 
ATOM     30  C   UNL     1       0.002  -0.004   0.002  0.00  0.00    +0.226 C 
ENDBRANCH  28  30
ENDBRANCH  22  28
ENDBRANCH  21  27
ENDBRANCH  20  21
ENDBRANCH   1  20
TORSDOF 8
