REMARK  Name = ZINC52840518
REMARK  6 active torsions:
REMARK  status: ('A' for Active; 'I' for Inactive)
REMARK    1  A    between atoms: C_1  and  C_2
REMARK    2  A    between atoms: C_2  and  C_4
REMARK    3  A    between atoms: C_2  and  N_10
REMARK    4  A    between atoms: N_10  and  C_11
REMARK    5  A    between atoms: C_14  and  N_18
REMARK    6  A    between atoms: C_16  and  N_17
REMARK                            x       y       z     vdW  Elec       q    Type
REMARK                         _______ _______ _______ _____ _____    ______ ____
ROOT
ATOM      1  C   UNL     1       0.025  -0.639   2.401  0.00  0.00    +0.049 A 
ATOM      2  C   UNL     1      -1.325  -0.334   2.478  0.00  0.00    +0.027 A 
ATOM      3  C   UNL     1      -2.000  -0.483   3.676  0.00  0.00    +0.034 A 
ATOM      4  C   UNL     1      -1.331  -0.935   4.799  0.00  0.00    +0.128 A 
ATOM      5  C   UNL     1       0.015  -1.242   4.731  0.00  0.00    +0.057 A 
ATOM      6  C   UNL     1       0.698  -1.101   3.532  0.00  0.00    +0.048 A 
ENDROOT
BRANCH   6   7
ATOM      7  N   UNL     1       2.060  -1.416   3.459  0.00  0.00    -0.356 N 
ATOM      8  H   UNL     1       2.538  -1.313   2.621  0.00  0.00    +0.142 HD
ATOM      9  H   UNL     1       2.527  -1.737   4.247  0.00  0.00    +0.142 HD
ENDBRANCH   6   7
BRANCH   4  10
ATOM     10  N   UNL     1      -2.060  -1.092   6.078  0.00  0.00    +0.056 N 
ATOM     11  O   UNL     1      -3.237  -0.825   6.139  0.00  0.00    -0.126 OA
ATOM     12  O   UNL     1      -1.477  -1.488   7.061  0.00  0.00    -0.126 OA
ENDBRANCH   4  10
BRANCH   1  13
ATOM     13  N   UNL     1       0.711  -0.489   1.189  0.00  0.00    -0.336 N 
ATOM     14  H   UNL     1       1.654  -0.707   1.135  0.00  0.00    +0.147 HD
BRANCH  13  16
ATOM     15  C   UNL     1      -0.019   1.526   0.010  0.00  0.00    +0.033 C 
ATOM     16  C   UNL     1       0.002  -0.004   0.002  0.00  0.00    +0.099 C 
BRANCH  16  17
ATOM     17  C   UNL     1       0.707  -0.490  -1.238  0.00  0.00    -0.009 A 
ATOM     18  C   UNL     1      -0.021  -0.918  -2.338  0.00  0.00    +0.008 A 
ATOM     19  C   UNL     1       0.670  -1.357  -3.456  0.00  0.00    +0.020 A 
ATOM     20  C   UNL     1       2.053  -1.353  -3.439  0.00  0.00    +0.111 A 
ATOM     21  N   UNL     1       2.712  -0.939  -2.375  0.00  0.00    -0.263 NA
ATOM     22  C   UNL     1       2.088  -0.509  -1.295  0.00  0.00    +0.116 A 
ENDBRANCH  16  17
ENDBRANCH  13  16
ENDBRANCH   1  13
TORSDOF 5
