REMARK  Name = ZINC35627506
REMARK  7 active torsions:
REMARK  status: ('A' for Active; 'I' for Inactive)
REMARK    1  A    between atoms: C_1  and  C_2
REMARK    2  A    between atoms: C_2  and  C_4
REMARK    3  A    between atoms: C_2  and  O_22
REMARK    4  A    between atoms: C_8  and  O_10
REMARK    5  A    between atoms: O_10  and  C_11
REMARK    6  A    between atoms: C_11  and  C_12
REMARK    7  A    between atoms: C_17  and  N_18
REMARK                            x       y       z     vdW  Elec       q    Type
REMARK                         _______ _______ _______ _____ _____    ______ ____
ROOT
ATOM      1  O   UNL     1      -3.910  -1.676   2.394  0.00  0.00    -0.487 OA
ENDROOT
BRANCH   1   6
ATOM      2  C   UNL     1      -1.412  -0.526   0.013  0.00  0.00    -0.016 A 
ATOM      3  C   UNL     1      -2.105  -0.666  -1.175  0.00  0.00    +0.006 A 
ATOM      4  C   UNL     1      -3.402  -1.144  -1.169  0.00  0.00    +0.004 A 
ATOM      5  C   UNL     1      -4.009  -1.483   0.025  0.00  0.00    +0.045 A 
ATOM      6  C   UNL     1      -3.316  -1.343   1.218  0.00  0.00    +0.121 A 
ATOM      7  C   UNL     1      -2.012  -0.869   1.209  0.00  0.00    +0.051 A 
BRANCH   2   9
ATOM      8  C   UNL     1      -0.019   1.526   0.010  0.00  0.00    +0.043 C 
ATOM      9  C   UNL     1       0.002  -0.004   0.002  0.00  0.00    +0.142 C 
BRANCH   9  10
ATOM     10  O   UNL     1       0.671  -0.465  -1.174  0.00  0.00    -0.387 OA
ATOM     11  H   UNL     1       1.588  -0.167  -1.247  0.00  0.00    +0.210 HD
ENDBRANCH   9  10
ENDBRANCH   2   9
ENDBRANCH   1   6
BRANCH   1  12
ATOM     12  C   UNL     1      -5.252  -2.163   2.328  0.00  0.00    +0.266 C 
BRANCH  12  13
ATOM     13  C   UNL     1      -5.741  -2.478   3.718  0.00  0.00    +0.022 A 
ATOM     14  C   UNL     1      -4.913  -2.272   4.805  0.00  0.00    +0.047 A 
ATOM     15  C   UNL     1      -5.363  -2.562   6.082  0.00  0.00    +0.124 A 
ATOM     16  C   UNL     1      -6.643  -3.057   6.269  0.00  0.00    +0.040 A 
ATOM     17  C   UNL     1      -7.469  -3.261   5.180  0.00  0.00    +0.036 A 
ATOM     18  C   UNL     1      -7.021  -2.967   3.906  0.00  0.00    +0.133 A 
ATOM     19  F   UNL     1      -4.554  -2.361   7.145  0.00  0.00    -0.205 F 
BRANCH  18  20
ATOM     20  N   UNL     1      -7.909  -3.180   2.741  0.00  0.00    +0.057 N 
ATOM     21  O   UNL     1      -9.028  -3.608   2.905  0.00  0.00    -0.126 OA
ATOM     22  O   UNL     1      -7.516  -2.927   1.627  0.00  0.00    -0.126 OA
ENDBRANCH  18  20
ENDBRANCH  12  13
ENDBRANCH   1  12
TORSDOF 6
