REMARK  Name = ZINC37895767
REMARK  6 active torsions:
REMARK  status: ('A' for Active; 'I' for Inactive)
REMARK    1  A    between atoms: C_1  and  C_2
REMARK    2  A    between atoms: C_2  and  C_4
REMARK    3  A    between atoms: C_2  and  N_16
REMARK    4  A    between atoms: C_11  and  C_13
REMARK    5  A    between atoms: C_13  and  C_14
REMARK    6  A    between atoms: C_14  and  O_15
REMARK                            x       y       z     vdW  Elec       q    Type
REMARK                         _______ _______ _______ _____ _____    ______ ____
ROOT
ATOM      1  C   UNL     1      -1.346  -0.822  -0.042  0.00  0.00    +0.236 C 
ATOM      2  O   UNL     1      -1.667  -1.429   0.958  0.00  0.00    -0.274 OA
ATOM      3  N   UNL     1      -2.284  -0.459  -0.940  0.00  0.00    -0.297 N 
ATOM      4  C   UNL     1      -1.900   0.175  -2.209  0.00  0.00    +0.108 C 
ATOM      5  C   UNL     1      -2.526  -0.614  -3.363  0.00  0.00    +0.019 C 
ATOM      6  C   UNL     1      -4.037  -0.719  -3.145  0.00  0.00    +0.003 C 
ATOM      7  C   UNL     1      -4.314  -1.470  -1.840  0.00  0.00    +0.022 C 
ATOM      8  C   UNL     1      -3.709  -0.696  -0.671  0.00  0.00    +0.078 C 
ENDROOT
BRANCH   1  10
ATOM      9  C   UNL     1       0.330   1.003   0.047  0.00  0.00    +0.038 C 
ATOM     10  C   UNL     1       0.100  -0.473  -0.281  0.00  0.00    +0.157 C 
BRANCH  10  11
ATOM     11  N   UNL     1       0.950  -1.302   0.577  0.00  0.00    -0.289 N 
ATOM     12  C   UNL     1       2.225  -1.555   0.220  0.00  0.00    +0.298 C 
ATOM     13  O   UNL     1       2.670  -1.095  -0.814  0.00  0.00    -0.253 OA
ATOM     14  N   UNL     1       3.007  -2.318   1.009  0.00  0.00    -0.313 N 
ATOM     15  H   UNL     1       0.596  -1.669   1.401  0.00  0.00    +0.151 HD
ATOM     16  H   UNL     1       2.653  -2.685   1.834  0.00  0.00    +0.146 HD
ATOM     17  H   UNL     1       3.925  -2.499   0.753  0.00  0.00    +0.146 HD
ENDBRANCH  10  11
ENDBRANCH   1  10
BRANCH   8  18
ATOM     18  C   UNL     1      -3.860  -1.512   0.614  0.00  0.00    +0.050 C 
BRANCH  18  19
ATOM     19  C   UNL     1      -5.345  -1.721   0.914  0.00  0.00    +0.157 C 
BRANCH  19  20
ATOM     20  O   UNL     1      -5.489  -2.378   2.175  0.00  0.00    -0.395 OA
ATOM     21  H   UNL     1      -6.407  -2.543   2.430  0.00  0.00    +0.209 HD
ENDBRANCH  19  20
ENDBRANCH  18  19
ENDBRANCH   8  18
TORSDOF 5
