REMARK  Name = ZINC36877711
REMARK  8 active torsions:
REMARK  status: ('A' for Active; 'I' for Inactive)
REMARK    1  A    between atoms: C_1  and  C_2
REMARK    2  A    between atoms: C_2  and  C_3
REMARK    3  A    between atoms: C_3  and  C_5
REMARK    4  A    between atoms: C_3  and  C_6
REMARK    5  A    between atoms: C_6  and  C_8
REMARK    6  A    between atoms: C_6  and  N_24
REMARK    7  A    between atoms: C_11  and  C_14
REMARK    8  A    between atoms: C_18  and  N_20
REMARK                            x       y       z     vdW  Elec       q    Type
REMARK                         _______ _______ _______ _____ _____    ______ ____
ROOT
ATOM      1  C   UNL     1       1.336  -2.509  -2.568  0.00  0.00    +0.093 A 
ATOM      2  N   UNL     1       2.326  -3.428  -2.599  0.00  0.00    -0.343 N 
ATOM      3  H   UNL     1       2.708  -3.888  -1.836  0.00  0.00    +0.167 HD
ATOM      4  C   UNL     1       2.690  -3.586  -3.917  0.00  0.00    +0.066 A 
ATOM      5  C   UNL     1       1.898  -2.749  -4.640  0.00  0.00    +0.139 A 
ATOM      6  N   UNL     1       1.085  -2.115  -3.788  0.00  0.00    -0.242 NA
ENDROOT
BRANCH   4   7
ATOM      7  C   UNL     1       3.737  -4.489  -4.443  0.00  0.00    +0.002 A 
ATOM      8  C   UNL     1       4.468  -5.297  -3.571  0.00  0.00    +0.011 A 
ATOM      9  C   UNL     1       5.444  -6.137  -4.068  0.00  0.00    +0.023 A 
ATOM     10  C   UNL     1       5.698  -6.179  -5.428  0.00  0.00    +0.071 A 
ATOM     11  C   UNL     1       4.976  -5.379  -6.298  0.00  0.00    +0.145 A 
ATOM     12  C   UNL     1       3.994  -4.540  -5.813  0.00  0.00    +0.044 A 
ATOM     13 CL   UNL     1       6.927  -7.237  -6.046  0.00  0.00    -0.081 Cl
BRANCH  11  14
ATOM     14  N   UNL     1       5.254  -5.429  -7.751  0.00  0.00    +0.058 N 
ATOM     15  O   UNL     1       4.625  -4.731  -8.511  0.00  0.00    -0.126 OA
ATOM     16  O   UNL     1       6.111  -6.168  -8.177  0.00  0.00    -0.126 OA
ENDBRANCH  11  14
ENDBRANCH   4   7
BRANCH   1  17
ATOM     17  C   UNL     1       0.630  -2.023  -1.329  0.00  0.00    -0.005 C 
BRANCH  17  18
ATOM     18  N   UNL     1      -0.780  -2.431  -1.376  0.00  0.00    +0.385 N 
ATOM     19  H   UNL     1      -1.219  -2.030  -2.192  0.00  0.00    -0.089 HD
ATOM     20  H   UNL     1      -0.838  -3.437  -1.423  0.00  0.00    -0.089 HD
ATOM     21  H   UNL     1      -1.252  -2.105  -0.546  0.00  0.00    -0.089 HD
ENDBRANCH  17  18
BRANCH  17  22
ATOM     22  C   UNL     1       0.718  -0.497  -1.257  0.00  0.00    -0.022 C 
ATOM     23  C   UNL     1       2.187  -0.073  -1.207  0.00  0.00    +0.006 C 
BRANCH  22  25
ATOM     24  C   UNL     1      -0.019   1.526   0.010  0.00  0.00    +0.004 C 
ATOM     25  C   UNL     1       0.002  -0.004   0.002  0.00  0.00    -0.001 C 
ENDBRANCH  22  25
ENDBRANCH  17  22
ENDBRANCH   1  17
TORSDOF 6
