REMARK  Name = ZINC39708053
REMARK  6 active torsions:
REMARK  status: ('A' for Active; 'I' for Inactive)
REMARK    1  A    between atoms: C_1  and  C_2
REMARK    2  A    between atoms: C_14  and  S_16
REMARK    3  A    between atoms: S_16  and  C_17
REMARK    4  A    between atoms: C_17  and  C_18
REMARK    5  A    between atoms: N_20  and  C_21
REMARK    6  A    between atoms: C_24  and  C_28
REMARK                            x       y       z     vdW  Elec       q    Type
REMARK                         _______ _______ _______ _____ _____    ______ ____
ROOT
ATOM      1  C   UNL     1      -0.070   1.523   0.016  0.00  0.00    +0.044 C 
ATOM      2  C   UNL     1      -0.044   0.016   0.003  0.00  0.00    -0.050 A 
ATOM      3  C   UNL     1      -0.047  -0.649  -1.231  0.00  0.00    +0.005 A 
ATOM      4  C   UNL     1      -0.019  -1.998  -1.313  0.00  0.00    +0.026 A 
ATOM      5  C   UNL     1       0.015  -2.792  -0.078  0.00  0.00    +0.046 A 
ATOM      6  N   UNL     1       0.013  -4.087   0.129  0.00  0.00    -0.358 N 
ATOM      7  C   UNL     1       0.181  -4.335   1.551  0.00  0.00    +0.252 C 
ATOM      8  C   UNL     1       0.021  -2.985   2.228  0.00  0.00    +0.117 C 
ATOM      9  C   UNL     1       0.004  -2.058   1.213  0.00  0.00    +0.025 A 
ATOM     10  C   UNL     1      -0.015  -0.645   1.183  0.00  0.00    +0.015 A 
ATOM     11  N   UNL     1      -0.199  -2.878   3.541  0.00  0.00    -0.147 NA
ATOM     12  N   UNL     1      -0.789  -3.896   4.093  0.00  0.00    -0.122 NA
ATOM     13  C   UNL     1      -1.212  -4.962   3.371  0.00  0.00    +0.208 C 
ATOM     14  N   UNL     1      -0.821  -5.219   2.143  0.00  0.00    -0.227 NA
ATOM     15  H   UNL     1      -0.084  -4.768  -0.555  0.00  0.00    +0.162 HD
ENDROOT
BRANCH  13  16
ATOM     16  S   UNL     1      -2.350  -6.075   4.125  0.00  0.00    -0.075 S 
BRANCH  16  17
ATOM     17  C   UNL     1      -2.650  -7.329   2.849  0.00  0.00    +0.173 C 
BRANCH  17  18
ATOM     18  C   UNL     1      -3.621  -8.356   3.373  0.00  0.00    +0.227 C 
ATOM     19  O   UNL     1      -4.067  -8.252   4.496  0.00  0.00    -0.275 OA
ATOM     20  N   UNL     1      -3.994  -9.390   2.592  0.00  0.00    -0.285 N 
ATOM     21  H   UNL     1      -3.690  -9.437   1.672  0.00  0.00    +0.155 HD
BRANCH  20  22
ATOM     22  C   UNL     1      -4.819 -10.395   3.110  0.00  0.00    +0.035 A 
ATOM     23  C   UNL     1      -4.646 -11.713   2.706  0.00  0.00    +0.023 A 
ATOM     24  C   UNL     1      -5.461 -12.703   3.218  0.00  0.00    +0.006 A 
ATOM     25  C   UNL     1      -6.449 -12.384   4.132  0.00  0.00    -0.032 A 
ATOM     26  C   UNL     1      -6.623 -11.072   4.537  0.00  0.00    +0.046 A 
ATOM     27  C   UNL     1      -5.807 -10.078   4.032  0.00  0.00    +0.043 A 
ATOM     28 CL   UNL     1      -7.865 -10.676   5.684  0.00  0.00    -0.083 Cl
ATOM     29  C   UNL     1      -7.337 -13.467   4.688  0.00  0.00    +0.045 C 
ENDBRANCH  20  22
ENDBRANCH  17  18
ENDBRANCH  16  17
ENDBRANCH  13  16
TORSDOF 4
