REMARK  Name = ZINC66682133
REMARK  14 active torsions:
REMARK  status: ('A' for Active; 'I' for Inactive)
REMARK    1  A    between atoms: C_1  and  C_2
REMARK    2  A    between atoms: C_2  and  N_3
REMARK    3  A    between atoms: N_3  and  C_4
REMARK    4  A    between atoms: N_3  and  C_6
REMARK    5  A    between atoms: C_4  and  C_5
REMARK    6  A    between atoms: C_6  and  C_8
REMARK    7  A    between atoms: C_6  and  C_9
REMARK    8  A    between atoms: C_9  and  N_10
REMARK    9  A    between atoms: N_13  and  C_14
REMARK   10  A    between atoms: C_17  and  C_21
REMARK   11  A    between atoms: C_18  and  C_20
REMARK   12  A    between atoms: N_23  and  C_24
REMARK   13  A    between atoms: C_24  and  C_25
REMARK   14  A    between atoms: C_24  and  C_26
REMARK                            x       y       z     vdW  Elec       q    Type
REMARK                         _______ _______ _______ _____ _____    ______ ____
ROOT
ATOM      1  N   UNL     1       2.094  -2.248   3.961  0.00  0.00    -0.301 N 
ATOM      2  C   UNL     1       2.755  -2.103   5.127  0.00  0.00    +0.304 C 
ATOM      3  O   UNL     1       3.931  -2.404   5.201  0.00  0.00    -0.253 OA
ATOM      4  N   UNL     1       2.112  -1.625   6.211  0.00  0.00    -0.269 N 
ATOM      5  H   UNL     1       1.156  -2.008   3.902  0.00  0.00    +0.150 HD
ATOM      6  H   UNL     1       1.159  -1.447   6.171  0.00  0.00    +0.156 HD
ENDROOT
BRANCH   4   7
ATOM      7  C   UNL     1       2.817  -1.386   7.390  0.00  0.00    +0.035 A 
ATOM      8  C   UNL     1       4.135  -0.945   7.334  0.00  0.00    +0.024 A 
ATOM      9  C   UNL     1       4.834  -0.708   8.496  0.00  0.00    +0.015 A 
ATOM     10  C   UNL     1       4.217  -0.911   9.734  0.00  0.00    +0.040 A 
ATOM     11  C   UNL     1       2.893  -1.353   9.787  0.00  0.00    -0.037 A 
ATOM     12  C   UNL     1       2.198  -1.584   8.620  0.00  0.00    +0.027 A 
ATOM     13  C   UNL     1       2.224  -1.574  11.119  0.00  0.00    +0.044 C 
BRANCH  10  14
ATOM     14  C   UNL     1       4.963  -0.658  10.982  0.00  0.00    +0.245 C 
ATOM     15  O   UNL     1       4.437  -0.870  12.058  0.00  0.00    -0.270 OA
ATOM     16  N   UNL     1       6.227  -0.193  10.929  0.00  0.00    -0.309 N 
ATOM     17  H   UNL     1       6.646  -0.024  10.071  0.00  0.00    +0.149 HD
BRANCH  16  18
ATOM     18  C   UNL     1       6.967   0.058  12.168  0.00  0.00    +0.067 C 
ATOM     19  C   UNL     1       7.621  -1.242  12.643  0.00  0.00    +0.027 C 
ATOM     20  C   UNL     1       8.049   1.109  11.912  0.00  0.00    +0.027 C 
ENDBRANCH  16  18
ENDBRANCH  10  14
ENDBRANCH   4   7
BRANCH   1  21
ATOM     21  C   UNL     1       2.793  -2.767   2.783  0.00  0.00    +0.090 C 
BRANCH  21  22
ATOM     22  C   UNL     1       1.860  -2.711   1.571  0.00  0.00    -0.054 C 
ATOM     23  C   UNL     1       2.620  -3.162   0.322  0.00  0.00    -0.012 C 
BRANCH  22  24
ATOM     24  N   UNL     1       1.383  -1.335   1.384  0.00  0.00    +0.382 N 
ATOM     25  H   UNL     1       0.933  -1.017   2.229  0.00  0.00    -0.081 HD
BRANCH  24  27
ATOM     26  C   UNL     1       2.037   0.988   0.970  0.00  0.00    -0.017 C 
ATOM     27  C   UNL     1       2.521  -0.459   1.076  0.00  0.00    -0.082 C 
ENDBRANCH  24  27
BRANCH  24  28
ATOM     28  C   UNL     1       0.421  -1.297   0.274  0.00  0.00    -0.082 C 
ATOM     29  C   UNL     1      -0.801  -2.146   0.628  0.00  0.00    -0.017 C 
ENDBRANCH  24  28
ENDBRANCH  22  24
ENDBRANCH  21  22
ENDBRANCH   1  21
TORSDOF 8
