REMARK  Name = ZINC13132772
REMARK  6 active torsions:
REMARK  status: ('A' for Active; 'I' for Inactive)
REMARK    1  A    between atoms: C_1  and  C_2
REMARK    2  A    between atoms: C_5  and  C_9
REMARK    3  A    between atoms: C_6  and  C_8
REMARK    4  A    between atoms: C_9  and  N_10
REMARK    5  A    between atoms: N_10  and  N_17
REMARK    6  A    between atoms: N_18  and  C_19
REMARK                            x       y       z     vdW  Elec       q    Type
REMARK                         _______ _______ _______ _____ _____    ______ ____
ROOT
ATOM      1  N   UNL     1      -1.233  -4.762   0.647  0.00  0.00    -0.179 N 
ATOM      2  C   UNL     1      -1.670  -4.698   1.968  0.00  0.00    +0.228 A 
ATOM      3  C   UNL     1      -1.550  -5.767   2.965  0.00  0.00    +0.204 A 
ATOM      4  N   UNL     1      -2.068  -5.343   4.085  0.00  0.00    -0.032 NA
ATOM      5  O   UNL     1      -2.534  -4.021   3.875  0.00  0.00    -0.239 OA
ATOM      6  N   UNL     1      -2.250  -3.675   2.531  0.00  0.00    -0.030 NA
ATOM      7  N   UNL     1      -0.983  -7.018   2.753  0.00  0.00    -0.338 N 
ATOM      8  H   UNL     1      -0.557  -7.220   1.905  0.00  0.00    +0.144 HD
ATOM      9  H   UNL     1      -1.013  -7.689   3.453  0.00  0.00    +0.144 HD
ENDROOT
BRANCH   1  10
ATOM     10  N   UNL     1      -2.062  -5.314  -0.339  0.00  0.00    -0.070 NA
ATOM     11  N   UNL     1      -3.266  -5.670  -0.043  0.00  0.00    -0.106 NA
BRANCH  11  12
ATOM     12  C   UNL     1      -4.042  -6.302  -0.978  0.00  0.00    +0.259 A 
ATOM     13  C   UNL     1      -5.458  -6.663  -0.822  0.00  0.00    +0.208 A 
ATOM     14  N   UNL     1      -5.854  -7.249  -1.917  0.00  0.00    -0.032 NA
ATOM     15  O   UNL     1      -4.756  -7.297  -2.810  0.00  0.00    -0.239 OA
ATOM     16  N   UNL     1      -3.652  -6.684  -2.168  0.00  0.00    -0.025 NA
ATOM     17  N   UNL     1      -6.239  -6.423   0.301  0.00  0.00    -0.337 N 
ATOM     18  H   UNL     1      -5.878  -5.915   1.044  0.00  0.00    +0.144 HD
ATOM     19  H   UNL     1      -7.147  -6.763   0.342  0.00  0.00    +0.144 HD
ENDBRANCH  11  12
ENDBRANCH   1  10
BRANCH   1  20
ATOM     20  C   UNL     1       0.093  -4.253   0.288  0.00  0.00    +0.171 C 
BRANCH  20  25
ATOM     21  C   UNL     1      -0.212   1.443  -0.636  0.00  0.00    +0.044 C 
ATOM     22  C   UNL     1      -0.133  -0.043  -0.395  0.00  0.00    -0.050 A 
ATOM     23  C   UNL     1       0.387  -0.523   0.792  0.00  0.00    +0.004 A 
ATOM     24  C   UNL     1       0.460  -1.886   1.014  0.00  0.00    +0.006 A 
ATOM     25  C   UNL     1       0.013  -2.768   0.048  0.00  0.00    -0.025 A 
ATOM     26  C   UNL     1      -0.508  -2.287  -1.139  0.00  0.00    -0.045 A 
ATOM     27  C   UNL     1      -0.585  -0.924  -1.359  0.00  0.00    +0.007 A 
ATOM     28  C   UNL     1      -0.995  -3.249  -2.192  0.00  0.00    +0.044 C 
ENDBRANCH  20  25
ENDBRANCH   1  20
TORSDOF 4
