REMARK  Name = ZINC12369933
REMARK  8 active torsions:
REMARK  status: ('A' for Active; 'I' for Inactive)
REMARK    1  A    between atoms: C_1  and  S_2
REMARK    2  A    between atoms: S_2  and  N_5
REMARK    3  A    between atoms: N_5  and  C_6
REMARK    4  A    between atoms: C_9  and  C_12
REMARK    5  A    between atoms: N_13  and  O_14
REMARK    6  A    between atoms: O_14  and  C_15
REMARK    7  A    between atoms: N_17  and  C_18
REMARK    8  A    between atoms: C_21  and  C_24
REMARK                            x       y       z     vdW  Elec       q    Type
REMARK                         _______ _______ _______ _____ _____    ______ ____
ROOT
ATOM      1  C   UNL     1       3.414  -6.339  -0.376  0.00  0.00    +0.163 C 
ATOM      2  N   UNL     1       3.230  -5.061  -0.200  0.00  0.00    -0.057 NA
ATOM      3  N   UNL     1       2.328  -7.194  -0.426  0.00  0.00    -0.340 N 
ATOM      4  H   UNL     1       1.429  -6.842  -0.331  0.00  0.00    +0.144 HD
ATOM      5  H   UNL     1       2.465  -8.145  -0.557  0.00  0.00    +0.144 HD
ENDROOT
BRANCH   1   9
ATOM      6  C   UNL     1       7.353  -7.880  -0.792  0.00  0.00    +0.048 A 
ATOM      7  C   UNL     1       6.261  -8.741  -0.844  0.00  0.00    +0.025 A 
ATOM      8  C   UNL     1       4.984  -8.244  -0.709  0.00  0.00    +0.013 A 
ATOM      9  C   UNL     1       4.785  -6.875  -0.521  0.00  0.00    +0.018 A 
ATOM     10  C   UNL     1       5.881  -6.013  -0.475  0.00  0.00    +0.013 A 
ATOM     11  C   UNL     1       7.157  -6.516  -0.604  0.00  0.00    +0.025 A 
BRANCH   6  12
ATOM     12  N   UNL     1       8.644  -8.386  -0.928  0.00  0.00    -0.221 N 
ATOM     13  H   UNL     1       9.220  -8.459  -0.151  0.00  0.00    +0.173 HD
BRANCH  12  15
ATOM     14  C   UNL     1       9.265  -7.336  -3.395  0.00  0.00    +0.218 C 
ATOM     15  S   UNL     1       9.195  -8.861  -2.416  0.00  0.00    +0.040 S 
ATOM     16  O   UNL     1      10.508  -9.350  -2.177  0.00  0.00    -0.155 OA
ATOM     17  O   UNL     1       8.182  -9.720  -2.920  0.00  0.00    -0.155 OA
ENDBRANCH  12  15
ENDBRANCH   6  12
ENDBRANCH   1   9
BRANCH   2  18
ATOM     18  O   UNL     1       2.101  -4.620  -0.080  0.00  0.00    -0.297 OA
BRANCH  18  19
ATOM     19  C   UNL     1       1.981  -3.292   0.099  0.00  0.00    +0.430 C 
ATOM     20  O   UNL     1       2.973  -2.591   0.135  0.00  0.00    -0.224 OA
ATOM     21  N   UNL     1       0.760  -2.738   0.238  0.00  0.00    -0.249 N 
ATOM     22  H   UNL     1      -0.026  -3.304   0.286  0.00  0.00    +0.158 HD
BRANCH  21  23
ATOM     23  C   UNL     1       0.626  -1.347   0.312  0.00  0.00    +0.037 A 
ATOM     24  C   UNL     1       1.501  -0.526  -0.388  0.00  0.00    +0.024 A 
ATOM     25  C   UNL     1       1.366   0.847  -0.313  0.00  0.00    +0.014 A 
ATOM     26  C   UNL     1       0.361   1.403   0.458  0.00  0.00    +0.055 A 
ATOM     27  C   UNL     1      -0.511   0.588   1.155  0.00  0.00    +0.014 A 
ATOM     28  C   UNL     1      -0.382  -0.785   1.085  0.00  0.00    +0.024 A 
BRANCH  26  29
ATOM     29  C   UNL     1       0.217   2.901   0.537  0.00  0.00    +0.417 C 
ATOM     30  F   UNL     1      -0.638   3.342  -0.479  0.00  0.00    -0.166 F 
ATOM     31  F   UNL     1      -0.317   3.253   1.781  0.00  0.00    -0.166 F 
ATOM     32  F   UNL     1       1.472   3.499   0.382  0.00  0.00    -0.166 F 
ENDBRANCH  26  29
ENDBRANCH  21  23
ENDBRANCH  18  19
ENDBRANCH   2  18
TORSDOF 7
