REMARK  Name = ZINC29617240
REMARK  10 active torsions:
REMARK  status: ('A' for Active; 'I' for Inactive)
REMARK    1  A    between atoms: C_1  and  C_2
REMARK    2  A    between atoms: C_5  and  N_9
REMARK    3  A    between atoms: C_6  and  C_8
REMARK    4  A    between atoms: C_13  and  C_15
REMARK    5  A    between atoms: C_15  and  C_17
REMARK    6  A    between atoms: C_15  and  S_18
REMARK    7  A    between atoms: S_18  and  C_19
REMARK    8  A    between atoms: C_21  and  C_28
REMARK    9  A    between atoms: C_22  and  C_24
REMARK   10  A    between atoms: C_24  and  C_25
REMARK                            x       y       z     vdW  Elec       q    Type
REMARK                         _______ _______ _______ _____ _____    ______ ____
ROOT
ATOM      1  N   UNL     1       0.064  -1.238   4.648  0.00  0.00    -0.269 N 
ATOM      2  C   UNL     1       0.722  -1.097   3.480  0.00  0.00    +0.310 C 
ATOM      3  O   UNL     1       1.907  -1.362   3.415  0.00  0.00    -0.252 OA
ATOM      4  N   UNL     1       0.067  -0.663   2.385  0.00  0.00    -0.239 N 
ATOM      5  C   UNL     1       0.726  -0.522   1.218  0.00  0.00    +0.233 C 
ATOM      6  O   UNL     1       1.907  -0.786   1.152  0.00  0.00    -0.274 OA
ATOM      7  H   UNL     1      -0.983  -0.911   4.732  0.00  0.00    +0.156 HD
ATOM      8  H   UNL     1      -1.005  -0.423   2.445  0.00  0.00    +0.159 HD
ENDROOT
BRANCH   1  13
ATOM      9  C   UNL     1       2.694  -3.513   9.130  0.00  0.00    +0.044 C 
ATOM     10  C   UNL     1       1.995  -2.909   7.940  0.00  0.00    -0.050 A 
ATOM     11  C   UNL     1       2.426  -3.211   6.660  0.00  0.00    +0.005 A 
ATOM     12  C   UNL     1       1.788  -2.659   5.567  0.00  0.00    +0.024 A 
ATOM     13  C   UNL     1       0.713  -1.799   5.753  0.00  0.00    +0.038 A 
ATOM     14  C   UNL     1       0.286  -1.494   7.039  0.00  0.00    -0.029 A 
ATOM     15  C   UNL     1       0.925  -2.054   8.128  0.00  0.00    +0.008 A 
ATOM     16  C   UNL     1      -0.876  -0.558   7.246  0.00  0.00    +0.045 C 
ENDBRANCH   1  13
BRANCH   5  17
ATOM     17  C   UNL     1      -0.007  -0.036  -0.006  0.00  0.00    +0.136 C 
ATOM     18  C   UNL     1      -0.038   1.494  -0.008  0.00  0.00    +0.029 C 
BRANCH  17  19
ATOM     19  S   UNL     1       0.844  -0.624  -1.492  0.00  0.00    -0.086 S 
BRANCH  19  20
ATOM     20  C   UNL     1      -0.275  -0.059  -2.729  0.00  0.00    +0.136 A 
ATOM     21  N   UNL     1      -1.407   0.604  -2.584  0.00  0.00    -0.238 NA
ATOM     22  C   UNL     1      -2.132   0.955  -3.629  0.00  0.00    +0.050 A 
ATOM     23  C   UNL     1      -1.689   0.619  -4.864  0.00  0.00    +0.022 A 
ATOM     24  S   UNL     1      -0.169  -0.225  -4.455  0.00  0.00    -0.065 S 
ATOM     25  C   UNL     1      -3.424   1.712  -3.453  0.00  0.00    +0.066 C 
BRANCH  23  26
ATOM     26  C   UNL     1      -2.306   0.888  -6.213  0.00  0.00    +0.139 C 
BRANCH  26  27
ATOM     27  C   UNL     1      -1.802   2.206  -6.742  0.00  0.00    +0.215 C 
ATOM     28  O   UNL     1      -1.019   2.862  -6.088  0.00  0.00    -0.276 OA
ATOM     29  N   UNL     1      -2.221   2.656  -7.941  0.00  0.00    -0.329 N 
ATOM     30  H   UNL     1      -1.853   3.618  -8.327  0.00  0.00    +0.145 HD
ATOM     31  H   UNL     1      -2.932   2.061  -8.534  0.00  0.00    +0.145 HD
ENDBRANCH  26  27
ENDBRANCH  23  26
ENDBRANCH  19  20
ENDBRANCH  17  19
ENDBRANCH   5  17
TORSDOF 6
