REMARK  Name = ZINC40705778
REMARK  12 active torsions:
REMARK  status: ('A' for Active; 'I' for Inactive)
REMARK    1  A    between atoms: C_1  and  C_2
REMARK    2  A    between atoms: C_5  and  S_8
REMARK    3  A    between atoms: S_8  and  C_9
REMARK    4  A    between atoms: C_10  and  N_30
REMARK    5  A    between atoms: C_11  and  N_15
REMARK    6  A    between atoms: N_15  and  C_16
REMARK    7  A    between atoms: C_18  and  C_26
REMARK    8  A    between atoms: C_20  and  C_22
REMARK    9  A    between atoms: C_22  and  O_24
REMARK   10  A    between atoms: O_24  and  C_25
REMARK   11  A    between atoms: C_26  and  O_28
REMARK   12  A    between atoms: O_28  and  C_29
REMARK                            x       y       z     vdW  Elec       q    Type
REMARK                         _______ _______ _______ _____ _____    ______ ____
ROOT
ATOM      1  C   UNL     1       0.535  -4.932   1.680  0.00  0.00    +0.127 A 
ATOM      2  C   UNL     1       0.541  -6.277   2.060  0.00  0.00    +0.098 A 
ATOM      3  C   UNL     1       0.670  -6.578   3.416  0.00  0.00    +0.148 A 
ATOM      4  N   UNL     1       0.783  -5.580   4.291  0.00  0.00    -0.219 NA
ATOM      5  C   UNL     1       0.773  -4.325   3.891  0.00  0.00    +0.224 A 
ATOM      6  N   UNL     1       0.658  -3.997   2.620  0.00  0.00    -0.227 NA
ENDROOT
BRANCH   2   7
ATOM      7  N   UNL     1       0.419  -7.296   1.103  0.00  0.00    -0.353 N 
ATOM      8  H   UNL     1       0.329  -7.072   0.164  0.00  0.00    +0.142 HD
ATOM      9  H   UNL     1       0.424  -8.226   1.381  0.00  0.00    +0.142 HD
ENDBRANCH   2   7
BRANCH   3  10
ATOM     10  N   UNL     1       0.681  -7.900   3.848  0.00  0.00    -0.298 N 
ATOM     11  H   UNL     1       0.675  -8.622   3.200  0.00  0.00    +0.154 HD
BRANCH  10  12
ATOM     12  C   UNL     1       0.700  -8.188   5.216  0.00  0.00    +0.034 A 
ATOM     13  C   UNL     1       0.060  -7.343   6.111  0.00  0.00    +0.038 A 
ATOM     14  C   UNL     1       0.077  -7.628   7.478  0.00  0.00    +0.062 A 
ATOM     15  C   UNL     1       0.738  -8.763   7.943  0.00  0.00    +0.030 A 
ATOM     16  C   UNL     1       1.380  -9.610   7.042  0.00  0.00    +0.062 A 
ATOM     17  C   UNL     1       1.355  -9.322   5.676  0.00  0.00    +0.038 A 
BRANCH  16  18
ATOM     18  C   UNL     1       2.083 -10.815   7.530  0.00  0.00    +0.339 C 
ATOM     19  O   UNL     1       2.642 -11.552   6.744  0.00  0.00    -0.245 OA
BRANCH  18  20
ATOM     20  O   UNL     1       2.103 -11.095   8.848  0.00  0.00    -0.464 OA
ATOM     21  C   UNL     1       2.800 -12.275   9.250  0.00  0.00    +0.280 C 
ENDBRANCH  18  20
ENDBRANCH  16  18
BRANCH  14  22
ATOM     22  C   UNL     1      -0.605  -6.726   8.430  0.00  0.00    +0.339 C 
ATOM     23  O   UNL     1      -1.181  -5.737   8.024  0.00  0.00    -0.245 OA
BRANCH  22  24
ATOM     24  O   UNL     1      -0.588  -7.002   9.748  0.00  0.00    -0.464 OA
ATOM     25  C   UNL     1      -1.267  -6.088  10.611  0.00  0.00    +0.280 C 
ENDBRANCH  22  24
ENDBRANCH  14  22
ENDBRANCH  10  12
ENDBRANCH   3  10
BRANCH   1  26
ATOM     26  S   UNL     1       0.376  -4.482  -0.016  0.00  0.00    -0.068 S 
BRANCH  26  31
ATOM     27  C   UNL     1       1.055   1.516  -0.004  0.00  0.00    +0.044 C 
ATOM     28  C   UNL     1       0.886   0.019  -0.007  0.00  0.00    -0.050 A 
ATOM     29  C   UNL     1       1.998  -0.802  -0.055  0.00  0.00    +0.004 A 
ATOM     30  C   UNL     1       1.847  -2.174  -0.057  0.00  0.00    +0.015 A 
ATOM     31  C   UNL     1       0.574  -2.731  -0.012  0.00  0.00    +0.014 A 
ATOM     32  C   UNL     1      -0.541  -1.904   0.036  0.00  0.00    +0.015 A 
ATOM     33  C   UNL     1      -0.382  -0.532   0.044  0.00  0.00    +0.004 A 
ENDBRANCH  26  31
ENDBRANCH   1  26
TORSDOF 9
