REMARK  Name = ZINC65532038
REMARK  6 active torsions:
REMARK  status: ('A' for Active; 'I' for Inactive)
REMARK    1  A    between atoms: C_1  and  C_2
REMARK    2  A    between atoms: C_5  and  C_8
REMARK    3  A    between atoms: C_9  and  C_24
REMARK    4  A    between atoms: N_14  and  C_15
REMARK    5  A    between atoms: C_15  and  C_17
REMARK    6  A    between atoms: C_15  and  C_18
REMARK                            x       y       z     vdW  Elec       q    Type
REMARK                         _______ _______ _______ _____ _____    ______ ____
ROOT
ATOM      1  C   UNL     1       0.061  -4.254  -0.021  0.00  0.00    +0.084 A 
ATOM      2  C   UNL     1       0.766  -4.966   0.968  0.00  0.00    +0.028 A 
ATOM      3  C   UNL     1       0.751  -6.361   0.913  0.00  0.00    +0.125 A 
ATOM      4  N   UNL     1       0.082  -6.960  -0.057  0.00  0.00    -0.222 NA
ATOM      5  C   UNL     1      -0.572  -6.258  -0.973  0.00  0.00    +0.216 A 
ATOM      6  N   UNL     1      -0.592  -4.934  -0.960  0.00  0.00    -0.214 NA
ATOM      7  N   UNL     1      -1.259  -6.930  -1.969  0.00  0.00    -0.305 N 
ATOM      8  H   UNL     1      -1.742  -6.431  -2.646  0.00  0.00    +0.150 HD
ENDROOT
BRANCH   2   9
ATOM      9  C   UNL     1       1.504  -4.255   2.038  0.00  0.00    +0.004 A 
ATOM     10  C   UNL     1       1.327  -4.611   3.380  0.00  0.00    +0.013 A 
ATOM     11  C   UNL     1       2.036  -3.920   4.342  0.00  0.00    +0.044 A 
ATOM     12  C   UNL     1       2.898  -2.899   3.949  0.00  0.00    +0.116 A 
ATOM     13  N   UNL     1       3.043  -2.587   2.670  0.00  0.00    -0.240 NA
ATOM     14  C   UNL     1       2.388  -3.227   1.721  0.00  0.00    +0.121 A 
ATOM     15  N   UNL     1       3.616  -2.199   4.911  0.00  0.00    -0.343 N 
ATOM     16  H   UNL     1       3.514  -2.422   5.849  0.00  0.00    +0.144 HD
ATOM     17  H   UNL     1       4.218  -1.487   4.644  0.00  0.00    +0.144 HD
ENDBRANCH   2   9
BRANCH   1  22
ATOM     18  C   UNL     1      -0.018   1.503   0.010  0.00  0.00    +0.044 C 
ATOM     19  C   UNL     1       0.002  -0.004   0.002  0.00  0.00    -0.050 A 
ATOM     20  C   UNL     1       0.006  -0.686  -1.201  0.00  0.00    +0.004 A 
ATOM     21  C   UNL     1       0.025  -2.066  -1.215  0.00  0.00    +0.010 A 
ATOM     22  C   UNL     1       0.041  -2.773  -0.013  0.00  0.00    +0.001 A 
ATOM     23  C   UNL     1       0.037  -2.079   1.197  0.00  0.00    +0.010 A 
ATOM     24  C   UNL     1       0.023  -0.699   1.198  0.00  0.00    +0.004 A 
ENDBRANCH   1  22
BRANCH   7  25
ATOM     25  C   UNL     1      -1.256  -8.394  -2.001  0.00  0.00    +0.119 C 
ATOM     26  C   UNL     1      -0.007  -8.886  -2.734  0.00  0.00    +0.034 C 
BRANCH  25  27
ATOM     27  C   UNL     1      -2.486  -8.883  -2.721  0.00  0.00    +0.064 A 
ATOM     28  C   UNL     1      -3.001 -10.143  -2.458  0.00  0.00    +0.045 A 
ATOM     29  C   UNL     1      -4.133 -10.550  -3.145  0.00  0.00    +0.114 A 
ATOM     30  N   UNL     1      -4.683  -9.727  -4.024  0.00  0.00    -0.244 NA
ATOM     31  C   UNL     1      -4.166  -8.536  -4.249  0.00  0.00    +0.221 A 
ATOM     32  N   UNL     1      -3.093  -8.114  -3.610  0.00  0.00    -0.238 NA
ENDBRANCH  25  27
ENDBRANCH   7  25
TORSDOF 4
