REMARK  Name = ZINC35415366
REMARK  3 active torsions:
REMARK  status: ('A' for Active; 'I' for Inactive)
REMARK    1  A    between atoms: C_4  and  C_17
REMARK    2  A    between atoms: C_5  and  C_7
REMARK    3  A    between atoms: C_7  and  N_8
REMARK                            x       y       z     vdW  Elec       q    Type
REMARK                         _______ _______ _______ _____ _____    ______ ____
ROOT
ATOM      1  C   UNL     1       1.222  -2.188  -0.022  0.00  0.00    -0.042 C 
ENDROOT
BRANCH   1   2
ATOM      2  N   UNL     1       1.483  -2.682   1.337  0.00  0.00    +0.385 N 
ATOM      3  C   UNL     1       1.650  -4.141   1.296  0.00  0.00    -0.073 C 
ATOM      4  C   UNL     1       2.243  -4.611   2.636  0.00  0.00    +0.024 C 
ATOM      5  C   UNL     1       1.462  -3.956   3.728  0.00  0.00    -0.011 A 
ATOM      6  C   UNL     1       0.594  -2.914   3.590  0.00  0.00    -0.054 A 
ATOM      7  C   UNL     1      -0.030  -2.467   4.752  0.00  0.00    +0.009 A 
ATOM      8  C   UNL     1       0.241  -3.061   5.938  0.00  0.00    +0.045 A 
ATOM      9  S   UNL     1       1.422  -4.315   5.461  0.00  0.00    -0.101 S 
ATOM     10  C   UNL     1       0.362  -2.309   2.209  0.00  0.00    -0.042 C 
ATOM     11  H   UNL     1       2.330  -2.261   1.687  0.00  0.00    -0.081 HD
ENDBRANCH   1   2
BRANCH   1  16
ATOM     12  C   UNL     1      -0.017   1.379   0.010  0.00  0.00    +0.000 A 
ATOM     13  C   UNL     1       1.168   2.094   0.002  0.00  0.00    +0.001 A 
ATOM     14  C   UNL     1       2.377   1.431  -0.013  0.00  0.00    +0.015 A 
ATOM     15  C   UNL     1       2.404   0.034  -0.021  0.00  0.00    +0.065 A 
ATOM     16  C   UNL     1       1.204  -0.681  -0.013  0.00  0.00    -0.050 A 
ATOM     17  C   UNL     1       0.002  -0.004   0.002  0.00  0.00    +0.002 A 
BRANCH  15  18
ATOM     18  C   UNL     1       3.694  -0.682  -0.038  0.00  0.00    +0.387 C 
ATOM     19  O   UNL     1       4.743  -0.054  -0.046  0.00  0.00    -0.241 OA
ATOM     20  O   UNL     1       3.714  -1.905  -0.045  0.00  0.00    -0.241 OA
ENDBRANCH  15  18
ENDBRANCH   1  16
TORSDOF 3
