REMARK  Name = ZINC37803780
REMARK  9 active torsions:
REMARK  status: ('A' for Active; 'I' for Inactive)
REMARK    1  A    between atoms: C_1  and  C_2
REMARK    2  A    between atoms: C_2  and  C_3
REMARK    3  A    between atoms: C_3  and  C_4
REMARK    4  A    between atoms: C_4  and  C_5
REMARK    5  A    between atoms: C_4  and  C_6
REMARK    6  A    between atoms: C_4  and  N_22
REMARK    7  A    between atoms: N_8  and  C_9
REMARK    8  A    between atoms: N_8  and  C_10
REMARK    9  A    between atoms: C_10  and  C_11
REMARK                            x       y       z     vdW  Elec       q    Type
REMARK                         _______ _______ _______ _____ _____    ______ ____
ROOT
ATOM      1  C   UNL     1       1.101  -2.769   2.513  0.00  0.00    +0.204 C 
ATOM      2  O   UNL     1       1.935  -2.288   3.251  0.00  0.00    -0.277 OA
ATOM      3  N   UNL     1       0.758  -4.066   2.638  0.00  0.00    -0.298 N 
ATOM      4  C   UNL     1      -0.150  -4.681   1.667  0.00  0.00    +0.132 C 
ENDROOT
BRANCH   1   5
ATOM      5  C   UNL     1       0.449  -1.916   1.455  0.00  0.00    +0.004 C 
ATOM      6  C   UNL     1       0.678  -2.545   0.080  0.00  0.00    -0.001 C 
BRANCH   5   7
ATOM      7  N   UNL     1      -0.993  -1.827   1.719  0.00  0.00    +0.387 N 
ATOM      8  H   UNL     1      -1.469  -1.512   0.886  0.00  0.00    -0.089 HD
ATOM      9  H   UNL     1      -1.344  -2.735   1.983  0.00  0.00    -0.089 HD
ATOM     10  H   UNL     1      -1.159  -1.171   2.468  0.00  0.00    -0.089 HD
ENDBRANCH   5   7
BRANCH   5  11
ATOM     11  C   UNL     1       1.060  -0.513   1.482  0.00  0.00    -0.004 C 
BRANCH  11  13
ATOM     12  C   UNL     1       0.925   1.790   0.523  0.00  0.00    +0.004 C 
ATOM     13  C   UNL     1       0.314   0.387   0.496  0.00  0.00    -0.004 C 
ENDBRANCH  11  13
ENDBRANCH   5  11
ENDBRANCH   1   5
BRANCH   3  14
ATOM     14  C   UNL     1       1.294  -4.861   3.746  0.00  0.00    +0.181 C 
BRANCH  14  15
ATOM     15  C   UNL     1       0.367  -4.763   4.930  0.00  0.00    +0.128 A 
ATOM     16  N   UNL     1       0.696  -5.432   6.066  0.00  0.00    -0.309 N 
ATOM     17  H   UNL     1       1.510  -5.958   6.106  0.00  0.00    +0.170 HD
ATOM     18  C   UNL     1      -0.123  -5.357   7.142  0.00  0.00    +0.266 A 
ATOM     19  O   UNL     1       0.144  -5.946   8.176  0.00  0.00    -0.267 OA
ATOM     20  C   UNL     1      -1.282  -4.587   7.034  0.00  0.00    +0.102 A 
ATOM     21  C   UNL     1      -1.599  -3.904   5.847  0.00  0.00    +0.085 A 
ATOM     22  N   UNL     1      -0.701  -4.040   4.816  0.00  0.00    -0.232 NA
ATOM     23  C   UNL     1      -2.791  -3.168   5.874  0.00  0.00    +0.036 A 
ATOM     24  C   UNL     1      -3.551  -3.146   6.991  0.00  0.00    +0.048 A 
ATOM     25  S   UNL     1      -2.628  -4.183   8.114  0.00  0.00    -0.090 S 
ENDBRANCH  14  15
ENDBRANCH   3  14
TORSDOF 6
