REMARK  Name = ZINC12346067
REMARK  4 active torsions:
REMARK  status: ('A' for Active; 'I' for Inactive)
REMARK    1  A    between atoms: C_1  and  C_2
REMARK    2  A    between atoms: C_7  and  C_8
REMARK    3  A    between atoms: N_13  and  C_16
REMARK    4  A    between atoms: C_16  and  C_17
REMARK                            x       y       z     vdW  Elec       q    Type
REMARK                         _______ _______ _______ _____ _____    ______ ____
ROOT
ATOM      1  C   UNL     1      -3.164   1.637  -4.358  0.00  0.00    +0.142 C 
ATOM      2  C   UNL     1      -1.992   2.072  -3.501  0.00  0.00    +0.058 C 
ATOM      3  C   UNL     1      -1.326   3.185  -3.869  0.00  0.00    +0.039 C 
ATOM      4  C   UNL     1      -0.225   3.378  -2.851  0.00  0.00    +0.159 C 
ATOM      5  N   UNL     1      -0.378   2.257  -1.912  0.00  0.00    -0.288 N 
ATOM      6  C   UNL     1      -1.419   1.520  -2.338  0.00  0.00    +0.247 C 
ATOM      7  O   UNL     1      -1.817   0.509  -1.788  0.00  0.00    -0.270 OA
ATOM      8  N   UNL     1      -1.694   3.897  -4.975  0.00  0.00    -0.271 N 
ATOM      9  C   UNL     1      -2.719   3.559  -5.767  0.00  0.00    +0.304 C 
ATOM     10  O   UNL     1      -2.972   4.254  -6.731  0.00  0.00    -0.252 OA
ATOM     11  N   UNL     1      -3.480   2.472  -5.529  0.00  0.00    -0.288 N 
ATOM     12  H   UNL     1      -1.184   4.691  -5.199  0.00  0.00    +0.156 HD
ATOM     13  H   UNL     1      -4.219   2.246  -6.115  0.00  0.00    +0.151 HD
ENDROOT
BRANCH   1  20
ATOM     14  C   UNL     1      -5.328   0.005  -5.359  0.00  0.00    +0.044 C 
ATOM     15  C   UNL     1      -3.925  -0.543  -5.324  0.00  0.00    -0.045 A 
ATOM     16  C   UNL     1      -3.672  -1.825  -5.775  0.00  0.00    +0.004 A 
ATOM     17  C   UNL     1      -2.386  -2.329  -5.739  0.00  0.00    +0.000 A 
ATOM     18  C   UNL     1      -1.351  -1.550  -5.255  0.00  0.00    +0.000 A 
ATOM     19  C   UNL     1      -1.603  -0.267  -4.808  0.00  0.00    +0.006 A 
ATOM     20  C   UNL     1      -2.890   0.238  -4.845  0.00  0.00    -0.020 A 
ENDBRANCH   1  20
BRANCH   5  21
ATOM     21  C   UNL     1       0.454   1.989  -0.736  0.00  0.00    +0.143 C 
BRANCH  21  22
ATOM     22  C   UNL     1      -0.136   2.684   0.465  0.00  0.00    -0.030 A 
ATOM     23  C   UNL     1       0.253   3.973   0.777  0.00  0.00    +0.008 A 
ATOM     24  C   UNL     1      -0.291   4.613   1.874  0.00  0.00    +0.038 A 
ATOM     25  C   UNL     1      -1.218   3.959   2.667  0.00  0.00    +0.123 A 
ATOM     26  C   UNL     1      -1.603   2.666   2.357  0.00  0.00    +0.038 A 
ATOM     27  C   UNL     1      -1.061   2.029   1.256  0.00  0.00    +0.008 A 
ATOM     28  F   UNL     1      -1.746   4.582   3.743  0.00  0.00    -0.205 F 
ENDBRANCH  21  22
ENDBRANCH   5  21
TORSDOF 3
