REMARK  Name = ZINC28604293
REMARK  4 active torsions:
REMARK  status: ('A' for Active; 'I' for Inactive)
REMARK    1  A    between atoms: C_4  and  S_7
REMARK    2  A    between atoms: S_7  and  N_10
REMARK    3  A    between atoms: C_18  and  C_19
REMARK    4  A    between atoms: C_19  and  O_26
REMARK                            x       y       z     vdW  Elec       q    Type
REMARK                         _______ _______ _______ _____ _____    ______ ____
ROOT
ATOM      1  N   UNL     1       2.378   3.430  -0.699  0.00  0.00    -0.212 N 
ATOM      2  C   UNL     1       1.112   3.087  -0.300  0.00  0.00    +0.075 A 
ATOM      3  C   UNL     1      -0.160   3.612  -0.516  0.00  0.00    +0.045 A 
ATOM      4  C   UNL     1      -1.238   2.995   0.054  0.00  0.00    +0.084 A 
ATOM      5  N   UNL     1      -1.102   1.911   0.801  0.00  0.00    -0.366 N 
ATOM      6  C   UNL     1       0.073   1.370   1.047  0.00  0.00    +0.092 A 
ATOM      7  C   UNL     1       1.226   1.934   0.505  0.00  0.00    +0.018 A 
ATOM      8  C   UNL     1       2.654   1.617   0.554  0.00  0.00    +0.038 A 
ATOM      9  C   UNL     1       3.286   2.545  -0.183  0.00  0.00    +0.083 A 
ATOM     10  H   UNL     1      -1.990   1.432   1.241  0.00  0.00    +0.165 HD
ENDROOT
BRANCH   9  11
ATOM     11  C   UNL     1       4.775   2.603  -0.408  0.00  0.00    +0.145 C 
ATOM     12  C   UNL     1       5.068   2.166  -1.808  0.00  0.00    +0.021 C 
ATOM     13  C   UNL     1       5.567   0.976  -2.107  0.00  0.00    +0.050 C 
ATOM     14  C   UNL     1       5.868   0.025  -1.021  0.00  0.00    +0.179 C 
ATOM     15  O   UNL     1       6.038  -1.158  -1.249  0.00  0.00    -0.288 OA
ATOM     16  C   UNL     1       5.956   0.557   0.352  0.00  0.00    +0.050 C 
ATOM     17  C   UNL     1       5.452   1.754   0.621  0.00  0.00    +0.021 C 
BRANCH  11  18
ATOM     18  O   UNL     1       5.211   3.955  -0.248  0.00  0.00    -0.375 OA
ATOM     19  H   UNL     1       6.274   4.208  -0.373  0.00  0.00    +0.211 HD
ENDBRANCH  11  18
ENDBRANCH   9  11
BRANCH   1  20
ATOM     20  S   UNL     1       2.752   4.723  -1.663  0.00  0.00    +0.085 S 
ATOM     21  O   UNL     1       4.095   4.537  -2.089  0.00  0.00    -0.148 OA
ATOM     22  O   UNL     1       1.677   4.872  -2.579  0.00  0.00    -0.148 OA
BRANCH  20  26
ATOM     23  C   UNL     1       2.728   8.406   0.969  0.00  0.00    +0.000 A 
ATOM     24  C   UNL     1       3.894   7.683   0.803  0.00  0.00    +0.002 A 
ATOM     25  C   UNL     1       3.901   6.558  -0.000  0.00  0.00    +0.029 A 
ATOM     26  C   UNL     1       2.743   6.157  -0.638  0.00  0.00    +0.111 A 
ATOM     27  C   UNL     1       1.578   6.883  -0.477  0.00  0.00    +0.029 A 
ATOM     28  C   UNL     1       1.569   8.005   0.331  0.00  0.00    +0.002 A 
ENDBRANCH  20  26
ENDBRANCH   1  20
TORSDOF 4
