REMARK  Name = ZINC11690861
REMARK  16 active torsions:
REMARK  status: ('A' for Active; 'I' for Inactive)
REMARK    1  A    between atoms: C_1  and  C_2
REMARK    2  A    between atoms: C_2  and  O_3
REMARK    3  A    between atoms: O_3  and  C_4
REMARK    4  A    between atoms: C_4  and  C_5
REMARK    5  A    between atoms: C_5  and  C_6
REMARK    6  A    between atoms: C_6  and  N_7
REMARK    7  A    between atoms: C_11  and  C_26
REMARK    8  A    between atoms: N_13  and  C_14
REMARK    9  A    between atoms: C_14  and  C_16
REMARK   10  A    between atoms: C_19  and  C_22
REMARK   11  A    between atoms: C_22  and  C_23
REMARK   12  A    between atoms: C_22  and  C_24
REMARK   13  A    between atoms: C_22  and  C_25
REMARK   14  A    between atoms: C_26  and  O_28
REMARK   15  A    between atoms: O_28  and  C_29
REMARK   16  A    between atoms: C_29  and  C_30
REMARK                            x       y       z     vdW  Elec       q    Type
REMARK                         _______ _______ _______ _____ _____    ______ ____
ROOT
ATOM      1  N   UNL     1      -0.049   0.169  -0.006  0.00  0.00    -0.311 N 
ATOM      2  C   UNL     1       0.067   1.513   0.239  0.00  0.00    +0.150 A 
ATOM      3  C   UNL     1       1.338   2.135   0.176  0.00  0.00    +0.083 A 
ATOM      4  C   UNL     1       2.474   1.385  -0.136  0.00  0.00    +0.035 A 
ATOM      5  C   UNL     1       2.336   0.018  -0.383  0.00  0.00    +0.100 A 
ATOM      6  C   UNL     1       1.054  -0.580  -0.313  0.00  0.00    +0.142 A 
ATOM      7  N   UNL     1       0.921  -1.883  -0.547  0.00  0.00    -0.158 NA
ATOM      8  C   UNL     1       1.421   3.571   0.444  0.00  0.00    +0.268 A 
ATOM      9  O   UNL     1       2.488   4.157   0.404  0.00  0.00    -0.267 OA
ATOM     10  N   UNL     1       0.275   4.227   0.740  0.00  0.00    -0.268 N 
ATOM     11  C   UNL     1       0.324   5.565   0.994  0.00  0.00    +0.096 A 
ATOM     12  C   UNL     1      -0.800   6.255   1.293  0.00  0.00    +0.018 A 
ATOM     13  C   UNL     1      -2.035   5.594   1.343  0.00  0.00    +0.005 A 
ATOM     14  C   UNL     1      -2.094   4.256   1.090  0.00  0.00    +0.047 A 
ATOM     15  C   UNL     1      -0.914   3.553   0.781  0.00  0.00    +0.143 A 
ATOM     16  N   UNL     1      -0.995   2.244   0.542  0.00  0.00    -0.211 NA
ENDROOT
BRANCH   7  17
ATOM     17  C   UNL     1       1.920  -2.565  -1.116  0.00  0.00    +0.269 C 
ATOM     18  O   UNL     1       2.325  -2.246  -2.220  0.00  0.00    -0.268 OA
BRANCH  17  19
ATOM     19  C   UNL     1       2.535  -3.709  -0.403  0.00  0.00    +0.039 A 
ATOM     20  C   UNL     1       2.078  -4.073   0.863  0.00  0.00    +0.013 A 
ATOM     21  C   UNL     1       2.651  -5.144   1.519  0.00  0.00    +0.005 A 
ATOM     22  C   UNL     1       3.685  -5.847   0.928  0.00  0.00    -0.042 A 
ATOM     23  C   UNL     1       4.147  -5.487  -0.325  0.00  0.00    +0.005 A 
ATOM     24  C   UNL     1       3.578  -4.423  -0.994  0.00  0.00    +0.013 A 
BRANCH  22  25
ATOM     25  C   UNL     1       4.311  -7.011   1.653  0.00  0.00    -0.013 C 
ATOM     26  C   UNL     1       5.800  -6.735   1.871  0.00  0.00    +0.015 C 
ATOM     27  C   UNL     1       3.623  -7.199   3.006  0.00  0.00    +0.015 C 
ATOM     28  C   UNL     1       4.145  -8.281   0.816  0.00  0.00    +0.015 C 
ENDBRANCH  22  25
ENDBRANCH  17  19
ENDBRANCH   7  17
BRANCH   5  29
ATOM     29  C   UNL     1       3.514  -0.795  -0.712  0.00  0.00    +0.343 C 
ATOM     30  O   UNL     1       3.854  -1.699   0.026  0.00  0.00    -0.245 OA
BRANCH  29  31
ATOM     31  O   UNL     1       4.217  -0.539  -1.833  0.00  0.00    -0.461 OA
BRANCH  31  32
ATOM     32  C   UNL     1       5.369  -1.383  -2.096  0.00  0.00    +0.229 C 
ATOM     33  C   UNL     1       6.036  -0.945  -3.401  0.00  0.00    +0.048 C 
ENDBRANCH  31  32
ENDBRANCH  29  31
ENDBRANCH   5  29
BRANCH   1  34
ATOM     34  C   UNL     1      -1.365  -0.471   0.061  0.00  0.00    +0.127 C 
BRANCH  34  35
ATOM     35  C   UNL     1      -1.950  -0.288   1.463  0.00  0.00    +0.050 C 
BRANCH  35  36
ATOM     36  C   UNL     1      -3.263  -1.067   1.573  0.00  0.00    +0.161 C 
BRANCH  36  37
ATOM     37  O   UNL     1      -3.809  -0.896   2.882  0.00  0.00    -0.380 OA
BRANCH  37  39
ATOM     38  C   UNL     1      -5.533  -1.334   4.519  0.00  0.00    +0.034 C 
ATOM     39  C   UNL     1      -5.043  -1.586   3.091  0.00  0.00    +0.156 C 
ENDBRANCH  37  39
ENDBRANCH  36  37
ENDBRANCH  35  36
ENDBRANCH  34  35
ENDBRANCH   1  34
TORSDOF 11
