REMARK  Name = ZINC46773295
REMARK  9 active torsions:
REMARK  status: ('A' for Active; 'I' for Inactive)
REMARK    1  A    between atoms: C_1  and  C_2
REMARK    2  A    between atoms: C_2  and  C_3
REMARK    3  A    between atoms: C_2  and  N_4
REMARK    4  A    between atoms: C_5  and  C_7
REMARK    5  A    between atoms: N_9  and  N_10
REMARK    6  A    between atoms: C_11  and  C_13
REMARK    7  A    between atoms: C_16  and  C_19
REMARK    8  A    between atoms: C_19  and  N_20
REMARK    9  A    between atoms: C_21  and  C_23
REMARK                            x       y       z     vdW  Elec       q    Type
REMARK                         _______ _______ _______ _____ _____    ______ ____
ROOT
ATOM      1  C   UNL     1       6.765  -2.219  -4.837  0.00  0.00    +0.038 A 
ATOM      2  C   UNL     1       6.030  -2.550  -5.977  0.00  0.00    +0.013 A 
ATOM      3  C   UNL     1       6.682  -2.993  -7.109  0.00  0.00    +0.006 A 
ATOM      4  C   UNL     1       8.061  -3.111  -7.115  0.00  0.00    -0.030 A 
ATOM      5  C   UNL     1       8.795  -2.785  -5.989  0.00  0.00    +0.006 A 
ATOM      6  C   UNL     1       8.155  -2.334  -4.852  0.00  0.00    +0.013 A 
ENDROOT
BRANCH   1   8
ATOM      7  N   UNL     1       4.729  -1.631  -3.609  0.00  0.00    -0.230 N 
ATOM      8  C   UNL     1       6.073  -1.742  -3.620  0.00  0.00    +0.260 C 
ATOM      9  O   UNL     1       6.715  -1.449  -2.631  0.00  0.00    -0.269 OA
ATOM     10  H   UNL     1       4.217  -1.865  -4.399  0.00  0.00    +0.173 HD
BRANCH   7  13
ATOM     11  C   UNL     1       2.731  -1.069  -2.445  0.00  0.00    +0.315 C 
ATOM     12  O   UNL     1       2.089  -1.361  -3.433  0.00  0.00    -0.264 OA
ATOM     13  N   UNL     1       4.074  -1.179  -2.456  0.00  0.00    -0.226 N 
ATOM     14  H   UNL     1       4.586  -0.946  -1.667  0.00  0.00    +0.173 HD
BRANCH  11  16
ATOM     15  N   UNL     1       0.688  -0.476  -1.203  0.00  0.00    -0.305 N 
ATOM     16  C   UNL     1       2.031  -0.587  -1.215  0.00  0.00    +0.301 C 
ATOM     17  O   UNL     1       2.672  -0.295  -0.227  0.00  0.00    -0.265 OA
ATOM     18  H   UNL     1       0.175  -0.710  -1.993  0.00  0.00    +0.149 HD
BRANCH  15  20
ATOM     19  C   UNL     1      -0.019   1.526   0.010  0.00  0.00    +0.027 C 
ATOM     20  C   UNL     1       0.002  -0.004   0.002  0.00  0.00    +0.067 C 
ATOM     21  C   UNL     1      -1.433  -0.534   0.013  0.00  0.00    +0.027 C 
ENDBRANCH  15  20
ENDBRANCH  11  16
ENDBRANCH   7  13
ENDBRANCH   1   8
BRANCH   4  22
ATOM     22  C   UNL     1       8.766  -3.597  -8.355  0.00  0.00    +0.139 C 
BRANCH  22  23
ATOM     23  N   UNL     1       9.104  -2.453  -9.205  0.00  0.00    -0.311 N 
ATOM     24  C   UNL     1       9.743  -2.648 -10.376  0.00  0.00    +0.219 C 
ATOM     25  O   UNL     1      10.040  -3.771 -10.725  0.00  0.00    -0.275 OA
ATOM     26  H   UNL     1       8.867  -1.554  -8.926  0.00  0.00    +0.149 HD
BRANCH  24  27
ATOM     27  C   UNL     1      10.091  -1.471 -11.250  0.00  0.00    +0.048 C 
ATOM     28  C   UNL     1       8.809  -0.735 -11.647  0.00  0.00    +0.019 C 
ATOM     29  C   UNL     1       9.162   0.460 -12.535  0.00  0.00    -0.009 C 
ATOM     30  C   UNL     1       9.878  -0.033 -13.794  0.00  0.00    +0.007 C 
ATOM     31  C   UNL     1      11.159  -0.769 -13.396  0.00  0.00    -0.009 C 
ATOM     32  C   UNL     1      10.807  -1.964 -12.509  0.00  0.00    +0.019 C 
ATOM     33  C   UNL     1      12.077   0.184 -12.628  0.00  0.00    +0.007 C 
ATOM     34  C   UNL     1      11.361   0.678 -11.369  0.00  0.00    -0.009 C 
ATOM     35  C   UNL     1      10.079   1.413 -11.767  0.00  0.00    +0.007 C 
ATOM     36  C   UNL     1      11.008  -0.518 -10.482  0.00  0.00    +0.019 C 
ENDBRANCH  24  27
ENDBRANCH  22  23
ENDBRANCH   4  22
TORSDOF 7
