REMARK  Name = ZINC53733668
REMARK  4 active torsions:
REMARK  status: ('A' for Active; 'I' for Inactive)
REMARK    1  A    between atoms: C_1  and  C_2
REMARK    2  A    between atoms: C_2  and  C_4
REMARK    3  A    between atoms: C_2  and  N_16
REMARK    4  A    between atoms: N_19  and  C_20
REMARK                            x       y       z     vdW  Elec       q    Type
REMARK                         _______ _______ _______ _____ _____    ______ ____
ROOT
ATOM      1  N   UNL     1       0.707  -0.503   1.185  0.00  0.00    -0.293 N 
ATOM      2  C   UNL     1       0.050  -0.638   2.354  0.00  0.00    +0.304 C 
ATOM      3  O   UNL     1      -1.132  -0.361   2.423  0.00  0.00    -0.252 OA
ATOM      4  N   UNL     1       0.703  -1.080   3.447  0.00  0.00    -0.269 N 
ATOM      5  H   UNL     1       1.650  -0.724   1.131  0.00  0.00    +0.151 HD
ATOM      6  H   UNL     1       1.628  -1.363   3.378  0.00  0.00    +0.156 HD
ENDROOT
BRANCH   4   7
ATOM      7  C   UNL     1       0.048  -1.130   4.679  0.00  0.00    +0.042 A 
ATOM      8  C   UNL     1      -1.294  -1.439   4.742  0.00  0.00    +0.024 A 
ATOM      9  C   UNL     1      -1.956  -1.491   5.964  0.00  0.00    +0.002 A 
ATOM     10  C   UNL     1      -1.300  -1.240   7.131  0.00  0.00    +0.008 A 
ATOM     11  C   UNL     1       0.069  -0.922   7.111  0.00  0.00    -0.016 A 
ATOM     12  C   UNL     1       0.755  -0.872   5.873  0.00  0.00    +0.003 A 
ATOM     13  C   UNL     1       2.124  -0.559   5.855  0.00  0.00    +0.010 A 
ATOM     14  C   UNL     1       2.774  -0.316   7.026  0.00  0.00    +0.001 A 
ATOM     15  C   UNL     1       2.102  -0.371   8.245  0.00  0.00    +0.001 A 
ATOM     16  C   UNL     1       0.772  -0.658   8.299  0.00  0.00    +0.008 A 
ENDBRANCH   4   7
BRANCH   1  18
ATOM     17  C   UNL     1      -0.019   1.508  -0.003  0.00  0.00    +0.033 C 
ATOM     18  C   UNL     1      -0.003  -0.022  -0.002  0.00  0.00    +0.102 C 
BRANCH  18  19
ATOM     19  C   UNL     1       0.697  -0.517  -1.241  0.00  0.00    -0.025 A 
ATOM     20  C   UNL     1       2.081  -0.542  -1.288  0.00  0.00    +0.007 A 
ATOM     21  C   UNL     1       2.732  -0.994  -2.418  0.00  0.00    +0.028 A 
ATOM     22  C   UNL     1       1.996  -1.426  -3.512  0.00  0.00    +0.067 A 
ATOM     23  C   UNL     1       0.601  -1.401  -3.465  0.00  0.00    +0.067 A 
ATOM     24  C   UNL     1      -0.044  -0.951  -2.323  0.00  0.00    +0.033 A 
ATOM     25  N   UNL     1       0.149  -1.887  -4.690  0.00  0.00    -0.306 N 
ATOM     26  H   UNL     1      -0.780  -1.988  -4.952  0.00  0.00    +0.170 HD
ATOM     27  C   UNL     1       1.220  -2.193  -5.446  0.00  0.00    +0.325 A 
ATOM     28  O   UNL     1       1.174  -2.642  -6.576  0.00  0.00    -0.247 OA
ATOM     29  N   UNL     1       2.349  -1.926  -4.763  0.00  0.00    -0.306 N 
ATOM     30  H   UNL     1       3.253  -2.059  -5.088  0.00  0.00    +0.170 HD
ENDBRANCH  18  19
ENDBRANCH   1  18
TORSDOF 3
