REMARK  Name = ZINC15206481
REMARK  8 active torsions:
REMARK  status: ('A' for Active; 'I' for Inactive)
REMARK    1  A    between atoms: C_1  and  C_2
REMARK    2  A    between atoms: C_11  and  O_13
REMARK    3  A    between atoms: O_13  and  C_14
REMARK    4  A    between atoms: C_16  and  O_29
REMARK    5  A    between atoms: C_18  and  O_28
REMARK    6  A    between atoms: C_20  and  O_27
REMARK    7  A    between atoms: C_22  and  C_25
REMARK    8  A    between atoms: C_25  and  O_26
REMARK                            x       y       z     vdW  Elec       q    Type
REMARK                         _______ _______ _______ _____ _____    ______ ____
ROOT
ATOM      1  C   UNL     1      -6.942   2.219   0.090  0.00  0.00    +0.339 C 
ATOM      2  C   UNL     1      -8.373   2.749   0.215  0.00  0.00    +0.214 C 
ATOM      3  C   UNL     1      -9.092   1.997   1.339  0.00  0.00    +0.180 C 
ATOM      4  C   UNL     1      -9.053   0.495   1.039  0.00  0.00    +0.177 C 
ATOM      5  C   UNL     1      -7.596   0.052   0.883  0.00  0.00    +0.179 C 
ATOM      6  O   UNL     1      -6.977   0.812  -0.157  0.00  0.00    -0.331 OA
ENDROOT
BRANCH   4   7
ATOM      7  O   UNL     1      -9.765   0.231  -0.171  0.00  0.00    -0.386 OA
ATOM      8  H   UNL     1     -10.696   0.492  -0.145  0.00  0.00    +0.210 HD
ENDBRANCH   4   7
BRANCH   3   9
ATOM      9  O   UNL     1      -8.436   2.254   2.582  0.00  0.00    -0.386 OA
ATOM     10  H   UNL     1      -8.418   3.188   2.831  0.00  0.00    +0.210 HD
ENDBRANCH   3   9
BRANCH   2  11
ATOM     11  O   UNL     1      -8.339   4.145   0.518  0.00  0.00    -0.383 OA
ATOM     12  H   UNL     1      -7.893   4.683  -0.151  0.00  0.00    +0.210 HD
ENDBRANCH   2  11
BRANCH   1  13
ATOM     13  O   UNL     1      -6.233   2.472   1.305  0.00  0.00    -0.461 OA
BRANCH  13  24
ATOM     14  C   UNL     1      -0.013   1.086   0.008  0.00  0.00    +0.045 C 
ATOM     15  C   UNL     1      -0.718   1.572   1.248  0.00  0.00    -0.033 A 
ATOM     16  C   UNL     1      -0.030   1.807   2.395  0.00  0.00    +0.096 A 
ATOM     17  C   UNL     1      -0.713   2.262   3.542  0.00  0.00    +0.337 A 
ATOM     18  O   UNL     1      -0.083   2.470   4.564  0.00  0.00    -0.245 OA
ATOM     19  O   UNL     1      -2.038   2.473   3.536  0.00  0.00    -0.422 OA
ATOM     20  C   UNL     1      -2.781   2.258   2.429  0.00  0.00    +0.143 A 
ATOM     21  C   UNL     1      -2.163   1.809   1.247  0.00  0.00    +0.021 A 
ATOM     22  C   UNL     1      -2.930   1.580   0.099  0.00  0.00    +0.015 A 
ATOM     23  C   UNL     1      -4.276   1.804   0.127  0.00  0.00    +0.046 A 
ATOM     24  C   UNL     1      -4.893   2.254   1.293  0.00  0.00    +0.128 A 
ATOM     25  C   UNL     1      -4.149   2.481   2.440  0.00  0.00    +0.092 A 
ENDBRANCH  13  24
ENDBRANCH   1  13
BRANCH   5  26
ATOM     26  C   UNL     1      -7.551  -1.435   0.525  0.00  0.00    +0.190 C 
BRANCH  26  27
ATOM     27  O   UNL     1      -6.192  -1.877   0.493  0.00  0.00    -0.392 OA
ATOM     28  H   UNL     1      -6.088  -2.812   0.272  0.00  0.00    +0.210 HD
ENDBRANCH  26  27
ENDBRANCH   5  26
TORSDOF 7
