REMARK  Name = ZINC15274356
REMARK  5 active torsions:
REMARK  status: ('A' for Active; 'I' for Inactive)
REMARK    1  A    between atoms: C_1  and  C_2
REMARK    2  A    between atoms: C_7  and  O_24
REMARK    3  A    between atoms: C_15  and  O_23
REMARK    4  A    between atoms: C_17  and  O_22
REMARK    5  A    between atoms: O_24  and  C_25
REMARK                            x       y       z     vdW  Elec       q    Type
REMARK                         _______ _______ _______ _____ _____    ______ ____
ROOT
ATOM      1  C   UNL     1       2.259   1.226  -0.971  0.00  0.00    +0.052 C 
ATOM      2  C   UNL     1       1.416   2.056  -0.000  0.00  0.00    +0.174 C 
ATOM      3  C   UNL     1      -0.060   1.695  -0.171  0.00  0.00    +0.044 C 
ATOM      4  C   UNL     1      -0.201   0.180  -0.331  0.00  0.00    +0.006 C 
ATOM      5  C   UNL     1      -0.987  -0.387   0.852  0.00  0.00    +0.032 C 
ATOM      6  C   UNL     1      -1.189  -1.891   0.658  0.00  0.00    +0.125 C 
ATOM      7  C   UNL     1      -0.475  -2.650   1.779  0.00  0.00    +0.106 C 
ATOM      8  C   UNL     1       0.764  -1.895   2.185  0.00  0.00    +0.140 C 
ATOM      9  O   UNL     1       1.791  -2.044   1.569  0.00  0.00    -0.297 OA
ATOM     10  C   UNL     1       0.720  -0.954   3.361  0.00  0.00    +0.110 C 
ATOM     11  C   UNL     1       2.128  -0.592   3.766  0.00  0.00    -0.019 A 
ATOM     12  C   UNL     1       2.621  -1.014   4.977  0.00  0.00    +0.050 A 
ATOM     13  C   UNL     1       3.917  -0.688   5.363  0.00  0.00    +0.121 A 
ATOM     14  C   UNL     1       4.721   0.070   4.525  0.00  0.00    +0.091 A 
ATOM     15  C   UNL     1       4.240   0.501   3.304  0.00  0.00    +0.135 A 
ATOM     16  C   UNL     1       2.925   0.168   2.908  0.00  0.00    +0.104 A 
ATOM     17  C   UNL     1       2.442   0.627   1.613  0.00  0.00    +0.343 C 
ATOM     18  O   UNL     1       2.618  -0.117   0.668  0.00  0.00    -0.245 OA
ATOM     19  O   UNL     1       1.831   1.775   1.363  0.00  0.00    -0.458 OA
ENDROOT
BRANCH  15  20
ATOM     20  O   UNL     1       5.029   1.242   2.486  0.00  0.00    -0.506 OA
ATOM     21  H   UNL     1       5.558   0.719   1.869  0.00  0.00    +0.292 HD
ENDBRANCH  15  20
BRANCH  13  22
ATOM     22  O   UNL     1       4.394  -1.111   6.561  0.00  0.00    -0.507 OA
ATOM     23  H   UNL     1       4.832  -1.972   6.529  0.00  0.00    +0.292 HD
ENDBRANCH  13  22
BRANCH   6  24
ATOM     24  O   UNL     1      -2.585  -2.193   0.692  0.00  0.00    -0.379 OA
ATOM     25  C   UNL     1      -2.955  -3.322  -0.102  0.00  0.00    +0.194 C 
ENDBRANCH   6  24
TORSDOF 3
