REMARK  Name = ZINC40118613
REMARK  7 active torsions:
REMARK  status: ('A' for Active; 'I' for Inactive)
REMARK    1  A    between atoms: C_1  and  C_2
REMARK    2  A    between atoms: C_2  and  N_3
REMARK    3  A    between atoms: C_12  and  C_15
REMARK    4  A    between atoms: C_15  and  N_16
REMARK    5  A    between atoms: C_17  and  C_19
REMARK    6  A    between atoms: C_19  and  C_20
REMARK    7  A    between atoms: C_20  and  N_21
REMARK                            x       y       z     vdW  Elec       q    Type
REMARK                         _______ _______ _______ _____ _____    ______ ____
ROOT
ATOM      1  N   UNL     1      -5.833  -6.051  -5.079  0.00  0.00    -0.311 N 
ATOM      2  C   UNL     1      -6.356  -6.947  -5.939  0.00  0.00    +0.215 C 
ATOM      3  O   UNL     1      -7.503  -7.318  -5.806  0.00  0.00    -0.276 OA
ATOM      4  H   UNL     1      -4.915  -5.755  -5.186  0.00  0.00    +0.149 HD
ENDROOT
BRANCH   1   5
ATOM      5  C   UNL     1      -6.650  -5.524  -3.983  0.00  0.00    +0.141 C 
BRANCH   5  15
ATOM      6  N   UNL     1      -1.338  -0.648   0.123  0.00  0.00    +0.382 N 
ATOM      7  C   UNL     1      -1.825  -0.324  -1.224  0.00  0.00    -0.060 C 
ATOM      8  C   UNL     1      -3.331  -0.598  -1.300  0.00  0.00    +0.088 C 
ATOM      9  N   UNL     1      -3.574  -1.988  -0.884  0.00  0.00    -0.319 N 
ATOM     10  C   UNL     1      -2.980  -2.447   0.381  0.00  0.00    +0.088 C 
ATOM     11  C   UNL     1      -1.491  -2.085   0.378  0.00  0.00    -0.060 C 
ATOM     12  C   UNL     1      -4.342  -2.845  -1.665  0.00  0.00    +0.121 A 
ATOM     13  C   UNL     1      -5.068  -2.335  -2.736  0.00  0.00    +0.044 A 
ATOM     14  C   UNL     1      -5.828  -3.198  -3.505  0.00  0.00    +0.010 A 
ATOM     15  C   UNL     1      -5.836  -4.547  -3.174  0.00  0.00    -0.012 A 
ATOM     16  C   UNL     1      -5.092  -4.984  -2.098  0.00  0.00    +0.118 A 
ATOM     17  N   UNL     1      -4.371  -4.138  -1.385  0.00  0.00    -0.240 NA
ATOM     18  H   UNL     1      -1.870  -0.128   0.804  0.00  0.00    -0.082 HD
BRANCH   6  20
ATOM     19  C   UNL     1       0.229   1.234   0.086  0.00  0.00    -0.017 C 
ATOM     20  C   UNL     1       0.081  -0.282   0.229  0.00  0.00    -0.082 C 
ENDBRANCH   6  20
ENDBRANCH   5  15
ENDBRANCH   1   5
BRANCH   2  21
ATOM     21  C   UNL     1      -5.515  -7.490  -7.066  0.00  0.00    +0.119 C 
BRANCH  21  22
ATOM     22  C   UNL     1      -6.341  -8.482  -7.887  0.00  0.00    +0.158 C 
BRANCH  22  23
ATOM     23  N   UNL     1      -5.524  -9.009  -8.983  0.00  0.00    -0.210 N 
ATOM     24  C   UNL     1      -4.788 -10.130  -8.798  0.00  0.00    +0.278 A 
ATOM     25  O   UNL     1      -4.789 -10.719  -7.733  0.00  0.00    -0.265 OA
ATOM     26  C   UNL     1      -3.989 -10.609  -9.936  0.00  0.00    +0.068 A 
ATOM     27  C   UNL     1      -3.200 -11.754  -9.846  0.00  0.00    +0.015 A 
ATOM     28  C   UNL     1      -2.469 -12.164 -10.940  0.00  0.00    +0.001 A 
ATOM     29  C   UNL     1      -2.513 -11.445 -12.127  0.00  0.00    +0.002 A 
ATOM     30  C   UNL     1      -3.286 -10.312 -12.237  0.00  0.00    +0.030 A 
ATOM     31  C   UNL     1      -4.037  -9.876 -11.142  0.00  0.00    +0.100 A 
ATOM     32  N   UNL     1      -4.810  -8.764 -11.215  0.00  0.00    -0.131 NA
ATOM     33  N   UNL     1      -5.509  -8.357 -10.218  0.00  0.00    -0.062 NA
ENDBRANCH  22  23
ENDBRANCH  21  22
ENDBRANCH   2  21
TORSDOF 6
