REMARK  Name = ZINC66288116
REMARK  7 active torsions:
REMARK  status: ('A' for Active; 'I' for Inactive)
REMARK    1  A    between atoms: C_2  and  C_3
REMARK    2  A    between atoms: C_3  and  N_4
REMARK    3  A    between atoms: C_5  and  C_7
REMARK    4  A    between atoms: C_12  and  N_13
REMARK    5  A    between atoms: C_14  and  C_16
REMARK    6  A    between atoms: C_17  and  C_18
REMARK    7  A    between atoms: C_22  and  N_24
REMARK                            x       y       z     vdW  Elec       q    Type
REMARK                         _______ _______ _______ _____ _____    ______ ____
ROOT
ATOM      1  N   UNL     1       2.216   6.165  -0.172  0.00  0.00    -0.281 N 
ATOM      2  C   UNL     1       2.501   7.468  -0.363  0.00  0.00    +0.241 C 
ATOM      3  O   UNL     1       3.651   7.818  -0.557  0.00  0.00    -0.270 OA
ATOM      4  H   UNL     1       1.294   5.877  -0.093  0.00  0.00    +0.155 HD
ENDROOT
BRANCH   1  10
ATOM      5  C   UNL     1       3.069   3.939  -0.600  0.00  0.00    +0.058 A 
ATOM      6  C   UNL     1       4.113   3.014  -0.515  0.00  0.00    +0.015 A 
ATOM      7  C   UNL     1       5.305   3.376   0.075  0.00  0.00    +0.001 A 
ATOM      8  C   UNL     1       5.474   4.653   0.585  0.00  0.00    +0.002 A 
ATOM      9  C   UNL     1       4.452   5.577   0.508  0.00  0.00    +0.024 A 
ATOM     10  C   UNL     1       3.246   5.233  -0.088  0.00  0.00    +0.046 A 
BRANCH   5  12
ATOM     11  N   UNL     1       1.659   2.349  -1.810  0.00  0.00    -0.300 N 
ATOM     12  C   UNL     1       1.791   3.558  -1.230  0.00  0.00    +0.247 C 
ATOM     13  O   UNL     1       0.856   4.336  -1.227  0.00  0.00    -0.270 OA
ATOM     14  H   UNL     1       2.404   1.729  -1.813  0.00  0.00    +0.150 HD
BRANCH  11  15
ATOM     15  C   UNL     1       0.389   1.972  -2.436  0.00  0.00    +0.193 C 
BRANCH  15  17
ATOM     16  C   UNL     1       0.591  -0.469  -3.437  0.00  0.00    +0.005 C 
ATOM     17  C   UNL     1       0.501   0.614  -2.993  0.00  0.00    -0.087 C 
ENDBRANCH  15  17
ENDBRANCH  11  15
ENDBRANCH   5  12
ENDBRANCH   1  10
BRANCH   2  18
ATOM     18  C   UNL     1       1.429   8.463  -0.336  0.00  0.00    +0.068 C 
ATOM     19  C   UNL     1       1.714   9.768  -0.527  0.00  0.00    +0.013 C 
BRANCH  19  20
ATOM     20  C   UNL     1       0.635  10.768  -0.500  0.00  0.00    -0.023 A 
ATOM     21  C   UNL     1      -0.686  10.371  -0.271  0.00  0.00    +0.009 A 
ATOM     22  C   UNL     1      -1.692  11.313  -0.246  0.00  0.00    +0.023 A 
ATOM     23  C   UNL     1      -1.396  12.652  -0.449  0.00  0.00    +0.071 A 
ATOM     24  C   UNL     1      -0.089  13.053  -0.676  0.00  0.00    +0.145 A 
ATOM     25  C   UNL     1       0.927  12.122  -0.697  0.00  0.00    +0.042 A 
ATOM     26 CL   UNL     1      -2.668  13.832  -0.417  0.00  0.00    -0.081 Cl
BRANCH  24  27
ATOM     27  N   UNL     1       0.217  14.485  -0.891  0.00  0.00    +0.058 N 
ATOM     28  O   UNL     1       1.357  14.836  -1.089  0.00  0.00    -0.126 OA
ATOM     29  O   UNL     1      -0.673  15.303  -0.868  0.00  0.00    -0.126 OA
ENDBRANCH  24  27
ENDBRANCH  19  20
ENDBRANCH   2  18
TORSDOF 7
