REMARK  Name = ZINC18259466
REMARK  6 active torsions:
REMARK  status: ('A' for Active; 'I' for Inactive)
REMARK    1  A    between atoms: C_1  and  C_2
REMARK    2  A    between atoms: C_2  and  C_4
REMARK    3  A    between atoms: C_2  and  O_16
REMARK    4  A    between atoms: O_16  and  C_17
REMARK    5  A    between atoms: C_17  and  C_19
REMARK    6  A    between atoms: C_24  and  N_25
REMARK                            x       y       z     vdW  Elec       q    Type
REMARK                         _______ _______ _______ _____ _____    ______ ____
ROOT
ATOM      1  C   UNL     1       2.304   1.335   0.466  0.00  0.00    +0.060 C 
ATOM      2  C   UNL     1       1.524   0.088   0.046  0.00  0.00    +0.239 C 
ENDROOT
BRANCH   2   3
ATOM      3  C   UNL     1       0.048   0.390   0.061  0.00  0.00    +0.151 A 
ATOM      4  N   UNL     1      -0.824  -0.651   0.023  0.00  0.00    -0.307 N 
ATOM      5  H   UNL     1      -0.486  -1.560  -0.013  0.00  0.00    +0.170 HD
ATOM      6  C   UNL     1      -2.160  -0.432   0.030  0.00  0.00    +0.259 A 
ATOM      7  O   UNL     1      -2.952  -1.356  -0.009  0.00  0.00    -0.267 OA
ATOM      8  C   UNL     1      -2.616   0.964   0.091  0.00  0.00    +0.065 A 
ATOM      9  C   UNL     1      -3.970   1.297   0.107  0.00  0.00    +0.015 A 
ATOM     10  C   UNL     1      -4.342   2.622   0.159  0.00  0.00    +0.001 A 
ATOM     11  C   UNL     1      -3.381   3.625   0.197  0.00  0.00    +0.002 A 
ATOM     12  C   UNL     1      -2.040   3.317   0.181  0.00  0.00    +0.028 A 
ATOM     13  C   UNL     1      -1.637   1.981   0.128  0.00  0.00    +0.078 A 
ATOM     14  N   UNL     1      -0.326   1.633   0.111  0.00  0.00    -0.230 NA
ENDBRANCH   2   3
BRANCH   2  15
ATOM     15  O   UNL     1       1.923  -0.305  -1.294  0.00  0.00    -0.450 OA
BRANCH  15  16
ATOM     16  C   UNL     1       2.955  -1.166  -1.397  0.00  0.00    +0.342 C 
ATOM     17  O   UNL     1       3.505  -1.577  -0.395  0.00  0.00    -0.245 OA
BRANCH  16  18
ATOM     18  C   UNL     1       3.415  -1.608  -2.725  0.00  0.00    +0.081 A 
ATOM     19  C   UNL     1       2.869  -1.045  -3.882  0.00  0.00    +0.032 A 
ATOM     20  C   UNL     1       3.304  -1.464  -5.121  0.00  0.00    +0.019 A 
ATOM     21  C   UNL     1       4.281  -2.442  -5.226  0.00  0.00    +0.017 A 
ATOM     22  C   UNL     1       4.829  -3.007  -4.094  0.00  0.00    +0.024 A 
ATOM     23  C   UNL     1       4.408  -2.594  -2.836  0.00  0.00    +0.039 A 
ATOM     24 BR   UNL     1       2.564  -0.700  -6.685  0.00  0.00    -0.050 Br
BRANCH  23  25
ATOM     25  N   UNL     1       4.963  -3.158  -1.694  0.00  0.00    -0.357 N 
ATOM     26  H   UNL     1       4.471  -3.143  -0.858  0.00  0.00    +0.142 HD
ATOM     27  H   UNL     1       5.842  -3.566  -1.733  0.00  0.00    +0.142 HD
ENDBRANCH  23  25
ENDBRANCH  16  18
ENDBRANCH  15  16
ENDBRANCH   2  15
TORSDOF 5
