REMARK  Name = ZINC55384936
REMARK  7 active torsions:
REMARK  status: ('A' for Active; 'I' for Inactive)
REMARK    1  A    between atoms: C_3  and  C_9
REMARK    2  A    between atoms: C_9  and  N_10
REMARK    3  A    between atoms: C_16  and  C_18
REMARK    4  A    between atoms: C_18  and  C_19
REMARK    5  A    between atoms: N_21  and  C_22
REMARK    6  A    between atoms: C_22  and  C_23
REMARK    7  A    between atoms: C_23  and  N_28
REMARK                            x       y       z     vdW  Elec       q    Type
REMARK                         _______ _______ _______ _____ _____    ______ ____
ROOT
ATOM      1  C   UNL     1       5.301   4.721   0.898  0.00  0.00    +0.124 C 
ENDROOT
BRANCH   1   8
ATOM      2  N   UNL     1       6.510   2.876  -0.162  0.00  0.00    -0.285 NA
ATOM      3  C   UNL     1       6.687   1.416  -0.221  0.00  0.00    +0.104 C 
ATOM      4  C   UNL     1       5.349   0.774  -0.591  0.00  0.00    +0.119 C 
ATOM      5  N   UNL     1       4.291   1.286   0.276  0.00  0.00    -0.313 N 
ATOM      6  C   UNL     1       4.415   2.412   0.986  0.00  0.00    +0.231 C 
ATOM      7  O   UNL     1       3.475   2.782   1.657  0.00  0.00    -0.274 OA
ATOM      8  C   UNL     1       5.670   3.239   0.986  0.00  0.00    +0.152 C 
ATOM      9  H   UNL     1       3.462   0.787   0.340  0.00  0.00    +0.149 HD
BRANCH   2  10
ATOM     10  C   UNL     1       7.808   3.561  -0.102  0.00  0.00    +0.123 C 
BRANCH  10  13
ATOM     11  C   UNL     1       8.944   4.486  -3.582  0.00  0.00    +0.003 A 
ATOM     12  C   UNL     1       8.333   4.543  -2.343  0.00  0.00    +0.008 A 
ATOM     13  C   UNL     1       8.474   3.496  -1.452  0.00  0.00    +0.005 A 
ATOM     14  C   UNL     1       9.226   2.388  -1.800  0.00  0.00    +0.163 A 
ATOM     15  C   UNL     1       9.839   2.330  -3.043  0.00  0.00    +0.159 A 
ATOM     16  C   UNL     1       9.696   3.380  -3.933  0.00  0.00    +0.041 A 
ATOM     17  F   UNL     1      10.574   1.249  -3.385  0.00  0.00    -0.202 F 
ATOM     18  F   UNL     1       9.365   1.364  -0.930  0.00  0.00    -0.202 F 
ENDBRANCH  10  13
ENDBRANCH   2  10
ENDBRANCH   1   8
BRANCH   1  19
ATOM     19  C   UNL     1       4.528   4.972  -0.372  0.00  0.00    +0.215 C 
ATOM     20  O   UNL     1       4.385   4.079  -1.180  0.00  0.00    -0.276 OA
ATOM     21  N   UNL     1       3.997   6.188  -0.608  0.00  0.00    -0.317 N 
ATOM     22  H   UNL     1       4.112   6.901   0.038  0.00  0.00    +0.149 HD
BRANCH  21  23
ATOM     23  C   UNL     1       3.246   6.431  -1.842  0.00  0.00    +0.092 C 
BRANCH  23  24
ATOM     24  C   UNL     1       2.862   7.910  -1.922  0.00  0.00    -0.050 C 
ATOM     25  C   UNL     1       1.926   8.277  -0.752  0.00  0.00    -0.010 C 
ATOM     26  C   UNL     1       0.922   9.281  -1.369  0.00  0.00    -0.001 C 
ATOM     27  C   UNL     1       0.688   8.703  -2.787  0.00  0.00    -0.001 C 
ATOM     28  C   UNL     1       2.075   8.181  -3.216  0.00  0.00    -0.010 C 
BRANCH  24  29
ATOM     29  N   UNL     1       4.069   8.746  -1.884  0.00  0.00    +0.384 N 
ATOM     30  C   UNL     1       3.683  10.162  -1.880  0.00  0.00    -0.078 C 
ATOM     31  C   UNL     1       4.933  11.036  -1.758  0.00  0.00    -0.019 C 
ATOM     32  C   UNL     1       5.859  10.761  -2.946  0.00  0.00    -0.004 C 
ATOM     33  C   UNL     1       6.196   9.268  -2.984  0.00  0.00    -0.019 C 
ATOM     34  C   UNL     1       4.899   8.459  -3.060  0.00  0.00    -0.078 C 
ATOM     35  H   UNL     1       4.593   8.540  -1.046  0.00  0.00    -0.081 HD
ENDBRANCH  24  29
ENDBRANCH  23  24
ENDBRANCH  21  23
ENDBRANCH   1  19
TORSDOF 7
