REMARK  Name = ZINC18180064
REMARK  2 active torsions:
REMARK  status: ('A' for Active; 'I' for Inactive)
REMARK    1  A    between atoms: C_4  and  C_7
REMARK    2  A    between atoms: N_15  and  C_18
REMARK                            x       y       z     vdW  Elec       q    Type
REMARK                         _______ _______ _______ _____ _____    ______ ____
ROOT
ATOM      1  C   UNL     1       3.711  -0.707  -0.038  0.00  0.00    +0.163 C 
ATOM      2  C   UNL     1       4.049  -1.209   1.355  0.00  0.00    +0.125 C 
ATOM      3  C   UNL     1       4.923  -2.455   0.926  0.00  0.00    +0.138 C 
ATOM      4  C   UNL     1       5.563  -2.791   2.174  0.00  0.00    +0.234 C 
ATOM      5  O   UNL     1       5.850  -3.895   2.583  0.00  0.00    -0.274 OA
ATOM      6  N   UNL     1       5.778  -1.586   2.798  0.00  0.00    -0.210 N 
ATOM      7  C   UNL     1       5.079  -0.544   2.212  0.00  0.00    +0.233 C 
ATOM      8  O   UNL     1       5.250   0.647   2.359  0.00  0.00    -0.274 OA
ATOM      9  C   UNL     1       4.066  -3.050  -0.107  0.00  0.00    +0.206 C 
ATOM     10  O   UNL     1       3.612  -1.893  -0.874  0.00  0.00    -0.348 OA
ATOM     11  C   UNL     1       4.775  -4.007  -1.029  0.00  0.00    +0.204 C 
ATOM     12  O   UNL     1       5.787  -3.784  -1.657  0.00  0.00    -0.288 OA
ATOM     13  C   UNL     1       4.006  -5.266  -1.023  0.00  0.00    +0.031 A 
ATOM     14  C   UNL     1       4.222  -6.468  -1.700  0.00  0.00    +0.012 A 
ATOM     15  C   UNL     1       3.348  -7.525  -1.531  0.00  0.00    +0.001 A 
ATOM     16  C   UNL     1       2.254  -7.402  -0.692  0.00  0.00    +0.001 A 
ATOM     17  C   UNL     1       2.021  -6.222  -0.014  0.00  0.00    +0.012 A 
ATOM     18  C   UNL     1       2.892  -5.141  -0.170  0.00  0.00    +0.031 A 
ATOM     19  C   UNL     1       2.869  -3.792   0.428  0.00  0.00    +0.204 C 
ATOM     20  O   UNL     1       2.043  -3.363   1.205  0.00  0.00    -0.288 OA
ENDROOT
BRANCH   6  21
ATOM     21  C   UNL     1       6.616  -1.426   3.912  0.00  0.00    +0.044 A 
ATOM     22  C   UNL     1       7.288  -2.520   4.439  0.00  0.00    +0.027 A 
ATOM     23  C   UNL     1       8.113  -2.360   5.535  0.00  0.00    +0.040 A 
ATOM     24  C   UNL     1       8.270  -1.109   6.109  0.00  0.00    +0.124 A 
ATOM     25  C   UNL     1       7.600  -0.017   5.584  0.00  0.00    +0.040 A 
ATOM     26  C   UNL     1       6.779  -0.172   4.484  0.00  0.00    +0.027 A 
ATOM     27  F   UNL     1       9.077  -0.955   7.181  0.00  0.00    -0.205 F 
ENDBRANCH   6  21
BRANCH   1  31
ATOM     28  C   UNL     1      -0.017   1.378   0.010  0.00  0.00    +0.000 A 
ATOM     29  C   UNL     1       1.171   2.086   0.002  0.00  0.00    +0.000 A 
ATOM     30  C   UNL     1       2.377   1.411  -0.013  0.00  0.00    +0.006 A 
ATOM     31  C   UNL     1       2.396   0.029  -0.020  0.00  0.00    -0.018 A 
ATOM     32  C   UNL     1       1.208  -0.679  -0.012  0.00  0.00    +0.006 A 
ATOM     33  C   UNL     1       0.002  -0.004   0.002  0.00  0.00    +0.000 A 
ENDBRANCH   1  31
TORSDOF 2
