REMARK  Name = ZINC66088028
REMARK  7 active torsions:
REMARK  status: ('A' for Active; 'I' for Inactive)
REMARK    1  A    between atoms: C_7  and  C_22
REMARK    2  A    between atoms: C_8  and  C_20
REMARK    3  A    between atoms: C_11  and  C_12
REMARK    4  A    between atoms: C_11  and  C_14
REMARK    5  A    between atoms: C_17  and  O_19
REMARK    6  A    between atoms: C_22  and  C_23
REMARK    7  A    between atoms: C_22  and  C_25
REMARK                            x       y       z     vdW  Elec       q    Type
REMARK                         _______ _______ _______ _____ _____    ______ ____
ROOT
ATOM      1  C   UNL     1      -0.017   1.377   0.010  0.00  0.00    +0.000 A 
ATOM      2  C   UNL     1       1.169   2.088   0.002  0.00  0.00    +0.002 A 
ATOM      3  C   UNL     1       2.375   1.416  -0.026  0.00  0.00    +0.023 A 
ATOM      4  C   UNL     1       2.408   0.034  -0.044  0.00  0.00    +0.034 A 
ATOM      5  C   UNL     1       1.196  -0.693  -0.012  0.00  0.00    -0.010 A 
ATOM      6  C   UNL     1       0.002  -0.004   0.002  0.00  0.00    +0.006 A 
ATOM      7  C   UNL     1       1.618  -2.090   0.029  0.00  0.00    +0.110 C 
ATOM      8  C   UNL     1       1.046  -3.349  -0.516  0.00  0.00    +0.156 C 
ATOM      9  C   UNL     1       2.308  -4.168  -0.834  0.00  0.00    +0.053 C 
ATOM     10  C   UNL     1       2.339  -5.463  -1.302  0.00  0.00    +0.146 C 
ATOM     11  N   UNL     1       3.413  -3.367  -0.566  0.00  0.00    -0.301 N 
ATOM     12  C   UNL     1       2.944  -2.008  -0.845  0.00  0.00    +0.216 C 
ATOM     13  N   UNL     1       3.508  -0.868  -0.109  0.00  0.00    -0.300 N 
ATOM     14  H   UNL     1       4.292  -3.645  -0.265  0.00  0.00    +0.150 HD
ATOM     15  H   UNL     1       4.405  -0.757   0.244  0.00  0.00    +0.150 HD
ENDROOT
BRANCH  10  16
ATOM     16  C   UNL     1       3.595  -6.103  -1.556  0.00  0.00    +0.112 C 
ATOM     17  N   UNL     1       4.591  -6.611  -1.757  0.00  0.00    -0.190 NA
ENDBRANCH  10  16
BRANCH  10  18
ATOM     18  C   UNL     1       1.116  -6.169  -1.535  0.00  0.00    +0.112 C 
ATOM     19  N   UNL     1       0.145  -6.730  -1.720  0.00  0.00    -0.190 NA
ENDBRANCH  10  18
BRANCH  12  20
ATOM     20  O   UNL     1       2.734  -1.756  -2.236  0.00  0.00    -0.356 OA
ATOM     21  H   UNL     1       3.549  -1.708  -2.755  0.00  0.00    +0.214 HD
ENDBRANCH  12  20
BRANCH   8  22
ATOM     22  C   UNL     1       0.216  -4.028   0.492  0.00  0.00    +0.073 C 
ATOM     23  N   UNL     1      -0.424  -4.552   1.271  0.00  0.00    -0.196 NA
ENDBRANCH   8  22
BRANCH   7  24
ATOM     24  C   UNL     1       2.092  -2.389   1.453  0.00  0.00    +0.211 C 
BRANCH  24  25
ATOM     25  C   UNL     1       0.979  -2.183   2.394  0.00  0.00    +0.082 C 
ATOM     26  N   UNL     1       0.120  -2.025   3.120  0.00  0.00    -0.195 NA
ENDBRANCH  24  25
BRANCH  24  27
ATOM     27  C   UNL     1       2.552  -3.785   1.533  0.00  0.00    +0.082 C 
ATOM     28  N   UNL     1       2.907  -4.862   1.596  0.00  0.00    -0.195 NA
ENDBRANCH  24  27
ENDBRANCH   7  24
TORSDOF 7
