REMARK  Name = ZINC61628678
REMARK  7 active torsions:
REMARK  status: ('A' for Active; 'I' for Inactive)
REMARK    1  A    between atoms: C_1  and  C_2
REMARK    2  A    between atoms: C_2  and  C_4
REMARK    3  A    between atoms: C_2  and  N_20
REMARK    4  A    between atoms: C_7  and  C_9
REMARK    5  A    between atoms: C_12  and  N_17
REMARK    6  A    between atoms: C_14  and  O_15
REMARK    7  A    between atoms: O_15  and  C_16
REMARK                            x       y       z     vdW  Elec       q    Type
REMARK                         _______ _______ _______ _____ _____    ______ ____
ROOT
ATOM      1  C   UNL     1       0.731  -0.503   1.223  0.00  0.00    +0.091 A 
ATOM      2  C   UNL     1       0.153  -0.963   2.349  0.00  0.00    +0.043 A 
ATOM      3  C   UNL     1       1.193  -1.324   3.230  0.00  0.00    +0.050 A 
ATOM      4  C   UNL     1       2.361  -1.060   2.585  0.00  0.00    +0.139 A 
ATOM      5  O   UNL     1       2.065  -0.569   1.366  0.00  0.00    -0.461 OA
ENDROOT
BRANCH   4   6
ATOM      6  C   UNL     1       3.718  -1.282   3.125  0.00  0.00    +0.059 A 
ATOM      7  C   UNL     1       4.055  -0.806   4.392  0.00  0.00    +0.017 A 
ATOM      8  C   UNL     1       5.324  -1.015   4.891  0.00  0.00    +0.033 A 
ATOM      9  C   UNL     1       6.266  -1.696   4.139  0.00  0.00    +0.130 A 
ATOM     10  C   UNL     1       5.943  -2.172   2.881  0.00  0.00    +0.079 A 
ATOM     11  C   UNL     1       4.672  -1.975   2.369  0.00  0.00    +0.133 A 
BRANCH   9  12
ATOM     12  N   UNL     1       7.625  -1.915   4.683  0.00  0.00    +0.057 N 
ATOM     13  O   UNL     1       7.910  -1.500   5.782  0.00  0.00    -0.126 OA
ATOM     14  O   UNL     1       8.449  -2.510   4.029  0.00  0.00    -0.126 OA
ENDBRANCH   9  12
BRANCH  11  15
ATOM     15  O   UNL     1       4.352  -2.448   1.136  0.00  0.00    -0.494 OA
ATOM     16  C   UNL     1       5.376  -3.145   0.424  0.00  0.00    +0.277 C 
ENDBRANCH  11  15
ENDBRANCH   4   6
BRANCH   1  18
ATOM     17  C   UNL     1      -0.019   1.526   0.010  0.00  0.00    -0.006 C 
ATOM     18  C   UNL     1       0.002  -0.004   0.002  0.00  0.00    -0.011 C 
BRANCH  18  19
ATOM     19  N   UNL     1       0.690  -0.478  -1.207  0.00  0.00    +0.384 N 
ATOM     20  H   UNL     1       0.202  -0.144  -2.024  0.00  0.00    -0.089 HD
ATOM     21  H   UNL     1       1.636  -0.129  -1.214  0.00  0.00    -0.089 HD
ATOM     22  H   UNL     1       0.703  -1.487  -1.212  0.00  0.00    -0.089 HD
ENDBRANCH  18  19
ENDBRANCH   1  18
TORSDOF 5
