REMARK  Name = ZINC59447168
REMARK  11 active torsions:
REMARK  status: ('A' for Active; 'I' for Inactive)
REMARK    1  A    between atoms: C_3  and  N_29
REMARK    2  A    between atoms: C_6  and  N_7
REMARK    3  A    between atoms: C_8  and  C_10
REMARK    4  A    between atoms: C_10  and  N_11
REMARK    5  A    between atoms: N_11  and  C_12
REMARK    6  A    between atoms: C_12  and  C_13
REMARK    7  A    between atoms: C_13  and  C_14
REMARK    8  A    between atoms: C_14  and  N_15
REMARK    9  A    between atoms: N_15  and  C_16
REMARK   10  A    between atoms: C_19  and  C_25
REMARK   11  A    between atoms: C_21  and  N_22
REMARK                            x       y       z     vdW  Elec       q    Type
REMARK                         _______ _______ _______ _____ _____    ______ ____
ROOT
ATOM      1  C   UNL     1      -3.484  -5.025  -0.158  0.00  0.00    -0.080 C 
ENDROOT
BRANCH   1   2
ATOM      2  N   UNL     1      -2.227  -4.283   0.003  0.00  0.00    +0.385 N 
ATOM      3  H   UNL     1      -1.646  -4.426  -0.809  0.00  0.00    -0.085 HD
ATOM      4  H   UNL     1      -1.743  -4.613   0.825  0.00  0.00    -0.085 HD
BRANCH   2   5
ATOM      5  C   UNL     1      -2.519  -2.851   0.150  0.00  0.00    +0.015 C 
BRANCH   5   7
ATOM      6  N   UNL     1      -1.253  -0.750   0.467  0.00  0.00    -0.287 N 
ATOM      7  C   UNL     1      -1.230  -2.089   0.315  0.00  0.00    +0.200 C 
ATOM      8  O   UNL     1      -0.171  -2.680   0.310  0.00  0.00    -0.278 OA
ATOM      9  H   UNL     1      -2.101  -0.285   0.546  0.00  0.00    +0.155 HD
BRANCH   6  15
ATOM     10  C   UNL     1       1.038  -0.451  -0.237  0.00  0.00    +0.025 A 
ATOM     11  C   UNL     1       2.220   0.263  -0.192  0.00  0.00    +0.034 A 
ATOM     12  C   UNL     1       2.317   1.395   0.596  0.00  0.00    +0.126 A 
ATOM     13  C   UNL     1       1.231   1.816   1.342  0.00  0.00    +0.034 A 
ATOM     14  C   UNL     1       0.047   1.107   1.302  0.00  0.00    +0.025 A 
ATOM     15  C   UNL     1      -0.054  -0.030   0.510  0.00  0.00    +0.033 A 
BRANCH  12  16
ATOM     16  N   UNL     1       3.585   2.156   0.641  0.00  0.00    +0.056 N 
ATOM     17  O   UNL     1       4.535   1.789  -0.010  0.00  0.00    -0.126 OA
ATOM     18  O   UNL     1       3.671   3.146   1.330  0.00  0.00    -0.126 OA
ENDBRANCH  12  16
ENDBRANCH   6  15
ENDBRANCH   5   7
ENDBRANCH   2   5
ENDBRANCH   1   2
BRANCH   1  19
ATOM     19  C   UNL     1      -3.179  -6.517  -0.311  0.00  0.00    -0.000 C 
BRANCH  19  20
ATOM     20  C   UNL     1      -4.489  -7.290  -0.478  0.00  0.00    +0.100 C 
BRANCH  20  21
ATOM     21  N   UNL     1      -4.197  -8.719  -0.624  0.00  0.00    -0.342 N 
ATOM     22  H   UNL     1      -3.278  -9.030  -0.605  0.00  0.00    +0.146 HD
BRANCH  21  23
ATOM     23  C   UNL     1      -5.241  -9.631  -0.792  0.00  0.00    +0.058 A 
ATOM     24  C   UNL     1      -6.549  -9.179  -0.909  0.00  0.00    +0.026 A 
ATOM     25  C   UNL     1      -7.579 -10.084  -1.074  0.00  0.00    +0.014 A 
ATOM     26  C   UNL     1      -7.309 -11.439  -1.124  0.00  0.00    +0.057 A 
ATOM     27  C   UNL     1      -6.008 -11.893  -1.007  0.00  0.00    +0.047 A 
ATOM     28  C   UNL     1      -4.973 -10.993  -0.847  0.00  0.00    +0.147 A 
BRANCH  26  29
ATOM     29  C   UNL     1      -8.435 -12.424  -1.305  0.00  0.00    +0.417 C 
ATOM     30  F   UNL     1      -9.648 -11.733  -1.398  0.00  0.00    -0.166 F 
ATOM     31  F   UNL     1      -8.227 -13.160  -2.476  0.00  0.00    -0.166 F 
ATOM     32  F   UNL     1      -8.476 -13.292  -0.209  0.00  0.00    -0.166 F 
ENDBRANCH  26  29
BRANCH  28  33
ATOM     33  N   UNL     1      -3.580 -11.479  -0.728  0.00  0.00    +0.058 N 
ATOM     34  O   UNL     1      -2.678 -10.861  -1.244  0.00  0.00    -0.126 OA
ATOM     35  O   UNL     1      -3.344 -12.495  -0.116  0.00  0.00    -0.126 OA
ENDBRANCH  28  33
ENDBRANCH  21  23
ENDBRANCH  20  21
ENDBRANCH  19  20
ENDBRANCH   1  19
TORSDOF 11
