REMARK  Name = ZINC52324862
REMARK  6 active torsions:
REMARK  status: ('A' for Active; 'I' for Inactive)
REMARK    1  A    between atoms: C_1  and  C_2
REMARK    2  A    between atoms: C_8  and  C_22
REMARK    3  A    between atoms: C_8  and  C_23
REMARK    4  A    between atoms: C_10  and  N_12
REMARK    5  A    between atoms: C_14  and  N_19
REMARK    6  A    between atoms: N_17  and  C_18
REMARK                            x       y       z     vdW  Elec       q    Type
REMARK                         _______ _______ _______ _____ _____    ______ ____
ROOT
ATOM      1  C   UNL     1      -2.062   2.041   1.092  0.00  0.00    +0.086 C 
ATOM      2  C   UNL     1      -1.550   0.632   0.941  0.00  0.00    +0.103 A 
ATOM      3  C   UNL     1      -2.300  -0.454   0.666  0.00  0.00    +0.050 A 
ATOM      4  C   UNL     1      -1.419  -1.549   0.616  0.00  0.00    +0.016 A 
ATOM      5  C   UNL     1      -0.181  -1.076   0.864  0.00  0.00    +0.111 A 
ATOM      6  O   UNL     1      -0.266   0.246   1.053  0.00  0.00    -0.464 OA
ATOM      7  C   UNL     1       1.057  -1.938   0.903  0.00  0.00    +0.081 C 
ATOM      8  C   UNL     1       0.624  -3.403   1.041  0.00  0.00    -0.026 C 
ATOM      9  C   UNL     1      -0.440  -3.723  -0.012  0.00  0.00    +0.036 C 
ATOM     10  C   UNL     1      -1.743  -2.995   0.341  0.00  0.00    +0.114 C 
ATOM     11  C   UNL     1       0.044  -3.633   2.438  0.00  0.00    +0.011 C 
ATOM     12  C   UNL     1       1.835  -4.314   0.836  0.00  0.00    +0.011 C 
ENDROOT
BRANCH  10  13
ATOM     13  N   UNL     1      -2.679  -3.086  -0.781  0.00  0.00    -0.366 N 
ATOM     14  C   UNL     1      -3.606  -3.987  -0.779  0.00  0.00    +0.128 C 
ATOM     15  C   UNL     1      -4.747  -4.148  -1.765  0.00  0.00    +0.346 C 
ATOM     16  N   UNL     1      -5.475  -5.327  -1.271  0.00  0.00    -0.237 NA
ATOM     17  C   UNL     1      -4.876  -5.757  -0.218  0.00  0.00    +0.186 C 
ATOM     18  N   UNL     1      -3.775  -5.021   0.117  0.00  0.00    -0.281 N 
ATOM     19  C   UNL     1      -2.903  -5.288   1.264  0.00  0.00    +0.137 C 
ATOM     20  H   UNL     1      -2.604  -2.470  -1.527  0.00  0.00    +0.161 HD
BRANCH  15  21
ATOM     21  N   UNL     1      -4.231  -4.390  -3.114  0.00  0.00    +0.055 N 
ATOM     22  O   UNL     1      -4.281  -5.500  -3.591  0.00  0.00    -0.129 OA
ATOM     23  O   UNL     1      -3.754  -3.480  -3.751  0.00  0.00    -0.129 OA
ENDBRANCH  15  21
ENDBRANCH  10  13
TORSDOF 2
