REMARK  Name = ZINC52010909
REMARK  6 active torsions:
REMARK  status: ('A' for Active; 'I' for Inactive)
REMARK    1  A    between atoms: C_4  and  S_9
REMARK    2  A    between atoms: C_5  and  N_7
REMARK    3  A    between atoms: N_7  and  N_8
REMARK    4  A    between atoms: S_9  and  N_12
REMARK    5  A    between atoms: N_12  and  C_13
REMARK    6  A    between atoms: C_19  and  O_21
REMARK                            x       y       z     vdW  Elec       q    Type
REMARK                         _______ _______ _______ _____ _____    ______ ____
ROOT
ATOM      1  S   UNL     1       3.898  -0.791  -0.002  0.00  0.00    +0.061 S 
ATOM      2  O   UNL     1       3.830  -1.816  -0.983  0.00  0.00    -0.153 OA
ATOM      3  O   UNL     1       4.835   0.275  -0.077  0.00  0.00    -0.153 OA
ENDROOT
BRANCH   1   7
ATOM      4  C   UNL     1      -0.213   1.106   0.178  0.00  0.00    +0.002 A 
ATOM      5  C   UNL     1       0.046   0.093  -0.727  0.00  0.00    +0.002 A 
ATOM      6  C   UNL     1       1.301  -0.486  -0.781  0.00  0.00    +0.030 A 
ATOM      7  C   UNL     1       2.300  -0.053   0.068  0.00  0.00    +0.127 A 
ATOM      8  C   UNL     1       2.044   0.965   0.978  0.00  0.00    +0.067 A 
ATOM      9  C   UNL     1       0.782   1.544   1.030  0.00  0.00    +0.026 A 
BRANCH   8  10
ATOM     10  N   UNL     1       3.052   1.405   1.838  0.00  0.00    -0.281 N 
ATOM     11  H   UNL     1       3.951   1.052   1.753  0.00  0.00    +0.166 HD
BRANCH  10  12
ATOM     12  N   UNL     1       2.772   2.334   2.800  0.00  0.00    -0.256 NA
ATOM     13  H   UNL     1       2.019   2.023   3.395  0.00  0.00    +0.140 HD
ATOM     14  H   UNL     1       3.594   2.553   3.342  0.00  0.00    +0.140 HD
ENDBRANCH  10  12
ENDBRANCH   8  10
ENDBRANCH   1   7
BRANCH   1  15
ATOM     15  N   UNL     1       4.154  -1.543   1.451  0.00  0.00    -0.184 NA
ATOM     16  H   UNL     1       4.858  -1.232   2.042  0.00  0.00    +0.148 HD
BRANCH  15  17
ATOM     17  C   UNL     1       3.317  -2.679   1.845  0.00  0.00    +0.105 C 
ATOM     18  C   UNL     1       2.189  -2.191   2.756  0.00  0.00    +0.023 C 
ATOM     19  C   UNL     1       2.788  -1.541   4.005  0.00  0.00    +0.002 C 
ATOM     20  C   UNL     1       3.640  -2.567   4.755  0.00  0.00    +0.003 C 
ATOM     21  C   UNL     1       4.768  -3.056   3.844  0.00  0.00    +0.033 C 
ATOM     22  C   UNL     1       4.170  -3.705   2.595  0.00  0.00    +0.133 C 
BRANCH  22  23
ATOM     23  O   UNL     1       5.223  -4.162   1.744  0.00  0.00    -0.390 OA
ATOM     24  H   UNL     1       5.805  -4.816   2.155  0.00  0.00    +0.210 HD
ENDBRANCH  22  23
ENDBRANCH  15  17
ENDBRANCH   1  15
TORSDOF 6
