REMARK  Name = ZINC45789435
REMARK  11 active torsions:
REMARK  status: ('A' for Active; 'I' for Inactive)
REMARK    1  A    between atoms: C_1  and  C_2
REMARK    2  A    between atoms: N_7  and  C_9
REMARK    3  A    between atoms: C_9  and  C_10
REMARK    4  A    between atoms: C_15  and  C_16
REMARK    5  A    between atoms: C_16  and  N_17
REMARK    6  A    between atoms: N_20  and  N_21
REMARK    7  A    between atoms: C_22  and  O_24
REMARK    8  A    between atoms: O_24  and  C_25
REMARK    9  A    between atoms: C_25  and  C_26
REMARK   10  A    between atoms: C_25  and  C_27
REMARK   11  A    between atoms: C_25  and  C_28
REMARK                            x       y       z     vdW  Elec       q    Type
REMARK                         _______ _______ _______ _____ _____    ______ ____
ROOT
ATOM      1  C   UNL     1       3.511  -3.651   0.652  0.00  0.00    +0.141 C 
ENDROOT
BRANCH   1   7
ATOM      2  C   UNL     1       1.666  -3.960   2.315  0.00  0.00    -0.059 A 
ATOM      3  C   UNL     1       0.837  -4.766   3.073  0.00  0.00    +0.002 A 
ATOM      4  C   UNL     1       0.959  -6.141   3.004  0.00  0.00    +0.000 A 
ATOM      5  C   UNL     1       1.909  -6.711   2.177  0.00  0.00    +0.000 A 
ATOM      6  C   UNL     1       2.736  -5.905   1.418  0.00  0.00    +0.005 A 
ATOM      7  C   UNL     1       2.612  -4.530   1.484  0.00  0.00    -0.029 A 
BRANCH   2   8
ATOM      8  C   UNL     1       1.534  -2.461   2.390  0.00  0.00    -0.043 C 
BRANCH   8  14
ATOM      9  C   UNL     1      -0.019   1.526   0.010  0.00  0.00    +0.005 C 
ATOM     10  C   UNL     1       0.002  -0.004   0.002  0.00  0.00    -0.031 C 
ATOM     11  C   UNL     1      -1.434  -0.535   0.015  0.00  0.00    -0.001 C 
ATOM     12  C   UNL     1      -1.402  -2.064   0.086  0.00  0.00    -0.018 C 
ATOM     13  C   UNL     1      -0.613  -2.496   1.324  0.00  0.00    -0.078 C 
ATOM     14  N   UNL     1       0.758  -1.980   1.239  0.00  0.00    +0.383 N 
ATOM     15  C   UNL     1       0.740  -0.512   1.242  0.00  0.00    -0.075 C 
ATOM     16  H   UNL     1       1.188  -2.307   0.386  0.00  0.00    -0.081 HD
ENDBRANCH   8  14
ENDBRANCH   2   8
ENDBRANCH   1   7
BRANCH   1  17
ATOM     17  N   UNL     1       4.603  -3.142   1.486  0.00  0.00    -0.294 N 
ATOM     18  C   UNL     1       5.536  -2.330   0.952  0.00  0.00    +0.316 C 
ATOM     19  O   UNL     1       5.472  -2.019  -0.222  0.00  0.00    -0.251 OA
ATOM     20  N   UNL     1       6.541  -1.862   1.719  0.00  0.00    -0.216 N 
ATOM     21  H   UNL     1       4.654  -3.390   2.423  0.00  0.00    +0.151 HD
ATOM     22  H   UNL     1       7.213  -1.277   1.334  0.00  0.00    +0.174 HD
BRANCH  20  23
ATOM     23  N   UNL     1       6.615  -2.220   3.071  0.00  0.00    -0.198 N 
ATOM     24  C   UNL     1       7.620  -1.751   3.838  0.00  0.00    +0.417 C 
ATOM     25  O   UNL     1       7.684  -2.062   5.011  0.00  0.00    -0.225 OA
ATOM     26  H   UNL     1       5.943  -2.804   3.456  0.00  0.00    +0.176 HD
BRANCH  24  27
ATOM     27  O   UNL     1       8.552  -0.940   3.305  0.00  0.00    -0.444 OA
BRANCH  27  28
ATOM     28  C   UNL     1       9.588  -0.481   4.176  0.00  0.00    +0.107 C 
ATOM     29  C   UNL     1      10.357  -1.682   4.730  0.00  0.00    +0.055 C 
ATOM     30  C   UNL     1      10.546   0.423   3.397  0.00  0.00    +0.055 C 
ATOM     31  C   UNL     1       8.970   0.307   5.332  0.00  0.00    +0.055 C 
ENDBRANCH  27  28
ENDBRANCH  24  27
ENDBRANCH  20  23
ENDBRANCH   1  17
TORSDOF 7
