REMARK  Name = ZINC19724107
REMARK  5 active torsions:
REMARK  status: ('A' for Active; 'I' for Inactive)
REMARK    1  A    between atoms: C_1  and  O_2
REMARK    2  A    between atoms: O_2  and  C_3
REMARK    3  A    between atoms: C_8  and  N_9
REMARK    4  A    between atoms: C_11  and  C_17
REMARK    5  A    between atoms: C_17  and  N_18
REMARK                            x       y       z     vdW  Elec       q    Type
REMARK                         _______ _______ _______ _____ _____    ______ ____
ROOT
ATOM      1  N   UNL     1      -0.709   1.565  -1.194  0.00  0.00    -0.224 N 
ATOM      2  C   UNL     1      -0.013   1.086   0.008  0.00  0.00    +0.106 C 
ATOM      3  C   UNL     1      -0.712   1.571   1.276  0.00  0.00    -0.096 C 
ATOM      4  N   UNL     1      -1.547   2.744   0.966  0.00  0.00    +0.481 NA
ATOM      5  S   UNL     1      -1.976   2.497  -0.632  0.00  0.00    -0.011 S 
ATOM      6  O   UNL     1      -1.903   3.755  -1.290  0.00  0.00    -0.177 OA
ATOM      7  O   UNL     1      -3.139   1.680  -0.638  0.00  0.00    -0.177 OA
ENDROOT
BRANCH   1  13
ATOM      8  C   UNL     1       0.404   2.198  -3.248  0.00  0.00    +0.142 A 
ATOM      9  C   UNL     1       0.732   1.925  -4.566  0.00  0.00    +0.047 A 
ATOM     10  C   UNL     1       0.272   0.768  -5.168  0.00  0.00    +0.004 A 
ATOM     11  C   UNL     1      -0.510  -0.122  -4.456  0.00  0.00    +0.002 A 
ATOM     12  C   UNL     1      -0.837   0.140  -3.139  0.00  0.00    +0.028 A 
ATOM     13  C   UNL     1      -0.379   1.298  -2.528  0.00  0.00    +0.090 A 
BRANCH   8  15
ATOM     14  C   UNL     1       1.649   4.214  -3.455  0.00  0.00    +0.277 C 
ATOM     15  O   UNL     1       0.851   3.338  -2.656  0.00  0.00    -0.493 OA
ENDBRANCH   8  15
ENDBRANCH   1  13
BRANCH   3  16
ATOM     16  C   UNL     1      -1.593   0.450   1.832  0.00  0.00    -0.106 C 
BRANCH  16  17
ATOM     17  N   UNL     1      -2.357   0.952   2.982  0.00  0.00    +0.377 N 
ATOM     18  H   UNL     1      -2.990   0.146   3.381  0.00  0.00    -0.090 HD
ATOM     19  H   UNL     1      -2.991   1.792   2.662  0.00  0.00    -0.090 HD
ATOM     20  H   UNL     1      -1.662   1.294   3.763  0.00  0.00    -0.090 HD
ENDBRANCH  16  17
ENDBRANCH   3  16
TORSDOF 4
