REMARK  Name = ZINC08652569
REMARK  8 active torsions:
REMARK  status: ('A' for Active; 'I' for Inactive)
REMARK    1  A    between atoms: C_1  and  O_2
REMARK    2  A    between atoms: O_2  and  C_3
REMARK    3  A    between atoms: C_14  and  S_17
REMARK    4  A    between atoms: S_17  and  C_18
REMARK    5  A    between atoms: C_18  and  C_20
REMARK    6  A    between atoms: C_18  and  C_23
REMARK    7  A    between atoms: C_20  and  C_21
REMARK    8  A    between atoms: C_23  and  C_25
REMARK                            x       y       z     vdW  Elec       q    Type
REMARK                         _______ _______ _______ _____ _____    ______ ____
ROOT
ATOM      1  C   UNL     1       2.443  -3.348  -0.377  0.00  0.00    +0.224 A 
ATOM      2  C   UNL     1       2.242  -4.003  -1.613  0.00  0.00    +0.046 A 
ATOM      3  C   UNL     1       3.095  -5.021  -2.057  0.00  0.00    +0.014 A 
ATOM      4  C   UNL     1       2.860  -5.622  -3.257  0.00  0.00    +0.001 A 
ATOM      5  C   UNL     1       1.781  -5.240  -4.051  0.00  0.00    +0.001 A 
ATOM      6  C   UNL     1       0.930  -4.253  -3.650  0.00  0.00    +0.011 A 
ATOM      7  C   UNL     1       1.144  -3.614  -2.422  0.00  0.00    +0.014 A 
ATOM      8  C   UNL     1       0.303  -2.587  -1.951  0.00  0.00    +0.094 A 
ATOM      9  C   UNL     1       0.578  -1.996  -0.717  0.00  0.00    +0.183 A 
ATOM     10  N   UNL     1       1.628  -2.396   0.016  0.00  0.00    -0.191 NA
ATOM     11  N   UNL     1      -0.375  -1.051  -0.509  0.00  0.00    -0.202 NA
ATOM     12  C   UNL     1      -1.204  -1.027  -1.525  0.00  0.00    +0.170 A 
ATOM     13  N   UNL     1      -0.830  -1.965  -2.443  0.00  0.00    -0.331 N 
ATOM     14  H   UNL     1      -1.289  -2.165  -3.308  0.00  0.00    +0.168 HD
ENDROOT
BRANCH   1  16
ATOM     15  C   UNL     1       3.636  -3.006   1.648  0.00  0.00    +0.279 C 
ATOM     16  O   UNL     1       3.486  -3.706   0.411  0.00  0.00    -0.479 OA
ENDBRANCH   1  16
BRANCH  12  17
ATOM     17  S   UNL     1      -2.593   0.046  -1.678  0.00  0.00    -0.076 S 
BRANCH  17  18
ATOM     18  C   UNL     1      -2.549   0.850  -0.057  0.00  0.00    +0.136 C 
BRANCH  18  19
ATOM     19  C   UNL     1      -2.872  -0.160   1.014  0.00  0.00    +0.177 C 
ATOM     20  O   UNL     1      -3.530  -1.141   0.743  0.00  0.00    -0.291 OA
BRANCH  19  21
ATOM     21  C   UNL     1      -2.389   0.045   2.388  0.00  0.00    +0.019 A 
ATOM     22  C   UNL     1      -1.625   1.174   2.704  0.00  0.00    +0.013 A 
ATOM     23  C   UNL     1      -1.180   1.362   3.994  0.00  0.00    +0.020 A 
ATOM     24  C   UNL     1      -1.479   0.431   4.976  0.00  0.00    +0.041 A 
ATOM     25  C   UNL     1      -2.231  -0.691   4.670  0.00  0.00    +0.020 A 
ATOM     26  C   UNL     1      -2.687  -0.890   3.385  0.00  0.00    +0.013 A 
ATOM     27 CL   UNL     1      -0.909   0.674   6.598  0.00  0.00    -0.084 Cl
ENDBRANCH  19  21
ENDBRANCH  18  19
BRANCH  18  28
ATOM     28  C   UNL     1      -3.579   1.980  -0.020  0.00  0.00    +0.147 C 
BRANCH  28  29
ATOM     29  C   UNL     1      -3.177   3.058  -0.993  0.00  0.00    +0.357 C 
ATOM     30  O   UNL     1      -2.120   2.985  -1.573  0.00  0.00    -0.246 OA
ATOM     31  O   UNL     1      -3.997   4.097  -1.220  0.00  0.00    -0.246 OA
ENDBRANCH  28  29
ENDBRANCH  18  28
ENDBRANCH  17  18
ENDBRANCH  12  17
TORSDOF 7
