REMARK  Name = ZINC04237007
REMARK  12 active torsions:
REMARK  status: ('A' for Active; 'I' for Inactive)
REMARK    1  A    between atoms: C_1  and  C_2
REMARK    2  A    between atoms: C_5  and  O_38
REMARK    3  A    between atoms: C_7  and  C_35
REMARK    4  A    between atoms: C_7  and  C_36
REMARK    5  A    between atoms: C_17  and  O_19
REMARK    6  A    between atoms: O_19  and  C_20
REMARK    7  A    between atoms: C_20  and  C_21
REMARK    8  A    between atoms: C_23  and  C_25
REMARK    9  A    between atoms: C_25  and  C_26
REMARK   10  A    between atoms: N_28  and  C_29
REMARK   11  A    between atoms: C_29  and  C_30
REMARK   12  A    between atoms: C_36  and  O_37
REMARK                            x       y       z     vdW  Elec       q    Type
REMARK                         _______ _______ _______ _____ _____    ______ ____
ROOT
ATOM      1  C   UNL     1      -1.081   3.182  -6.027  0.00  0.00    +0.012 C 
ATOM      2  C   UNL     1      -0.677   1.706  -6.026  0.00  0.00    -0.019 C 
ATOM      3  C   UNL     1      -1.913   0.827  -5.812  0.00  0.00    +0.010 C 
ATOM      4  C   UNL     1      -2.899   1.005  -6.966  0.00  0.00    +0.032 C 
ATOM      5  C   UNL     1      -2.214   0.583  -8.269  0.00  0.00    +0.123 C 
ATOM      6  C   UNL     1      -1.009   1.490  -8.507  0.00  0.00    +0.021 C 
ATOM      7  C   UNL     1      -0.006   1.357  -7.357  0.00  0.00    +0.011 C 
ATOM      8  C   UNL     1       1.130   2.364  -7.624  0.00  0.00    +0.049 C 
ATOM      9  C   UNL     1       1.938   2.523  -6.385  0.00  0.00    +0.015 A 
ATOM     10  C   UNL     1       1.613   2.131  -5.126  0.00  0.00    +0.058 A 
ATOM     11  N   UNL     1       2.514   2.393  -4.182  0.00  0.00    -0.229 NA
ATOM     12  C   UNL     1       3.655   2.995  -4.449  0.00  0.00    +0.167 A 
ATOM     13  S   UNL     1       3.537   3.256  -6.164  0.00  0.00    -0.057 S 
ATOM     14  N   UNL     1       4.688   3.334  -3.583  0.00  0.00    -0.230 N 
ATOM     15  C   UNL     1       5.787   3.954  -4.055  0.00  0.00    +0.406 C 
ATOM     16  O   UNL     1       5.876   4.217  -5.238  0.00  0.00    -0.226 OA
ATOM     17  C   UNL     1       0.285   1.437  -4.862  0.00  0.00    +0.054 C 
ATOM     18  C   UNL     1      -0.329   1.096  -9.820  0.00  0.00    +0.016 C 
ATOM     19  H   UNL     1       4.617   3.124  -2.638  0.00  0.00    +0.160 HD
ENDROOT
BRANCH   5  20
ATOM     20  O   UNL     1      -3.132   0.711  -9.356  0.00  0.00    -0.391 OA
ATOM     21  H   UNL     1      -3.928   0.169  -9.264  0.00  0.00    +0.210 HD
ENDBRANCH   5  20
BRANCH  15  22
ATOM     22  O   UNL     1       6.788   4.282  -3.215  0.00  0.00    -0.446 OA
BRANCH  22  23
ATOM     23  C   UNL     1       7.941   4.948  -3.793  0.00  0.00    +0.261 C 
BRANCH  23  24
ATOM     24  C   UNL     1       8.950   5.235  -2.711  0.00  0.00    +0.006 C 
ATOM     25  C   UNL     1      10.219   4.984  -2.916  0.00  0.00    +0.007 C 
ENDBRANCH  23  24
ENDBRANCH  22  23
ENDBRANCH  15  22
BRANCH  17  26
ATOM     26  C   UNL     1      -0.321   1.975  -3.564  0.00  0.00    +0.106 C 
BRANCH  26  27
ATOM     27  C   UNL     1       0.526   1.543  -2.396  0.00  0.00    +0.214 C 
ATOM     28  O   UNL     1       1.518   0.871  -2.582  0.00  0.00    -0.276 OA
ATOM     29  N   UNL     1       0.182   1.904  -1.144  0.00  0.00    -0.308 N 
ATOM     30  H   UNL     1      -0.611   2.441  -0.995  0.00  0.00    +0.149 HD
BRANCH  29  31
ATOM     31  C   UNL     1       1.006   1.483  -0.008  0.00  0.00    +0.178 C 
BRANCH  31  32
ATOM     32  C   UNL     1       0.409   2.013   1.270  0.00  0.00    +0.122 A 
ATOM     33  C   UNL     1      -0.504   1.384   2.031  0.00  0.00    +0.046 A 
ATOM     34  C   UNL     1      -0.780   2.235   3.127  0.00  0.00    +0.041 A 
ATOM     35  C   UNL     1      -0.025   3.336   2.965  0.00  0.00    +0.195 A 
ATOM     36  O   UNL     1       0.693   3.196   1.839  0.00  0.00    -0.466 OA
ENDBRANCH  31  32
ENDBRANCH  29  31
ENDBRANCH  26  27
ENDBRANCH  17  26
BRANCH   6  37
ATOM     37  C   UNL     1      -1.481   2.943  -8.601  0.00  0.00    +0.165 C 
BRANCH  37  38
ATOM     38  O   UNL     1      -2.289   3.106  -9.768  0.00  0.00    -0.394 OA
ATOM     39  H   UNL     1      -2.623   4.005  -9.893  0.00  0.00    +0.209 HD
ENDBRANCH  37  38
ENDBRANCH   6  37
TORSDOF 10
