REMARK  Name = ZINC66244130
REMARK  9 active torsions:
REMARK  status: ('A' for Active; 'I' for Inactive)
REMARK    1  A    between atoms: C_1  and  O_2
REMARK    2  A    between atoms: O_2  and  C_3
REMARK    3  A    between atoms: C_3  and  C_4
REMARK    4  A    between atoms: C_4  and  N_5
REMARK    5  A    between atoms: N_8  and  C_9
REMARK    6  A    between atoms: C_9  and  C_10
REMARK    7  A    between atoms: C_10  and  O_11
REMARK    8  A    between atoms: O_11  and  C_12
REMARK    9  A    between atoms: C_17  and  C_18
REMARK                            x       y       z     vdW  Elec       q    Type
REMARK                         _______ _______ _______ _____ _____    ______ ____
ROOT
ATOM      1  C   UNL     1       0.230  -6.983   1.050  0.00  0.00    +0.250 C 
ENDROOT
BRANCH   1   2
ATOM      2  C   UNL     1       1.000  -6.160   0.016  0.00  0.00    +0.156 C 
BRANCH   2   6
ATOM      3  N   UNL     1       1.401  -2.532  -0.162  0.00  0.00    -0.356 N 
ATOM      4  C   UNL     1       1.502  -3.798  -0.453  0.00  0.00    +0.169 C 
ATOM      5  N   UNL     1       2.223  -4.196  -1.553  0.00  0.00    -0.371 N 
ATOM      6  N   UNL     1       0.887  -4.737   0.342  0.00  0.00    -0.354 N 
ATOM      7  H   UNL     1       2.657  -3.534  -2.114  0.00  0.00    +0.159 HD
ATOM      8  H   UNL     1       2.298  -5.139  -1.769  0.00  0.00    +0.159 HD
ATOM      9  H   UNL     1       0.378  -4.456   1.119  0.00  0.00    +0.163 HD
ATOM     10  H   UNL     1       1.835  -1.870  -0.723  0.00  0.00    +0.162 HD
BRANCH   3  11
ATOM     11  C   UNL     1       0.633  -2.108   1.011  0.00  0.00    +0.143 C 
BRANCH  11  12
ATOM     12  C   UNL     1       0.673  -0.582   1.123  0.00  0.00    +0.180 C 
BRANCH  12  14
ATOM     13  C   UNL     1      -0.017   1.425   0.010  0.00  0.00    +0.194 C 
ATOM     14  O   UNL     1       0.002  -0.004   0.002  0.00  0.00    -0.381 OA
ENDBRANCH  12  14
ENDBRANCH  11  12
ENDBRANCH   3  11
ENDBRANCH   2   6
ENDBRANCH   1   2
BRANCH   1  15
ATOM     15  O   UNL     1      -1.164  -6.684   0.956  0.00  0.00    -0.490 OA
BRANCH  15  16
ATOM     16  C   UNL     1      -1.994  -7.335   1.811  0.00  0.00    +0.128 A 
ATOM     17  C   UNL     1      -1.480  -8.239   2.727  0.00  0.00    +0.046 A 
ATOM     18  C   UNL     1      -2.326  -8.900   3.596  0.00  0.00    +0.004 A 
ATOM     19  C   UNL     1      -3.689  -8.665   3.559  0.00  0.00    +0.001 A 
ATOM     20  C   UNL     1      -4.215  -7.768   2.652  0.00  0.00    +0.012 A 
ATOM     21  C   UNL     1      -3.371  -7.091   1.775  0.00  0.00    +0.024 A 
BRANCH  21  22
ATOM     22  C   UNL     1      -3.930  -6.120   0.803  0.00  0.00    -0.014 A 
ATOM     23  C   UNL     1      -3.373  -4.847   0.687  0.00  0.00    +0.008 A 
ATOM     24  C   UNL     1      -3.898  -3.948  -0.220  0.00  0.00    +0.001 A 
ATOM     25  C   UNL     1      -4.973  -4.308  -1.012  0.00  0.00    +0.000 A 
ATOM     26  C   UNL     1      -5.529  -5.570  -0.900  0.00  0.00    +0.001 A 
ATOM     27  C   UNL     1      -5.010  -6.479  -0.001  0.00  0.00    +0.008 A 
ENDBRANCH  21  22
ENDBRANCH  15  16
ENDBRANCH   1  15
TORSDOF 8
