REMARK  Name = ZINC43225863
REMARK  11 active torsions:
REMARK  status: ('A' for Active; 'I' for Inactive)
REMARK    1  A    between atoms: C_1  and  C_2
REMARK    2  A    between atoms: C_3  and  C_35
REMARK    3  A    between atoms: C_5  and  C_27
REMARK    4  A    between atoms: N_6  and  C_7
REMARK    5  A    between atoms: C_7  and  C_9
REMARK    6  A    between atoms: C_7  and  C_17
REMARK    7  A    between atoms: C_9  and  C_10
REMARK    8  A    between atoms: C_13  and  O_16
REMARK    9  A    between atoms: N_19  and  C_20
REMARK   10  A    between atoms: C_20  and  C_21
REMARK   11  A    between atoms: C_31  and  C_33
REMARK                            x       y       z     vdW  Elec       q    Type
REMARK                         _______ _______ _______ _____ _____    ______ ____
ROOT
ATOM      1  C   UNL     1       0.134  -0.429   2.473  0.00  0.00    +0.177 C 
ENDROOT
BRANCH   1   7
ATOM      2  C   UNL     1      -0.022   1.643   0.200  0.00  0.00    +0.064 C 
ATOM      3  C   UNL     1      -0.101   0.145   0.051  0.00  0.00    +0.029 A 
ATOM      4  C   UNL     1      -0.249  -0.542  -1.135  0.00  0.00    +0.058 A 
ATOM      5  C   UNL     1      -0.275  -1.923  -0.812  0.00  0.00    +0.041 A 
ATOM      6  C   UNL     1      -0.143  -2.020   0.536  0.00  0.00    +0.051 A 
ATOM      7  N   UNL     1      -0.031  -0.753   1.054  0.00  0.00    -0.331 N 
BRANCH   6   8
ATOM      8  C   UNL     1      -0.118  -3.278   1.314  0.00  0.00    -0.000 A 
ATOM      9  C   UNL     1      -0.589  -3.297   2.628  0.00  0.00    +0.010 A 
ATOM     10  C   UNL     1      -0.567  -4.470   3.356  0.00  0.00    +0.002 A 
ATOM     11  C   UNL     1      -0.079  -5.631   2.792  0.00  0.00    +0.019 A 
ATOM     12  C   UNL     1       0.397  -5.626   1.478  0.00  0.00    +0.052 A 
ATOM     13  C   UNL     1       0.371  -4.446   0.736  0.00  0.00    +0.028 A 
BRANCH  12  14
ATOM     14  C   UNL     1       0.904  -6.831   0.894  0.00  0.00    +0.099 C 
ATOM     15  N   UNL     1       1.306  -7.787   0.430  0.00  0.00    -0.191 NA
ENDBRANCH  12  14
ENDBRANCH   6   8
BRANCH   4  16
ATOM     16  C   UNL     1      -0.362   0.047  -2.480  0.00  0.00    +0.243 C 
ATOM     17  O   UNL     1      -0.326   1.254  -2.621  0.00  0.00    -0.270 OA
ATOM     18  N   UNL     1      -0.504  -0.753  -3.556  0.00  0.00    -0.325 N 
ATOM     19  H   UNL     1      -0.533  -1.716  -3.443  0.00  0.00    +0.145 HD
ATOM     20  H   UNL     1      -0.578  -0.366  -4.442  0.00  0.00    +0.145 HD
ENDBRANCH   4  16
ENDBRANCH   1   7
BRANCH   1  21
ATOM     21  C   UNL     1      -1.094   0.289   2.970  0.00  0.00    +0.237 C 
ATOM     22  O   UNL     1      -1.976   0.590   2.195  0.00  0.00    -0.274 OA
ATOM     23  N   UNL     1      -1.212   0.596   4.277  0.00  0.00    -0.309 N 
ATOM     24  H   UNL     1      -0.476   0.421   4.885  0.00  0.00    +0.149 HD
BRANCH  23  25
ATOM     25  C   UNL     1      -2.451   1.195   4.780  0.00  0.00    +0.139 C 
BRANCH  25  26
ATOM     26  C   UNL     1      -2.325   1.439   6.262  0.00  0.00    -0.030 A 
ATOM     27  C   UNL     1      -2.701   0.457   7.159  0.00  0.00    +0.005 A 
ATOM     28  C   UNL     1      -2.586   0.681   8.518  0.00  0.00    +0.000 A 
ATOM     29  C   UNL     1      -2.094   1.887   8.980  0.00  0.00    +0.000 A 
ATOM     30  C   UNL     1      -1.717   2.869   8.084  0.00  0.00    +0.000 A 
ATOM     31  C   UNL     1      -1.828   2.643   6.724  0.00  0.00    +0.005 A 
ENDBRANCH  25  26
ENDBRANCH  23  25
ENDBRANCH   1  21
BRANCH   1  32
ATOM     32  C   UNL     1       1.358   0.471   2.651  0.00  0.00    +0.069 C 
BRANCH  32  33
ATOM     33  C   UNL     1       2.603  -0.293   2.278  0.00  0.00    -0.045 A 
ATOM     34  C   UNL     1       3.213  -1.114   3.208  0.00  0.00    +0.007 A 
ATOM     35  C   UNL     1       4.354  -1.815   2.869  0.00  0.00    +0.045 A 
ATOM     36  C   UNL     1       4.887  -1.695   1.594  0.00  0.00    +0.117 A 
ATOM     37  C   UNL     1       4.272  -0.872   0.662  0.00  0.00    +0.045 A 
ATOM     38  C   UNL     1       3.128  -0.176   1.005  0.00  0.00    +0.007 A 
BRANCH  36  39
ATOM     39  O   UNL     1       6.009  -2.384   1.258  0.00  0.00    -0.507 OA
ATOM     40  H   UNL     1       5.837  -3.261   0.889  0.00  0.00    +0.292 HD
ENDBRANCH  36  39
ENDBRANCH  32  33
ENDBRANCH   1  32
TORSDOF 10
