REMARK  Name = ZINC38108312
REMARK  3 active torsions:
REMARK  status: ('A' for Active; 'I' for Inactive)
REMARK    1  A    between atoms: C_4  and  C_8
REMARK    2  A    between atoms: C_8  and  N_9
REMARK    3  A    between atoms: C_10  and  C_12
REMARK                            x       y       z     vdW  Elec       q    Type
REMARK                         _______ _______ _______ _____ _____    ______ ____
ROOT
ATOM      1  N   UNL     1       4.270  -0.743   1.315  0.00  0.00    -0.306 N 
ATOM      2  C   UNL     1       5.450  -1.353   1.542  0.00  0.00    +0.264 C 
ATOM      3  O   UNL     1       6.052  -1.873   0.624  0.00  0.00    -0.268 OA
ATOM      4  H   UNL     1       3.789  -0.328   2.049  0.00  0.00    +0.149 HD
ENDROOT
BRANCH   2   5
ATOM      5  C   UNL     1       6.013  -1.389   2.912  0.00  0.00    +0.148 A 
ATOM      6  C   UNL     1       7.240  -2.016   3.150  0.00  0.00    +0.038 A 
ATOM      7  C   UNL     1       7.723  -2.023   4.450  0.00  0.00    +0.044 A 
ATOM      8  C   UNL     1       6.962  -1.409   5.434  0.00  0.00    +0.152 A 
ATOM      9  N   UNL     1       5.810  -0.838   5.119  0.00  0.00    -0.137 NA
ATOM     10  N   UNL     1       5.358  -0.823   3.918  0.00  0.00    -0.143 NA
ATOM     11 CL   UNL     1       7.519  -1.389   7.077  0.00  0.00    -0.060 Cl
ENDBRANCH   2   5
BRANCH   1  12
ATOM     12  C   UNL     1       3.713  -0.706  -0.039  0.00  0.00    +0.141 C 
BRANCH  12  16
ATOM     13  C   UNL     1      -0.017   1.380   0.010  0.00  0.00    +0.039 A 
ATOM     14  C   UNL     1       1.171   2.087   0.002  0.00  0.00    +0.018 A 
ATOM     15  C   UNL     1       2.378   1.412  -0.013  0.00  0.00    +0.023 A 
ATOM     16  C   UNL     1       2.397   0.029  -0.022  0.00  0.00    -0.014 A 
ATOM     17  C   UNL     1       1.211  -0.679  -0.014  0.00  0.00    +0.044 A 
ATOM     18  C   UNL     1       0.002  -0.004   0.002  0.00  0.00    +0.124 A 
ATOM     19  F   UNL     1      -1.158  -0.696   0.010  0.00  0.00    -0.205 F 
ATOM     20 BR   UNL     1       4.002   2.380  -0.025  0.00  0.00    -0.050 Br
ENDBRANCH  12  16
ENDBRANCH   1  12
TORSDOF 3
