REMARK  Name = ZINC11339254
REMARK  16 active torsions:
REMARK  status: ('A' for Active; 'I' for Inactive)
REMARK    1  A    between atoms: C_1  and  C_2
REMARK    2  A    between atoms: C_2  and  C_3
REMARK    3  A    between atoms: C_3  and  C_4
REMARK    4  A    between atoms: C_4  and  C_5
REMARK    5  A    between atoms: C_5  and  N_6
REMARK    6  A    between atoms: N_6  and  C_7
REMARK    7  A    between atoms: N_6  and  C_21
REMARK    8  A    between atoms: C_7  and  C_8
REMARK    9  A    between atoms: N_13  and  C_14
REMARK   10  A    between atoms: C_14  and  C_15
REMARK   11  A    between atoms: C_15  and  C_16
REMARK   12  A    between atoms: C_22  and  N_34
REMARK   13  A    between atoms: N_23  and  C_30
REMARK   14  A    between atoms: C_30  and  C_31
REMARK   15  A    between atoms: C_31  and  C_32
REMARK   16  A    between atoms: C_32  and  C_33
REMARK                            x       y       z     vdW  Elec       q    Type
REMARK                         _______ _______ _______ _____ _____    ______ ____
ROOT
ATOM      1  N   UNL     1      -1.385  -4.784  -2.393  0.00  0.00    -0.314 N 
ENDROOT
BRANCH   1   2
ATOM      2  C   UNL     1      -1.522  -3.871  -1.321  0.00  0.00    +0.134 A 
ATOM      3  C   UNL     1      -1.505  -2.522  -1.550  0.00  0.00    +0.127 A 
ATOM      4  N   UNL     1      -1.636  -1.655  -0.489  0.00  0.00    -0.280 N 
ATOM      5  C   UNL     1      -1.790  -2.128   0.761  0.00  0.00    +0.331 A 
ATOM      6  O   UNL     1      -1.908  -1.348   1.686  0.00  0.00    -0.246 OA
ATOM      7  N   UNL     1      -1.813  -3.451   1.004  0.00  0.00    -0.273 N 
ATOM      8  H   UNL     1      -1.928  -3.781   1.941  0.00  0.00    +0.173 HD
ATOM      9  C   UNL     1      -1.684  -4.337  -0.003  0.00  0.00    +0.277 A 
ATOM     10  O   UNL     1      -1.707  -5.535   0.226  0.00  0.00    -0.266 OA
BRANCH   3  11
ATOM     11  N   UNL     1      -1.354  -2.037  -2.829  0.00  0.00    -0.343 N 
ATOM     12  H   UNL     1      -1.339  -1.080  -2.986  0.00  0.00    +0.144 HD
ATOM     13  H   UNL     1      -1.262  -2.652  -3.574  0.00  0.00    +0.144 HD
ENDBRANCH   3  11
BRANCH   4  14
ATOM     14  C   UNL     1      -1.615  -0.209  -0.723  0.00  0.00    +0.128 C 
BRANCH  14  15
ATOM     15  C   UNL     1      -0.176   0.302  -0.626  0.00  0.00    +0.021 C 
BRANCH  15  16
ATOM     16  C   UNL     1      -0.153   1.812  -0.871  0.00  0.00    -0.002 C 
ATOM     17  C   UNL     1       1.286   2.323  -0.774  0.00  0.00    +0.004 C 
ENDBRANCH  15  16
ENDBRANCH  14  15
ENDBRANCH   4  14
ENDBRANCH   1   2
BRANCH   1  18
ATOM     18  C   UNL     1      -0.207  -5.642  -2.206  0.00  0.00    +0.106 C 
BRANCH  18  19
ATOM     19  C   UNL     1       1.060  -4.845  -2.523  0.00  0.00    +0.019 C 
BRANCH  19  20
ATOM     20  C   UNL     1       2.276  -5.771  -2.452  0.00  0.00    +0.001 C 
BRANCH  20  22
ATOM     21  C   UNL     1       4.759  -5.901  -2.698  0.00  0.00    +0.004 C 
ATOM     22  C   UNL     1       3.543  -4.975  -2.770  0.00  0.00    -0.003 C 
ENDBRANCH  20  22
ENDBRANCH  19  20
ENDBRANCH  18  19
ENDBRANCH   1  18
BRANCH   1  23
ATOM     23  C   UNL     1      -2.602  -5.589  -2.558  0.00  0.00    +0.201 C 
BRANCH  23  24
ATOM     24  C   UNL     1      -2.591  -6.244  -3.915  0.00  0.00    +0.238 C 
ATOM     25  O   UNL     1      -1.718  -5.973  -4.711  0.00  0.00    -0.274 OA
ATOM     26  N   UNL     1      -3.552  -7.130  -4.244  0.00  0.00    -0.239 N 
ATOM     27  C   UNL     1      -3.542  -7.715  -5.458  0.00  0.00    +0.306 C 
ATOM     28  O   UNL     1      -2.666  -7.444  -6.256  0.00  0.00    -0.252 OA
ATOM     29  N   UNL     1      -4.502  -8.601  -5.787  0.00  0.00    -0.299 N 
ATOM     30  H   UNL     1      -4.250  -7.346  -3.607  0.00  0.00    +0.159 HD
ATOM     31  H   UNL     1      -5.201  -8.818  -5.150  0.00  0.00    +0.150 HD
BRANCH  29  32
ATOM     32  C   UNL     1      -4.492  -9.238  -7.106  0.00  0.00    +0.111 C 
BRANCH  32  33
ATOM     33  C   UNL     1      -5.681 -10.193  -7.222  0.00  0.00    +0.061 C 
BRANCH  33  34
ATOM     34  C   UNL     1      -5.670 -10.847  -8.579  0.00  0.00    -0.009 A 
ATOM     35  C   UNL     1      -5.068 -11.998  -8.967  0.00  0.00    +0.011 A 
ATOM     36  C   UNL     1      -5.197 -12.413 -10.279  0.00  0.00    +0.008 A 
ATOM     37  C   UNL     1      -5.913 -11.652 -11.142  0.00  0.00    +0.045 A 
ATOM     38  S   UNL     1      -6.440 -10.304 -10.095  0.00  0.00    -0.102 S 
ENDBRANCH  33  34
ENDBRANCH  32  33
ENDBRANCH  29  32
ENDBRANCH  23  24
ENDBRANCH   1  23
TORSDOF 14
