REMARK  Name = ZINC39326170
REMARK  10 active torsions:
REMARK  status: ('A' for Active; 'I' for Inactive)
REMARK    1  A    between atoms: C_1  and  C_2
REMARK    2  A    between atoms: C_2  and  C_4
REMARK    3  A    between atoms: C_9  and  N_10
REMARK    4  A    between atoms: C_11  and  C_13
REMARK    5  A    between atoms: C_14  and  N_30
REMARK    6  A    between atoms: C_16  and  C_26
REMARK    7  A    between atoms: C_18  and  C_22
REMARK    8  A    between atoms: C_22  and  C_23
REMARK    9  A    between atoms: C_22  and  C_24
REMARK   10  A    between atoms: C_22  and  C_25
REMARK                            x       y       z     vdW  Elec       q    Type
REMARK                         _______ _______ _______ _____ _____    ______ ____
ROOT
ATOM      1  C   UNL     1       1.054  -5.021  -0.404  0.00  0.00    +0.097 A 
ATOM      2  C   UNL     1       1.205  -6.377  -0.597  0.00  0.00    +0.054 A 
ATOM      3  C   UNL     1       2.548  -6.934  -0.557  0.00  0.00    +0.041 A 
ATOM      4  C   UNL     1       2.952  -8.282  -0.725  0.00  0.00    +0.068 A 
ATOM      5  C   UNL     1       4.289  -8.592  -0.647  0.00  0.00    +0.037 A 
ATOM      6  C   UNL     1       5.227  -7.598  -0.408  0.00  0.00    +0.048 A 
ATOM      7  N   UNL     1       4.847  -6.345  -0.252  0.00  0.00    -0.244 NA
ATOM      8  C   UNL     1       3.580  -5.998  -0.318  0.00  0.00    +0.112 A 
ATOM      9  S   UNL     1       2.725  -4.449  -0.169  0.00  0.00    -0.062 S 
ENDROOT
BRANCH   1  11
ATOM     10  N   UNL     1      -0.096  -2.931  -0.199  0.00  0.00    -0.280 N 
ATOM     11  C   UNL     1      -0.143  -4.263  -0.400  0.00  0.00    +0.257 C 
ATOM     12  O   UNL     1      -1.214  -4.814  -0.579  0.00  0.00    -0.269 OA
ATOM     13  H   UNL     1       0.761  -2.480  -0.133  0.00  0.00    +0.155 HD
BRANCH  10  19
ATOM     14  C   UNL     1      -1.346  -0.891  -0.585  0.00  0.00    +0.038 A 
ATOM     15  C   UNL     1      -2.542  -0.172  -0.468  0.00  0.00    +0.013 A 
ATOM     16  C   UNL     1      -3.634  -0.751   0.138  0.00  0.00    +0.001 A 
ATOM     17  C   UNL     1      -3.557  -2.044   0.635  0.00  0.00    +0.002 A 
ATOM     18  C   UNL     1      -2.386  -2.766   0.528  0.00  0.00    +0.024 A 
ATOM     19  C   UNL     1      -1.274  -2.203  -0.085  0.00  0.00    +0.044 A 
BRANCH  14  21
ATOM     20  C   UNL     1      -0.292   1.082  -1.861  0.00  0.00    +0.091 C 
ATOM     21  C   UNL     1      -0.178  -0.281  -1.229  0.00  0.00    +0.162 C 
ATOM     22  O   UNL     1       0.881  -0.873  -1.252  0.00  0.00    -0.292 OA
ENDBRANCH  14  21
ENDBRANCH  10  19
ENDBRANCH   1  11
BRANCH   6  23
ATOM     23  C   UNL     1       6.689  -7.953  -0.325  0.00  0.00    +0.005 C 
ATOM     24  C   UNL     1       7.229  -8.222  -1.731  0.00  0.00    +0.017 C 
ATOM     25  C   UNL     1       7.461  -6.791   0.304  0.00  0.00    +0.017 C 
ATOM     26  C   UNL     1       6.862  -9.206   0.536  0.00  0.00    +0.017 C 
ENDBRANCH   6  23
BRANCH   4  27
ATOM     27  C   UNL     1       1.931  -9.360  -0.984  0.00  0.00    +0.418 C 
ATOM     28  F   UNL     1       2.578 -10.594  -1.112  0.00  0.00    -0.166 F 
ATOM     29  F   UNL     1       1.029  -9.415   0.084  0.00  0.00    -0.166 F 
ATOM     30  F   UNL     1       1.239  -9.072  -2.165  0.00  0.00    -0.166 F 
ENDBRANCH   4  27
BRANCH   2  31
ATOM     31  N   UNL     1       0.104  -7.190  -0.824  0.00  0.00    -0.356 N 
ATOM     32  H   UNL     1      -0.786  -6.806  -0.848  0.00  0.00    +0.142 HD
ATOM     33  H   UNL     1       0.224  -8.143  -0.958  0.00  0.00    +0.142 HD
ENDBRANCH   2  31
TORSDOF 6
