REMARK  Name = ZINC24341160
REMARK  9 active torsions:
REMARK  status: ('A' for Active; 'I' for Inactive)
REMARK    1  A    between atoms: C_1  and  C_2
REMARK    2  A    between atoms: C_6  and  C_31
REMARK    3  A    between atoms: C_7  and  N_8
REMARK    4  A    between atoms: C_9  and  S_13
REMARK    5  A    between atoms: S_13  and  C_14
REMARK    6  A    between atoms: C_14  and  C_16
REMARK    7  A    between atoms: C_14  and  C_17
REMARK    8  A    between atoms: C_17  and  C_19
REMARK    9  A    between atoms: C_19  and  C_29
REMARK                            x       y       z     vdW  Elec       q    Type
REMARK                         _______ _______ _______ _____ _____    ______ ____
ROOT
ATOM      1  C   UNL     1      -4.494  -4.666   0.355  0.00  0.00    +0.123 C 
ATOM      2  C   UNL     1      -4.857  -4.982   1.807  0.00  0.00    +0.028 C 
ENDROOT
BRANCH   1   3
ATOM      3  C   UNL     1      -3.320  -3.723   0.325  0.00  0.00    +0.189 C 
ATOM      4  O   UNL     1      -3.505  -2.524   0.235  0.00  0.00    -0.290 OA
BRANCH   3   5
ATOM      5  C   UNL     1      -2.011  -4.228   0.401  0.00  0.00    +0.123 C 
ATOM      6  C   UNL     1      -0.914  -3.346   0.373  0.00  0.00    +0.091 C 
ATOM      7  N   UNL     1      -0.924  -1.991   0.277  0.00  0.00    -0.307 N 
ATOM      8  C   UNL     1       0.265  -1.288   0.265  0.00  0.00    +0.046 A 
ATOM      9  C   UNL     1       0.455   0.101   0.174  0.00  0.00    +0.024 A 
ATOM     10  C   UNL     1       1.720   0.638   0.176  0.00  0.00    +0.002 A 
ATOM     11  C   UNL     1       2.843  -0.168   0.266  0.00  0.00    +0.001 A 
ATOM     12  C   UNL     1       2.685  -1.539   0.357  0.00  0.00    +0.017 A 
ATOM     13  C   UNL     1       1.420  -2.078   0.356  0.00  0.00    +0.035 A 
ATOM     14  S   UNL     1       0.775  -3.729   0.451  0.00  0.00    -0.071 S 
ATOM     15  H   UNL     1      -1.880  -1.452   0.209  0.00  0.00    +0.153 HD
BRANCH   5  16
ATOM     16  C   UNL     1      -1.793  -5.639   0.506  0.00  0.00    +0.105 C 
ATOM     17  N   UNL     1      -1.621  -6.758   0.590  0.00  0.00    -0.191 NA
ENDBRANCH   5  16
ENDBRANCH   3   5
ENDBRANCH   1   3
BRANCH   1  18
ATOM     18  S   UNL     1      -5.910  -3.893  -0.466  0.00  0.00    -0.073 S 
BRANCH  18  20
ATOM     19  N   UNL     1      -8.328  -5.225  -0.912  0.00  0.00    -0.187 N 
ATOM     20  C   UNL     1      -7.056  -5.231  -0.423  0.00  0.00    +0.215 A 
ATOM     21  N   UNL     1      -6.846  -6.427   0.083  0.00  0.00    -0.101 NA
ATOM     22  N   UNL     1      -7.890  -7.162  -0.047  0.00  0.00    -0.022 NA
ATOM     23  N   UNL     1      -8.830  -6.510  -0.642  0.00  0.00    -0.038 NA
BRANCH  19  30
ATOM     24  C   UNL     1      -8.651  -2.785   0.518  0.00  0.00    +0.046 C 
ATOM     25  C   UNL     1      -9.171  -2.959  -0.885  0.00  0.00    -0.025 A 
ATOM     26  C   UNL     1      -9.821  -1.917  -1.516  0.00  0.00    +0.005 A 
ATOM     27  C   UNL     1     -10.304  -2.078  -2.802  0.00  0.00    +0.001 A 
ATOM     28  C   UNL     1     -10.132  -3.280  -3.462  0.00  0.00    +0.005 A 
ATOM     29  C   UNL     1      -9.478  -4.325  -2.839  0.00  0.00    -0.025 A 
ATOM     30  C   UNL     1      -8.992  -4.166  -1.548  0.00  0.00    +0.076 A 
ATOM     31  C   UNL     1      -9.290  -5.635  -3.559  0.00  0.00    +0.046 C 
ENDBRANCH  19  30
ENDBRANCH  18  20
ENDBRANCH   1  18
TORSDOF 6
