REMARK  Name = ZINC12886709
REMARK  5 active torsions:
REMARK  status: ('A' for Active; 'I' for Inactive)
REMARK    1  A    between atoms: C_1  and  C_2
REMARK    2  A    between atoms: C_12  and  C_13
REMARK    3  A    between atoms: C_13  and  C_14
REMARK    4  A    between atoms: N_16  and  C_17
REMARK    5  A    between atoms: C_22  and  C_23
REMARK                            x       y       z     vdW  Elec       q    Type
REMARK                         _______ _______ _______ _____ _____    ______ ____
ROOT
ATOM      1  C   UNL     1      -2.635   5.332   0.104  0.00  0.00    +0.045 C 
ATOM      2  C   UNL     1      -2.562   3.827   0.080  0.00  0.00    -0.029 A 
ATOM      3  C   UNL     1      -1.272   3.129   0.069  0.00  0.00    +0.022 A 
ATOM      4  C   UNL     1      -0.077   3.848   0.081  0.00  0.00    +0.023 A 
ATOM      5  C   UNL     1       1.130   3.164   0.070  0.00  0.00    +0.024 A 
ATOM      6  C   UNL     1       1.149   1.752   0.046  0.00  0.00    +0.139 A 
ATOM      7  C   UNL     1      -0.044   1.046   0.034  0.00  0.00    +0.093 A 
ATOM      8  C   UNL     1      -1.255   1.720   0.039  0.00  0.00    +0.143 A 
ATOM      9  O   UNL     1      -2.412   1.024   0.033  0.00  0.00    -0.422 OA
ATOM     10  C   UNL     1      -3.585   1.664   0.044  0.00  0.00    +0.341 A 
ATOM     11  O   UNL     1      -4.608   1.004   0.033  0.00  0.00    -0.245 OA
ATOM     12  C   UNL     1      -3.690   3.070   0.067  0.00  0.00    +0.049 A 
ATOM     13  O   UNL     1       2.444   1.370   0.040  0.00  0.00    -0.459 OA
ATOM     14  C   UNL     1       3.262   2.436   0.058  0.00  0.00    +0.109 A 
ATOM     15  C   UNL     1       2.537   3.566   0.077  0.00  0.00    +0.001 A 
ATOM     16  C   UNL     1       3.109   4.958   0.103  0.00  0.00    +0.039 C 
ATOM     17  C   UNL     1       4.585   4.869   0.510  0.00  0.00    +0.005 C 
ATOM     18  C   UNL     1       5.280   3.805  -0.344  0.00  0.00    +0.008 C 
ATOM     19  C   UNL     1       4.774   2.415   0.057  0.00  0.00    +0.075 C 
ENDROOT
BRANCH  12  20
ATOM     20  C   UNL     1      -5.045   3.728   0.077  0.00  0.00    +0.138 C 
BRANCH  20  21
ATOM     21  C   UNL     1      -5.496   3.971  -1.340  0.00  0.00    +0.222 C 
ATOM     22  O   UNL     1      -4.787   3.641  -2.267  0.00  0.00    -0.275 OA
ATOM     23  N   UNL     1      -6.688   4.554  -1.578  0.00  0.00    -0.285 N 
ATOM     24  H   UNL     1      -7.283   4.759  -0.840  0.00  0.00    +0.155 HD
BRANCH  23  25
ATOM     25  C   UNL     1      -7.064   4.862  -2.883  0.00  0.00    +0.046 A 
ATOM     26  C   UNL     1      -6.698   4.028  -3.930  0.00  0.00    +0.024 A 
ATOM     27  C   UNL     1      -7.076   4.333  -5.222  0.00  0.00    +0.002 A 
ATOM     28  C   UNL     1      -7.814   5.476  -5.486  0.00  0.00    +0.001 A 
ATOM     29  C   UNL     1      -8.182   6.318  -4.459  0.00  0.00    +0.015 A 
ATOM     30  C   UNL     1      -7.811   6.020  -3.146  0.00  0.00    +0.058 A 
BRANCH  30  31
ATOM     31  C   UNL     1      -8.201   6.918  -2.042  0.00  0.00    +0.243 C 
ATOM     32  O   UNL     1      -7.794   6.710  -0.916  0.00  0.00    -0.270 OA
ATOM     33  N   UNL     1      -9.010   7.969  -2.283  0.00  0.00    -0.325 N 
ATOM     34  H   UNL     1      -9.335   8.136  -3.182  0.00  0.00    +0.145 HD
ATOM     35  H   UNL     1      -9.266   8.560  -1.558  0.00  0.00    +0.145 HD
ENDBRANCH  30  31
ENDBRANCH  23  25
ENDBRANCH  20  21
ENDBRANCH  12  20
TORSDOF 4
