REMARK  Name = ZINC44334304
REMARK  8 active torsions:
REMARK  status: ('A' for Active; 'I' for Inactive)
REMARK    1  A    between atoms: C_1  and  O_2
REMARK    2  A    between atoms: O_2  and  C_3
REMARK    3  A    between atoms: C_3  and  C_5
REMARK    4  A    between atoms: C_5  and  C_7
REMARK    5  A    between atoms: C_5  and  N_27
REMARK    6  A    between atoms: C_7  and  C_8
REMARK    7  A    between atoms: C_9  and  C_18
REMARK    8  A    between atoms: C_21  and  N_24
REMARK                            x       y       z     vdW  Elec       q    Type
REMARK                         _______ _______ _______ _____ _____    ______ ____
ROOT
ATOM      1  C   UNL     1      -0.966  -4.181  -1.152  0.00  0.00    +0.053 A 
ATOM      2  C   UNL     1       0.165  -4.915  -1.347  0.00  0.00    +0.093 A 
ATOM      3  N   UNL     1      -0.195  -6.179  -1.617  0.00  0.00    -0.228 NA
ATOM      4  C   UNL     1      -1.517  -6.268  -1.598  0.00  0.00    +0.139 A 
ATOM      5  N   UNL     1      -2.027  -5.029  -1.303  0.00  0.00    -0.302 N 
ATOM      6  C   UNL     1      -3.377  -4.840  -1.215  0.00  0.00    +0.108 A 
ATOM      7  C   UNL     1      -4.229  -5.868  -1.412  0.00  0.00    +0.034 A 
ATOM      8  C   UNL     1      -3.737  -7.149  -1.713  0.00  0.00    +0.020 A 
ATOM      9  C   UNL     1      -2.395  -7.350  -1.812  0.00  0.00    +0.048 A 
ATOM     10 BR   UNL     1      -6.094  -5.582  -1.284  0.00  0.00    -0.049 Br
ENDROOT
BRANCH   2  11
ATOM     11  C   UNL     1       1.556  -4.404  -1.275  0.00  0.00    +0.002 A 
ATOM     12  C   UNL     1       2.539  -5.142  -0.620  0.00  0.00    +0.012 A 
ATOM     13  C   UNL     1       3.832  -4.662  -0.556  0.00  0.00    +0.033 A 
ATOM     14  C   UNL     1       4.152  -3.450  -1.141  0.00  0.00    +0.126 A 
ATOM     15  C   UNL     1       3.180  -2.713  -1.792  0.00  0.00    +0.033 A 
ATOM     16  C   UNL     1       1.885  -3.186  -1.867  0.00  0.00    +0.012 A 
BRANCH  14  17
ATOM     17  N   UNL     1       5.540  -2.940  -1.069  0.00  0.00    +0.056 N 
ATOM     18  O   UNL     1       6.391  -3.583  -0.499  0.00  0.00    -0.126 OA
ATOM     19  O   UNL     1       5.822  -1.881  -1.579  0.00  0.00    -0.126 OA
ENDBRANCH  14  17
ENDBRANCH   2  11
BRANCH   1  20
ATOM     20  C   UNL     1      -1.035  -2.711  -0.825  0.00  0.00    +0.086 C 
BRANCH  20  21
ATOM     21  C   UNL     1      -0.873  -2.516   0.684  0.00  0.00    +0.167 C 
BRANCH  21  22
ATOM     22  N   UNL     1      -2.014  -3.123   1.382  0.00  0.00    -0.318 NA
ATOM     23  H   UNL     1      -2.882  -2.698   1.092  0.00  0.00    +0.119 HD
ATOM     24  H   UNL     1      -2.035  -4.122   1.240  0.00  0.00    +0.119 HD
ENDBRANCH  21  22
BRANCH  21  25
ATOM     25  C   UNL     1      -0.818  -1.043   0.998  0.00  0.00    +0.324 C 
ATOM     26  O   UNL     1      -1.802  -0.476   1.408  0.00  0.00    -0.249 OA
BRANCH  25  28
ATOM     27  C   UNL     1       0.305   1.032   1.138  0.00  0.00    +0.280 C 
ATOM     28  O   UNL     1       0.325  -0.362   0.821  0.00  0.00    -0.467 OA
ENDBRANCH  25  28
ENDBRANCH  21  25
ENDBRANCH  20  21
ENDBRANCH   1  20
TORSDOF 7
