REMARK  Name = ZINC66390435
REMARK  10 active torsions:
REMARK  status: ('A' for Active; 'I' for Inactive)
REMARK    1  A    between atoms: C_1  and  C_2
REMARK    2  A    between atoms: C_2  and  C_4
REMARK    3  A    between atoms: C_2  and  N_14
REMARK    4  A    between atoms: N_9  and  C_10
REMARK    5  A    between atoms: C_10  and  C_11
REMARK    6  A    between atoms: C_11  and  C_12
REMARK    7  A    between atoms: C_11  and  C_13
REMARK    8  A    between atoms: N_14  and  C_15
REMARK    9  A    between atoms: C_15  and  C_16
REMARK   10  A    between atoms: C_16  and  C_22
REMARK                            x       y       z     vdW  Elec       q    Type
REMARK                         _______ _______ _______ _____ _____    ______ ____
ROOT
ATOM      1  N   UNL     1      -1.382  -0.620   0.038  0.00  0.00    +0.387 N 
ATOM      2  H   UNL     1      -1.394  -1.628   0.076  0.00  0.00    -0.085 HD
ATOM      3  H   UNL     1      -1.878  -0.248   0.834  0.00  0.00    -0.085 HD
ENDROOT
BRANCH   1   5
ATOM      4  C   UNL     1       0.025   1.382   0.130  0.00  0.00    -0.004 C 
ATOM      5  C   UNL     1       0.008  -0.146   0.061  0.00  0.00    +0.013 C 
BRANCH   5   6
ATOM      6  C   UNL     1       0.711  -0.711   1.268  0.00  0.00    +0.206 C 
ATOM      7  O   UNL     1       0.114  -1.436   2.034  0.00  0.00    -0.277 OA
ATOM      8  N   UNL     1       2.005  -0.409   1.497  0.00  0.00    -0.242 N 
ATOM      9  C   UNL     1       2.634  -0.914   2.577  0.00  0.00    +0.306 C 
ATOM     10  O   UNL     1       2.034  -1.641   3.344  0.00  0.00    -0.252 OA
ATOM     11  N   UNL     1       3.927  -0.612   2.806  0.00  0.00    -0.299 N 
ATOM     12  H   UNL     1       2.483   0.172   0.885  0.00  0.00    +0.159 HD
ATOM     13  H   UNL     1       4.405  -0.032   2.193  0.00  0.00    +0.150 HD
BRANCH  11  14
ATOM     14  C   UNL     1       4.611  -1.161   3.979  0.00  0.00    +0.108 C 
BRANCH  14  15
ATOM     15  C   UNL     1       6.059  -0.667   4.004  0.00  0.00    -0.000 C 
ATOM     16  C   UNL     1       6.077   0.850   4.198  0.00  0.00    +0.009 C 
ATOM     17  C   UNL     1       6.807  -1.338   5.157  0.00  0.00    +0.009 C 
ENDBRANCH  14  15
ENDBRANCH  11  14
ENDBRANCH   5   6
ENDBRANCH   1   5
BRANCH   1  18
ATOM     18  C   UNL     1      -2.033  -0.169  -1.199  0.00  0.00    -0.070 C 
BRANCH  18  19
ATOM     19  C   UNL     1      -3.442  -0.760  -1.279  0.00  0.00    -0.015 C 
ATOM     20  C   UNL     1      -4.063  -0.421  -2.638  0.00  0.00    +0.038 C 
ATOM     21  C   UNL     1      -3.234  -1.075  -3.746  0.00  0.00    +0.160 C 
ATOM     22  O   UNL     1      -3.179  -2.487  -3.530  0.00  0.00    -0.380 OA
ATOM     23  C   UNL     1      -2.566  -2.864  -2.296  0.00  0.00    +0.160 C 
ATOM     24  C   UNL     1      -3.368  -2.282  -1.129  0.00  0.00    +0.038 C 
BRANCH  19  25
ATOM     25  C   UNL     1      -4.293  -0.185  -0.177  0.00  0.00    -0.043 A 
ATOM     26  C   UNL     1      -3.806   0.844   0.608  0.00  0.00    +0.007 A 
ATOM     27  C   UNL     1      -4.586   1.372   1.619  0.00  0.00    +0.038 A 
ATOM     28  C   UNL     1      -5.856   0.870   1.846  0.00  0.00    +0.123 A 
ATOM     29  C   UNL     1      -6.343  -0.160   1.060  0.00  0.00    +0.038 A 
ATOM     30  C   UNL     1      -5.564  -0.683   0.046  0.00  0.00    +0.007 A 
ATOM     31  F   UNL     1      -6.619   1.386   2.835  0.00  0.00    -0.205 F 
ENDBRANCH  19  25
ENDBRANCH  18  19
ENDBRANCH   1  18
TORSDOF 7
