REMARK  Name = ZINC49813945
REMARK  8 active torsions:
REMARK  status: ('A' for Active; 'I' for Inactive)
REMARK    1  A    between atoms: C_1  and  C_2
REMARK    2  A    between atoms: C_4  and  C_16
REMARK    3  A    between atoms: C_5  and  O_9
REMARK    4  A    between atoms: C_6  and  C_8
REMARK    5  A    between atoms: O_9  and  C_10
REMARK    6  A    between atoms: C_10  and  C_12
REMARK    7  A    between atoms: C_12  and  C_14
REMARK    8  A    between atoms: C_12  and  N_15
REMARK                            x       y       z     vdW  Elec       q    Type
REMARK                         _______ _______ _______ _____ _____    ______ ____
ROOT
ATOM      1  C   UNL     1      -0.018   1.503   0.010  0.00  0.00    +0.044 C 
ATOM      2  C   UNL     1       0.002  -0.004   0.002  0.00  0.00    -0.050 A 
ATOM      3  C   UNL     1       0.006  -0.688  -1.200  0.00  0.00    +0.010 A 
ATOM      4  C   UNL     1       0.024  -2.069  -1.210  0.00  0.00    -0.008 A 
ATOM      5  C   UNL     1       0.039  -2.770  -0.013  0.00  0.00    +0.137 A 
ATOM      6  C   UNL     1       0.036  -2.082   1.191  0.00  0.00    -0.008 A 
ATOM      7  C   UNL     1       0.023  -0.701   1.196  0.00  0.00    +0.010 A 
ATOM      8  C   UNL     1       0.052  -2.841   2.493  0.00  0.00    +0.047 C 
ATOM      9  C   UNL     1       0.027  -2.813  -2.520  0.00  0.00    +0.047 C 
ENDROOT
BRANCH   5  10
ATOM     10  O   UNL     1       0.057  -4.129  -0.021  0.00  0.00    -0.424 OA
BRANCH  10  11
ATOM     11  C   UNL     1       1.250  -4.744  -0.030  0.00  0.00    +0.329 C 
ATOM     12  O   UNL     1       2.267  -4.091  -0.032  0.00  0.00    -0.249 OA
BRANCH  11  13
ATOM     13  C   UNL     1       1.322  -6.250  -0.039  0.00  0.00    +0.158 C 
ATOM     14  C   UNL     1       0.633  -6.800   1.211  0.00  0.00    +0.036 C 
BRANCH  13  15
ATOM     15  N   UNL     1       2.729  -6.672  -0.048  0.00  0.00    -0.319 NA
ATOM     16  H   UNL     1       2.804  -7.679  -0.054  0.00  0.00    +0.119 HD
ATOM     17  H   UNL     1       3.223  -6.268  -0.830  0.00  0.00    +0.119 HD
ENDBRANCH  13  15
ENDBRANCH  11  13
ENDBRANCH  10  11
ENDBRANCH   5  10
TORSDOF 4
