REMARK  Name = ZINC01223575
REMARK  8 active torsions:
REMARK  status: ('A' for Active; 'I' for Inactive)
REMARK    1  A    between atoms: C_1  and  C_2
REMARK    2  A    between atoms: C_10  and  C_12
REMARK    3  A    between atoms: C_14  and  C_25
REMARK    4  A    between atoms: C_15  and  N_24
REMARK    5  A    between atoms: C_17  and  C_23
REMARK    6  A    between atoms: C_18  and  C_19
REMARK    7  A    between atoms: C_19  and  O_21
REMARK    8  A    between atoms: O_21  and  C_22
REMARK                            x       y       z     vdW  Elec       q    Type
REMARK                         _______ _______ _______ _____ _____    ______ ____
ROOT
ATOM      1  C   UNL     1       0.086  -2.851   4.884  0.00  0.00    +0.107 C 
ATOM      2  C   UNL     1       1.330  -3.692   4.975  0.00  0.00    +0.098 C 
ATOM      3  C   UNL     1       1.272  -5.036   4.811  0.00  0.00    +0.198 C 
ATOM      4  O   UNL     1       0.108  -5.664   4.562  0.00  0.00    -0.445 OA
ATOM      5  C   UNL     1      -1.055  -5.050   4.834  0.00  0.00    +0.115 C 
ATOM      6  C   UNL     1      -1.133  -3.725   4.997  0.00  0.00    +0.087 C 
ATOM      7  C   UNL     1      -2.307  -5.879   4.959  0.00  0.00    +0.087 C 
ENDROOT
BRANCH   1  17
ATOM      8  C   UNL     1      -0.018   1.503   0.010  0.00  0.00    +0.046 C 
ATOM      9  C   UNL     1       0.002  -0.004   0.002  0.00  0.00    -0.024 A 
ATOM     10  C   UNL     1       0.006  -0.681  -1.179  0.00  0.00    +0.005 A 
ATOM     11  C   UNL     1       0.025  -2.073  -1.209  0.00  0.00    +0.001 A 
ATOM     12  C   UNL     1       0.040  -2.797  -0.056  0.00  0.00    +0.010 A 
ATOM     13  C   UNL     1       0.036  -2.132   1.180  0.00  0.00    +0.001 A 
ATOM     14  C   UNL     1       0.023  -0.716   1.214  0.00  0.00    +0.076 A 
ATOM     15  N   UNL     1       0.025  -0.078   2.389  0.00  0.00    -0.235 NA
ATOM     16  C   UNL     1       0.045  -0.737   3.523  0.00  0.00    +0.134 A 
ATOM     17  C   UNL     1       0.064  -2.132   3.560  0.00  0.00    +0.003 A 
ATOM     18  C   UNL     1       0.051  -2.844   2.395  0.00  0.00    +0.017 A 
ATOM     19 CL   UNL     1       0.047   0.148   5.016  0.00  0.00    -0.062 Cl
ENDBRANCH   1  17
BRANCH   3  20
ATOM     20  N   UNL     1       2.426  -5.773   4.899  0.00  0.00    -0.328 N 
ATOM     21  H   UNL     1       3.271  -5.332   5.077  0.00  0.00    +0.145 HD
ATOM     22  H   UNL     1       2.397  -6.736   4.783  0.00  0.00    +0.145 HD
ENDBRANCH   3  20
BRANCH   6  23
ATOM     23  C   UNL     1      -2.388  -3.135   5.283  0.00  0.00    +0.339 C 
ATOM     24  O   UNL     1      -3.381  -3.833   5.377  0.00  0.00    -0.245 OA
BRANCH  23  25
ATOM     25  O   UNL     1      -2.484  -1.800   5.450  0.00  0.00    -0.465 OA
ATOM     26  C   UNL     1      -3.781  -1.273   5.735  0.00  0.00    +0.280 C 
ENDBRANCH  23  25
ENDBRANCH   6  23
BRANCH   2  27
ATOM     27  C   UNL     1       2.590  -3.065   5.238  0.00  0.00    +0.101 C 
ATOM     28  N   UNL     1       3.590  -2.568   5.446  0.00  0.00    -0.191 NA
ENDBRANCH   2  27
TORSDOF 5
