REMARK  Name = ZINC25076992
REMARK  7 active torsions:
REMARK  status: ('A' for Active; 'I' for Inactive)
REMARK    1  A    between atoms: C_4  and  C_7
REMARK    2  A    between atoms: C_7  and  C_8
REMARK    3  A    between atoms: C_8  and  C_10
REMARK    4  A    between atoms: C_8  and  N_21
REMARK    5  A    between atoms: N_12  and  C_13
REMARK    6  A    between atoms: C_13  and  C_14
REMARK    7  A    between atoms: C_26  and  O_34
REMARK                            x       y       z     vdW  Elec       q    Type
REMARK                         _______ _______ _______ _____ _____    ______ ____
ROOT
ATOM      1  C   UNL     1       1.280   1.980   0.001  0.00  0.00    +0.165 C 
ENDROOT
BRANCH   1   2
ATOM      2  N   UNL     1       2.407   1.043  -0.015  0.00  0.00    -0.287 N 
ATOM      3  C   UNL     1       3.596   1.428  -0.518  0.00  0.00    +0.308 C 
ATOM      4  O   UNL     1       3.735   2.553  -0.958  0.00  0.00    -0.252 OA
ATOM      5  N   UNL     1       4.633   0.566  -0.532  0.00  0.00    -0.245 N 
ATOM      6  C   UNL     1       4.502  -0.801  -0.002  0.00  0.00    +0.210 C 
ATOM      7  C   UNL     1       5.752  -1.159   0.751  0.00  0.00    +0.206 C 
ATOM      8  N   UNL     1       6.895  -0.622   0.466  0.00  0.00    -0.214 NA
ATOM      9  C   UNL     1       7.027   0.309  -0.529  0.00  0.00    +0.089 A 
ATOM     10  C   UNL     1       5.884   0.935  -1.048  0.00  0.00    +0.064 A 
ATOM     11  C   UNL     1       6.002   1.887  -2.042  0.00  0.00    +0.026 A 
ATOM     12  C   UNL     1       7.255   2.220  -2.529  0.00  0.00    +0.002 A 
ATOM     13  C   UNL     1       8.386   1.602  -2.025  0.00  0.00    +0.002 A 
ATOM     14  C   UNL     1       8.281   0.650  -1.030  0.00  0.00    +0.030 A 
ATOM     15  H   UNL     1       2.281   0.025   0.383  0.00  0.00    +0.151 HD
BRANCH   7  16
ATOM     16  O   UNL     1       5.681  -2.061   1.752  0.00  0.00    -0.494 OA
ATOM     17  H   UNL     1       6.587  -2.334   2.312  0.00  0.00    +0.293 HD
ENDBRANCH   7  16
ENDBRANCH   1   2
BRANCH   1  18
ATOM     18  C   UNL     1      -0.014   1.209   0.009  0.00  0.00    +0.234 C 
ATOM     19  O   UNL     1       0.002  -0.004   0.002  0.00  0.00    -0.274 OA
ATOM     20  N   UNL     1      -1.191   1.867   0.018  0.00  0.00    -0.310 N 
ATOM     21  H   UNL     1      -1.206   2.966   0.024  0.00  0.00    +0.149 HD
BRANCH  20  22
ATOM     22  C   UNL     1      -2.449   1.117   0.020  0.00  0.00    +0.139 C 
BRANCH  22  23
ATOM     23  C   UNL     1      -3.608   2.080   0.030  0.00  0.00    -0.030 A 
ATOM     24  C   UNL     1      -4.137   2.511   1.233  0.00  0.00    +0.008 A 
ATOM     25  C   UNL     1      -5.196   3.399   1.244  0.00  0.00    +0.038 A 
ATOM     26  C   UNL     1      -5.735   3.848   0.050  0.00  0.00    +0.123 A 
ATOM     27  C   UNL     1      -5.207   3.412  -1.153  0.00  0.00    +0.038 A 
ATOM     28  C   UNL     1      -4.144   2.529  -1.162  0.00  0.00    +0.008 A 
ATOM     29  F   UNL     1      -6.773   4.712   0.060  0.00  0.00    -0.205 F 
ENDBRANCH  22  23
ENDBRANCH  20  22
ENDBRANCH   1  18
BRANCH   1  30
ATOM     30  C   UNL     1       1.361   2.854   1.254  0.00  0.00    +0.067 C 
BRANCH  30  34
ATOM     31  C   UNL     1       4.860   5.297   1.063  0.00  0.00    +0.000 A 
ATOM     32  C   UNL     1       3.667   5.756   0.538  0.00  0.00    +0.000 A 
ATOM     33  C   UNL     1       2.535   4.966   0.600  0.00  0.00    +0.004 A 
ATOM     34  C   UNL     1       2.596   3.716   1.186  0.00  0.00    -0.045 A 
ATOM     35  C   UNL     1       3.788   3.258   1.716  0.00  0.00    +0.004 A 
ATOM     36  C   UNL     1       4.921   4.047   1.650  0.00  0.00    +0.000 A 
ENDBRANCH  30  34
ENDBRANCH   1  30
TORSDOF 7
