REMARK  Name = ZINC36286426
REMARK  4 active torsions:
REMARK  status: ('A' for Active; 'I' for Inactive)
REMARK    1  A    between atoms: C_1  and  C_2
REMARK    2  A    between atoms: C_7  and  C_21
REMARK    3  A    between atoms: C_10  and  C_12
REMARK    4  A    between atoms: C_15  and  N_19
REMARK                            x       y       z     vdW  Elec       q    Type
REMARK                         _______ _______ _______ _____ _____    ______ ____
ROOT
ATOM      1  C   UNL     1      -0.793   0.468  -0.487  0.00  0.00    +0.029 C 
ATOM      2  C   UNL     1      -1.500   0.274   0.856  0.00  0.00    +0.091 C 
ATOM      3  C   UNL     1      -2.283   1.543   1.214  0.00  0.00    +0.128 C 
ATOM      4  N   UNL     1      -2.735   1.438   2.609  0.00  0.00    -0.313 N 
ATOM      5  C   UNL     1      -1.738   1.189   3.659  0.00  0.00    +0.128 C 
ATOM      6  C   UNL     1      -0.955  -0.080   3.301  0.00  0.00    +0.091 C 
ATOM      7  N   UNL     1      -0.503   0.021   1.906  0.00  0.00    -0.289 N 
ATOM      8  C   UNL     1       0.801  -0.112   1.595  0.00  0.00    +0.247 C 
ATOM      9  O   UNL     1       1.130  -0.412   0.464  0.00  0.00    -0.270 OA
ATOM     10  C   UNL     1       0.255  -0.215   4.228  0.00  0.00    +0.029 C 
ATOM     11  C   UNL     1      -4.081   1.572   2.928  0.00  0.00    +0.099 A 
ATOM     12  C   UNL     1      -4.473   1.601   4.263  0.00  0.00    +0.042 A 
ATOM     13  C   UNL     1      -5.816   1.734   4.567  0.00  0.00    +0.005 A 
ATOM     14  C   UNL     1      -6.725   1.835   3.522  0.00  0.00    +0.018 A 
ATOM     15  C   UNL     1      -6.266   1.799   2.220  0.00  0.00    +0.084 A 
ATOM     16  N   UNL     1      -4.978   1.676   1.960  0.00  0.00    -0.350 N 
ATOM     17  H   UNL     1      -4.682   1.657   1.037  0.00  0.00    +0.166 HD
ENDROOT
BRANCH   8  18
ATOM     18  C   UNL     1       1.832   0.106   2.629  0.00  0.00    +0.040 A 
ATOM     19  C   UNL     1       2.449  -0.987   3.244  0.00  0.00    +0.035 A 
ATOM     20  C   UNL     1       3.410  -0.780   4.208  0.00  0.00    +0.064 A 
ATOM     21  C   UNL     1       3.768   0.517   4.571  0.00  0.00    +0.062 A 
ATOM     22  C   UNL     1       3.154   1.607   3.959  0.00  0.00    +0.064 A 
ATOM     23  C   UNL     1       2.196   1.407   2.990  0.00  0.00    +0.035 A 
ATOM     24 CL   UNL     1       3.602   3.222   4.415  0.00  0.00    -0.082 Cl
ATOM     25 CL   UNL     1       4.177  -2.136   4.973  0.00  0.00    -0.082 Cl
BRANCH  21  26
ATOM     26  N   UNL     1       4.739   0.723   5.545  0.00  0.00    -0.356 N 
ATOM     27  H   UNL     1       5.167  -0.036   5.972  0.00  0.00    +0.142 HD
ATOM     28  H   UNL     1       4.989   1.625   5.798  0.00  0.00    +0.142 HD
ENDBRANCH  21  26
ENDBRANCH   8  18
TORSDOF 2
