REMARK  Name = ZINC04453513
REMARK  7 active torsions:
REMARK  status: ('A' for Active; 'I' for Inactive)
REMARK    1  A    between atoms: C_1  and  C_2
REMARK    2  A    between atoms: C_2  and  N_3
REMARK    3  A    between atoms: C_10  and  C_22
REMARK    4  A    between atoms: C_12  and  C_18
REMARK    5  A    between atoms: C_12  and  C_20
REMARK    6  A    between atoms: C_13  and  N_17
REMARK    7  A    between atoms: C_14  and  C_15
REMARK                            x       y       z     vdW  Elec       q    Type
REMARK                         _______ _______ _______ _____ _____    ______ ____
ROOT
ATOM      1  N   UNL     1       1.178  -0.996  -0.978  0.00  0.00    -0.298 NA
ATOM      2  C   UNL     1       2.629  -0.756  -1.073  0.00  0.00    +0.112 C 
ATOM      3  C   UNL     1       3.023  -0.918  -2.521  0.00  0.00    -0.007 C 
ATOM      4  C   UNL     1       2.391  -1.792  -3.282  0.00  0.00    -0.026 C 
ATOM      5  C   UNL     1       1.308  -2.695  -2.764  0.00  0.00    +0.044 C 
ATOM      6  C   UNL     1       0.867  -2.378  -1.354  0.00  0.00    +0.093 C 
ATOM      7  C   UNL     1       0.144  -2.658  -3.755  0.00  0.00    +0.069 C 
ATOM      8  C   UNL     1       0.618  -3.217  -5.097  0.00  0.00    +0.188 C 
ATOM      9  C   UNL     1       1.890  -2.569  -5.553  0.00  0.00    +0.054 C 
ATOM     10  C   UNL     1       2.737  -1.910  -4.721  0.00  0.00    +0.074 C 
ENDROOT
BRANCH   7  11
ATOM     11  C   UNL     1      -0.993  -3.496  -3.230  0.00  0.00    -0.019 A 
ATOM     12  C   UNL     1      -0.762  -4.801  -2.835  0.00  0.00    +0.055 A 
ATOM     13  C   UNL     1      -1.805  -5.574  -2.351  0.00  0.00    +0.167 A 
ATOM     14  C   UNL     1      -3.086  -5.033  -2.264  0.00  0.00    +0.168 A 
ATOM     15  C   UNL     1      -3.311  -3.725  -2.661  0.00  0.00    +0.069 A 
ATOM     16  C   UNL     1      -2.263  -2.957  -3.139  0.00  0.00    +0.048 A 
ATOM     17 CL   UNL     1      -2.545  -1.316  -3.630  0.00  0.00    -0.083 Cl
ATOM     18  O   UNL     1      -3.928  -5.984  -1.763  0.00  0.00    -0.453 OA
ATOM     19  C   UNL     1      -3.236  -7.235  -1.928  0.00  0.00    +0.466 C 
ATOM     20  O   UNL     1      -1.845  -6.863  -1.904  0.00  0.00    -0.453 OA
ENDBRANCH   7  11
BRANCH   9  21
ATOM     21  N   UNL     1       2.216  -2.645  -6.878  0.00  0.00    -0.358 N 
ATOM     22  H   UNL     1       1.630  -3.110  -7.495  0.00  0.00    +0.142 HD
ATOM     23  H   UNL     1       3.034  -2.235  -7.201  0.00  0.00    +0.142 HD
ENDBRANCH   9  21
BRANCH   1  25
ATOM     24  C   UNL     1       0.798   0.809   0.634  0.00  0.00    +0.020 C 
ATOM     25  C   UNL     1       0.682  -0.694   0.372  0.00  0.00    +0.081 C 
ENDBRANCH   1  25
BRANCH  10  26
ATOM     26  C   UNL     1       3.948  -1.336  -5.225  0.00  0.00    +0.101 C 
ATOM     27  N   UNL     1       4.909  -0.880  -5.624  0.00  0.00    -0.191 NA
ENDBRANCH  10  26
BRANCH   8  28
ATOM     28  C   UNL     1       0.840  -4.666  -4.962  0.00  0.00    +0.091 C 
ATOM     29  N   UNL     1       1.012  -5.784  -4.857  0.00  0.00    -0.194 NA
ENDBRANCH   8  28
BRANCH   8  30
ATOM     30  C   UNL     1      -0.426  -2.986  -6.109  0.00  0.00    +0.091 C 
ATOM     31  N   UNL     1      -1.232  -2.808  -6.889  0.00  0.00    -0.194 NA
ENDBRANCH   8  30
TORSDOF 6
