REMARK  Name = ZINC40701566
REMARK  4 active torsions:
REMARK  status: ('A' for Active; 'I' for Inactive)
REMARK    1  A    between atoms: C_1  and  C_2
REMARK    2  A    between atoms: C_3  and  N_9
REMARK    3  A    between atoms: C_11  and  N_24
REMARK    4  A    between atoms: C_12  and  N_16
REMARK                            x       y       z     vdW  Elec       q    Type
REMARK                         _______ _______ _______ _____ _____    ______ ____
ROOT
ATOM      1  N   UNL     1      -0.014   0.010  -2.412  0.00  0.00    -0.298 N 
ATOM      2  C   UNL     1       0.096  -0.675  -3.617  0.00  0.00    +0.149 A 
ATOM      3  C   UNL     1       0.193   0.021  -4.823  0.00  0.00    +0.106 A 
ATOM      4  C   UNL     1       0.301  -0.716  -6.004  0.00  0.00    +0.150 A 
ATOM      5  N   UNL     1       0.307  -2.045  -5.935  0.00  0.00    -0.219 NA
ATOM      6  C   UNL     1       0.214  -2.664  -4.776  0.00  0.00    +0.225 A 
ATOM      7  N   UNL     1       0.116  -2.006  -3.638  0.00  0.00    -0.219 NA
ATOM      8  H   UNL     1      -0.111   0.975  -2.411  0.00  0.00    +0.154 HD
ENDROOT
BRANCH   4   9
ATOM      9  N   UNL     1       0.400  -0.072  -7.232  0.00  0.00    -0.283 N 
ATOM     10  C   UNL     1       0.401  -0.814  -8.409  0.00  0.00    +0.124 A 
ATOM     11  C   UNL     1       0.394  -0.160  -9.637  0.00  0.00    +0.045 A 
ATOM     12  C   UNL     1       0.395  -0.910 -10.799  0.00  0.00    +0.020 A 
ATOM     13  C   UNL     1       0.404  -2.296 -10.694  0.00  0.00    +0.036 A 
ATOM     14  C   UNL     1       0.410  -2.878  -9.442  0.00  0.00    +0.128 A 
ATOM     15  N   UNL     1       0.414  -2.137  -8.350  0.00  0.00    -0.239 NA
ATOM     16 BR   UNL     1       0.405  -3.372 -12.249  0.00  0.00    -0.049 Br
ATOM     17  H   UNL     1       0.468   0.895  -7.269  0.00  0.00    +0.155 HD
ENDBRANCH   4   9
BRANCH   1  20
ATOM     18  C   UNL     1      -1.265   1.189  -0.145  0.00  0.00    +0.047 C 
ATOM     19  C   UNL     1      -0.583  -0.153  -0.072  0.00  0.00    -0.011 A 
ATOM     20  C   UNL     1       0.016  -0.691  -1.204  0.00  0.00    +0.037 A 
ATOM     21  C   UNL     1       0.643  -1.928  -1.133  0.00  0.00    +0.023 A 
ATOM     22  C   UNL     1       0.671  -2.620   0.063  0.00  0.00    +0.003 A 
ATOM     23  C   UNL     1       0.074  -2.082   1.188  0.00  0.00    +0.020 A 
ATOM     24  C   UNL     1      -0.547  -0.847   1.123  0.00  0.00    +0.046 A 
ATOM     25 CL   UNL     1      -1.288  -0.172   2.540  0.00  0.00    -0.083 Cl
ENDBRANCH   1  20
BRANCH   3  26
ATOM     26  N   UNL     1       0.181   1.425  -4.848  0.00  0.00    -0.353 N 
ATOM     27  H   UNL     1       0.105   1.924  -4.020  0.00  0.00    +0.143 HD
ATOM     28  H   UNL     1       0.249   1.895  -5.694  0.00  0.00    +0.143 HD
ENDBRANCH   3  26
TORSDOF 3
