REMARK  Name = ZINC21633035
REMARK  7 active torsions:
REMARK  status: ('A' for Active; 'I' for Inactive)
REMARK    1  A    between atoms: C_1  and  C_2
REMARK    2  A    between atoms: C_3  and  N_22
REMARK    3  A    between atoms: C_5  and  S_9
REMARK    4  A    between atoms: S_9  and  N_12
REMARK    5  A    between atoms: N_12  and  N_13
REMARK    6  A    between atoms: C_14  and  C_16
REMARK    7  A    between atoms: N_20  and  C_21
REMARK                            x       y       z     vdW  Elec       q    Type
REMARK                         _______ _______ _______ _____ _____    ______ ____
ROOT
ATOM      1  S   UNL     1       3.544   2.595   0.568  0.00  0.00    +0.074 S 
ATOM      2  O   UNL     1       3.236   3.855   1.149  0.00  0.00    -0.152 OA
ATOM      3  O   UNL     1       4.521   1.721   1.117  0.00  0.00    -0.152 OA
ENDROOT
BRANCH   1   8
ATOM      4  C   UNL     1      -1.622  -0.516   0.341  0.00  0.00    +0.047 C 
ATOM      5  C   UNL     1      -0.332   0.261   0.401  0.00  0.00    -0.002 A 
ATOM      6  C   UNL     1       0.878  -0.407   0.415  0.00  0.00    +0.132 A 
ATOM      7  C   UNL     1       2.061   0.305   0.465  0.00  0.00    +0.061 A 
ATOM      8  C   UNL     1       2.035   1.687   0.505  0.00  0.00    +0.110 A 
ATOM      9  C   UNL     1       0.826   2.357   0.496  0.00  0.00    +0.049 A 
ATOM     10  C   UNL     1      -0.359   1.644   0.447  0.00  0.00    +0.048 A 
ATOM     11 CL   UNL     1      -1.878   2.484   0.436  0.00  0.00    -0.083 Cl
BRANCH   6  12
ATOM     12  N   UNL     1       0.906  -1.886   0.371  0.00  0.00    +0.057 N 
ATOM     13  O   UNL     1       0.060  -2.530   0.966  0.00  0.00    -0.126 OA
ATOM     14  O   UNL     1       1.776  -2.460  -0.260  0.00  0.00    -0.126 OA
ENDBRANCH   6  12
ENDBRANCH   1   8
BRANCH   1  15
ATOM     15  N   UNL     1       4.001   2.894  -0.996  0.00  0.00    -0.108 NA
ATOM     16  H   UNL     1       4.851   2.561  -1.325  0.00  0.00    +0.172 HD
BRANCH  15  17
ATOM     17  N   UNL     1       3.161   3.627  -1.843  0.00  0.00    -0.227 N 
ATOM     18  C   UNL     1       3.627   4.727  -2.468  0.00  0.00    +0.275 C 
ATOM     19  O   UNL     1       4.799   5.037  -2.361  0.00  0.00    -0.267 OA
ATOM     20  H   UNL     1       2.120   3.305  -1.999  0.00  0.00    +0.171 HD
BRANCH  18  21
ATOM     21  C   UNL     1       2.721   5.550  -3.277  0.00  0.00    +0.105 A 
ATOM     22  C   UNL     1       1.397   5.279  -3.548  0.00  0.00    +0.032 A 
ATOM     23  C   UNL     1       0.920   6.320  -4.350  0.00  0.00    +0.020 A 
ATOM     24  C   UNL     1       1.940   7.189  -4.552  0.00  0.00    +0.086 A 
ATOM     25  N   UNL     1       3.038   6.736  -3.900  0.00  0.00    -0.346 N 
ATOM     26  C   UNL     1       4.345   7.396  -3.866  0.00  0.00    +0.149 C 
ENDBRANCH  18  21
ENDBRANCH  15  17
ENDBRANCH   1  15
TORSDOF 5
