REMARK  Name = ZINC41378765
REMARK  11 active torsions:
REMARK  status: ('A' for Active; 'I' for Inactive)
REMARK    1  A    between atoms: CB_1  and  CA_2
REMARK    2  A    between atoms: CA_2  and  C_4
REMARK    3  A    between atoms: CA_2  and  N_6
REMARK    4  A    between atoms: C_4  and  O_5
REMARK    5  A    between atoms: C_7  and  C_9
REMARK    6  A    between atoms: N_11  and  C_12
REMARK    7  A    between atoms: C_16  and  C_18
REMARK    8  A    between atoms: C_19  and  C_20
REMARK    9  A    between atoms: C_24  and  C_26
REMARK   10  A    between atoms: C_26  and  O_28
REMARK   11  A    between atoms: O_28  and  C_29
REMARK                            x       y       z     vdW  Elec       q    Type
REMARK                         _______ _______ _______ _____ _____    ______ ____
ROOT
ATOM      1  C   UNK A   0      -5.409  -1.853  -2.344  0.00  0.00    +0.035 A 
ATOM      2  C   UNK A   0      -6.065  -2.202  -1.168  0.00  0.00    +0.023 A 
ATOM      3  C   UNK A   0      -7.329  -2.758  -1.215  0.00  0.00    +0.003 A 
ATOM      4  C   UNK A   0      -7.951  -2.970  -2.429  0.00  0.00    +0.017 A 
ATOM      5  C   UNK A   0      -7.301  -2.623  -3.616  0.00  0.00    +0.027 A 
ATOM      6  C   UNK A   0      -6.026  -2.057  -3.569  0.00  0.00    +0.040 A 
ENDROOT
BRANCH   1   9
ATOM      7  C   UNK A   0      -3.257  -1.693  -1.347  0.00  0.00    +0.303 C 
ATOM      8  O   UNK A   0      -3.607  -2.479  -0.491  0.00  0.00    -0.265 OA
ATOM      9  N   UNK A   0      -4.130  -1.291  -2.291  0.00  0.00    -0.278 N 
ATOM     10  H   UNK A   0      -3.872  -0.612  -2.934  0.00  0.00    +0.155 HD
BRANCH   7  12
ATOM     11  N   ALA A   1      -0.984  -1.570  -0.408  0.00  0.00    -0.303 N 
ATOM     12  C   UNK A   0      -1.858  -1.169  -1.352  0.00  0.00    +0.300 C 
ATOM     13  O   UNK A   0      -1.508  -0.382  -2.208  0.00  0.00    -0.265 OA
ATOM     14  H   ALA A   1      -1.264  -2.199   0.276  0.00  0.00    +0.150 HD
BRANCH  11  16
ATOM     15  CB  ALA A   1       0.433   0.284   0.322  0.00  0.00    +0.030 C 
ATOM     16  CA  ALA A   1       0.388  -1.057  -0.413  0.00  0.00    +0.096 C 
BRANCH  16  17
ATOM     17  C   ALA A   1       1.309  -2.056   0.289  0.00  0.00    +0.177 C 
BRANCH  17  18
ATOM     18  O   ALA A   1       0.946  -2.150   1.668  0.00  0.00    -0.393 OA
ATOM     19  H   ALA A   1       1.490  -2.767   2.176  0.00  0.00    +0.209 HD
ENDBRANCH  17  18
ENDBRANCH  16  17
ENDBRANCH  11  16
ENDBRANCH   7  12
ENDBRANCH   1   9
BRANCH   5  20
ATOM     20  C   UNK A   0      -7.944  -2.843  -4.877  0.00  0.00    -0.061 C 
ATOM     21  C   UNK A   0      -8.470  -3.022  -5.911  0.00  0.00    -0.061 C 
BRANCH  21  22
ATOM     22  C   UNK A   0      -9.113  -3.242  -7.172  0.00  0.00    +0.026 A 
ATOM     23  C   UNK A   0     -10.395  -3.799  -7.218  0.00  0.00    +0.017 A 
ATOM     24  C   UNK A   0     -11.015  -4.011  -8.433  0.00  0.00    +0.002 A 
ATOM     25  C   UNK A   0     -10.376  -3.675  -9.610  0.00  0.00    +0.015 A 
ATOM     26  C   UNK A   0      -9.095  -3.117  -9.579  0.00  0.00    +0.060 A 
ATOM     27  C   UNK A   0      -8.464  -2.896  -8.357  0.00  0.00    +0.031 A 
BRANCH  26  28
ATOM     28  C   UNK A   0      -8.413  -2.759 -10.840  0.00  0.00    +0.339 C 
ATOM     29  O   UNK A   0      -7.300  -2.274 -10.812  0.00  0.00    -0.245 OA
BRANCH  28  30
ATOM     30  O   UNK A   0      -9.026  -2.969 -12.021  0.00  0.00    -0.464 OA
ATOM     31  C   UNK A   0      -8.309  -2.599 -13.200  0.00  0.00    +0.280 C 
ENDBRANCH  28  30
ENDBRANCH  26  28
ENDBRANCH  21  22
ENDBRANCH   5  20
TORSDOF 9
