REMARK  Name = ZINC64352850
REMARK  8 active torsions:
REMARK  status: ('A' for Active; 'I' for Inactive)
REMARK    1  A    between atoms: C_4  and  C_7
REMARK    2  A    between atoms: C_7  and  N_8
REMARK    3  A    between atoms: N_11  and  C_12
REMARK    4  A    between atoms: C_12  and  C_13
REMARK    5  A    between atoms: N_15  and  C_16
REMARK    6  A    between atoms: C_16  and  C_17
REMARK    7  A    between atoms: C_17  and  C_19
REMARK    8  A    between atoms: C_17  and  C_26
REMARK                            x       y       z     vdW  Elec       q    Type
REMARK                         _______ _______ _______ _____ _____    ______ ____
ROOT
ATOM      1  C   UNL     1       8.512  -3.387   6.485  0.00  0.00    +0.116 C 
ENDROOT
BRANCH   1   4
ATOM      2  C   UNL     1       7.196  -2.652   4.571  0.00  0.00    +0.230 C 
ATOM      3  O   UNL     1       6.381  -2.196   5.344  0.00  0.00    -0.274 OA
ATOM      4  N   UNL     1       8.299  -3.269   5.041  0.00  0.00    -0.313 N 
ATOM      5  H   UNL     1       8.951  -3.634   4.422  0.00  0.00    +0.149 HD
BRANCH   2   6
ATOM      6  C   UNL     1       6.976  -2.531   3.085  0.00  0.00    +0.201 C 
BRANCH   6  10
ATOM      7  N   UNL     1       4.152  -0.952   1.338  0.00  0.00    -0.295 N 
ATOM      8  C   UNL     1       5.311  -1.601   1.569  0.00  0.00    +0.300 C 
ATOM      9  O   UNL     1       5.991  -1.982   0.636  0.00  0.00    -0.253 OA
ATOM     10  N   UNL     1       5.716  -1.826   2.834  0.00  0.00    -0.291 N 
ATOM     11  H   UNL     1       3.610  -0.648   2.082  0.00  0.00    +0.151 HD
ATOM     12  H   UNL     1       5.174  -1.522   3.579  0.00  0.00    +0.151 HD
BRANCH   7  13
ATOM     13  C   UNL     1       3.711  -0.707  -0.038  0.00  0.00    +0.141 C 
BRANCH  13  17
ATOM     14  C   UNL     1      -0.017   1.378   0.010  0.00  0.00    +0.000 A 
ATOM     15  C   UNL     1       1.171   2.086   0.002  0.00  0.00    +0.000 A 
ATOM     16  C   UNL     1       2.377   1.411  -0.013  0.00  0.00    +0.005 A 
ATOM     17  C   UNL     1       2.396   0.029  -0.020  0.00  0.00    -0.030 A 
ATOM     18  C   UNL     1       1.208  -0.679  -0.012  0.00  0.00    +0.005 A 
ATOM     19  C   UNL     1       0.002  -0.004   0.002  0.00  0.00    +0.000 A 
ENDBRANCH  13  17
ENDBRANCH   7  13
ENDBRANCH   6  10
ENDBRANCH   2   6
ENDBRANCH   1   4
BRANCH   1  20
ATOM     20  C   UNL     1       9.828  -4.123   6.747  0.00  0.00    +0.066 C 
BRANCH  20  21
ATOM     21  C   UNL     1      10.110  -4.137   8.228  0.00  0.00    -0.033 C 
ATOM     22  C   UNL     1      11.183  -3.607   8.857  0.00  0.00    -0.000 A 
ATOM     23  C   UNL     1      12.366  -2.887   8.369  0.00  0.00    +0.010 A 
ATOM     24  C   UNL     1      13.293  -2.470   9.260  0.00  0.00    +0.001 A 
ATOM     25  C   UNL     1      13.155  -2.708  10.635  0.00  0.00    +0.002 A 
ATOM     26  C   UNL     1      12.096  -3.362  11.158  0.00  0.00    +0.026 A 
ATOM     27  C   UNL     1      11.060  -3.845  10.312  0.00  0.00    +0.043 A 
ATOM     28  N   UNL     1       9.953  -4.497  10.573  0.00  0.00    -0.380 N 
ATOM     29  C   UNL     1       9.245  -4.741   9.312  0.00  0.00    +0.145 C 
ATOM     30  H   UNL     1       9.650  -4.769  11.454  0.00  0.00    +0.160 HD
ENDBRANCH  20  21
BRANCH  20  31
ATOM     31  C   UNL     1       9.721  -5.539   6.243  0.00  0.00    -0.020 A 
ATOM     32  C   UNL     1       8.753  -6.383   6.754  0.00  0.00    +0.006 A 
ATOM     33  C   UNL     1       8.655  -7.682   6.291  0.00  0.00    +0.000 A 
ATOM     34  C   UNL     1       9.524  -8.137   5.317  0.00  0.00    +0.001 A 
ATOM     35  C   UNL     1      10.492  -7.294   4.806  0.00  0.00    +0.020 A 
ATOM     36  C   UNL     1      10.588  -5.992   5.264  0.00  0.00    +0.045 A 
ATOM     37 CL   UNL     1      11.799  -4.930   4.617  0.00  0.00    -0.083 Cl
ENDBRANCH  20  31
ENDBRANCH   1  20
TORSDOF 8
