REMARK  Name = ZINC39231309
REMARK  4 active torsions:
REMARK  status: ('A' for Active; 'I' for Inactive)
REMARK    1  A    between atoms: C_20  and  O_35
REMARK    2  A    between atoms: C_22  and  C_24
REMARK    3  A    between atoms: N_26  and  C_27
REMARK    4  A    between atoms: C_27  and  C_28
REMARK                            x       y       z     vdW  Elec       q    Type
REMARK                         _______ _______ _______ _____ _____    ______ ____
ROOT
ATOM      1  C   UNL     1      -0.017   1.369   0.010  0.00  0.00    +0.001 A 
ATOM      2  C   UNL     1       1.147   2.120   0.003  0.00  0.00    +0.002 A 
ATOM      3  C   UNL     1       2.402   1.538  -0.013  0.00  0.00    +0.026 A 
ATOM      4  C   UNL     1       2.453   0.146  -0.020  0.00  0.00    +0.047 A 
ATOM      5  C   UNL     1       1.258  -0.620  -0.013  0.00  0.00    +0.003 A 
ATOM      6  C   UNL     1       0.002  -0.004   0.002  0.00  0.00    +0.010 A 
ATOM      7  C   UNL     1       1.673  -2.004  -0.023  0.00  0.00    -0.022 A 
ATOM      8  C   UNL     1       3.027  -2.015  -0.034  0.00  0.00    +0.006 A 
ATOM      9  N   UNL     1       3.499  -0.731  -0.033  0.00  0.00    -0.359 N 
ATOM     10  H   UNL     1       4.437  -0.481  -0.041  0.00  0.00    +0.166 HD
ATOM     11  C   UNL     1       3.830  -3.291  -0.043  0.00  0.00    -0.020 C 
ATOM     12  C   UNL     1       5.013  -3.163  -1.005  0.00  0.00    -0.005 C 
ATOM     13  C   UNL     1       5.803  -4.473  -0.984  0.00  0.00    +0.004 C 
ATOM     14  C   UNL     1       4.873  -5.630  -1.357  0.00  0.00    -0.024 C 
ATOM     15  C   UNL     1       5.652  -6.944  -1.285  0.00  0.00    +0.004 C 
ATOM     16  C   UNL     1       6.817  -6.893  -2.276  0.00  0.00    +0.032 C 
ATOM     17  C   UNL     1       7.741  -5.725  -1.930  0.00  0.00    +0.127 C 
ATOM     18  C   UNL     1       6.954  -4.413  -1.989  0.00  0.00    +0.107 C 
ATOM     19  C   UNL     1       3.692  -5.668  -0.386  0.00  0.00    -0.074 C 
ATOM     20  N   UNL     1       2.960  -4.392  -0.479  0.00  0.00    +0.386 N 
ATOM     21  C   UNL     1       1.746  -4.440   0.342  0.00  0.00    -0.073 C 
ATOM     22  C   UNL     1       0.835  -3.258  -0.020  0.00  0.00    +0.019 C 
ATOM     23  H   UNL     1       2.690  -4.236  -1.438  0.00  0.00    -0.081 HD
ENDROOT
BRANCH  18  24
ATOM     24  C   UNL     1       7.867  -3.266  -1.641  0.00  0.00    +0.219 C 
ATOM     25  O   UNL     1       7.622  -2.565  -0.682  0.00  0.00    -0.275 OA
ATOM     26  N   UNL     1       8.956  -3.019  -2.396  0.00  0.00    -0.311 N 
ATOM     27  H   UNL     1       9.152  -3.580  -3.162  0.00  0.00    +0.149 HD
BRANCH  26  28
ATOM     28  C   UNL     1       9.844  -1.904  -2.057  0.00  0.00    +0.139 C 
BRANCH  28  29
ATOM     29  C   UNL     1      10.978  -1.846  -3.049  0.00  0.00    -0.030 A 
ATOM     30  C   UNL     1      12.142  -2.551  -2.809  0.00  0.00    +0.008 A 
ATOM     31  C   UNL     1      13.182  -2.498  -3.717  0.00  0.00    +0.038 A 
ATOM     32  C   UNL     1      13.057  -1.740  -4.869  0.00  0.00    +0.123 A 
ATOM     33  C   UNL     1      11.890  -1.034  -5.108  0.00  0.00    +0.038 A 
ATOM     34  C   UNL     1      10.850  -1.092  -4.201  0.00  0.00    +0.008 A 
ATOM     35  F   UNL     1      14.073  -1.687  -5.758  0.00  0.00    -0.205 F 
ENDBRANCH  28  29
ENDBRANCH  26  28
ENDBRANCH  18  24
BRANCH  17  36
ATOM     36  O   UNL     1       8.265  -5.908  -0.613  0.00  0.00    -0.391 OA
ATOM     37  H   UNL     1       8.778  -6.721  -0.504  0.00  0.00    +0.210 HD
ENDBRANCH  17  36
TORSDOF 4
