REMARK  Name = ZINC41006411
REMARK  9 active torsions:
REMARK  status: ('A' for Active; 'I' for Inactive)
REMARK    1  A    between atoms: C_1  and  C_2
REMARK    2  A    between atoms: C_7  and  N_8
REMARK    3  A    between atoms: C_9  and  C_11
REMARK    4  A    between atoms: C_13  and  C_33
REMARK    5  A    between atoms: C_15  and  C_23
REMARK    6  A    between atoms: C_17  and  C_21
REMARK    7  A    between atoms: C_17  and  O_22
REMARK    8  A    between atoms: N_25  and  C_26
REMARK    9  A    between atoms: C_31  and  C_32
REMARK                            x       y       z     vdW  Elec       q    Type
REMARK                         _______ _______ _______ _____ _____    ______ ____
ROOT
ATOM      1  C   UNL     1       1.134  -0.323   5.421  0.00  0.00    +0.149 C 
ATOM      2  C   UNL     1       0.658  -1.489   6.293  0.00  0.00    +0.053 C 
ATOM      3  C   UNL     1      -0.716  -1.956   5.811  0.00  0.00    +0.115 C 
ATOM      4  C   UNL     1      -1.739  -0.834   5.997  0.00  0.00    +0.082 C 
ATOM      5  C   UNL     1      -1.354   0.357   5.114  0.00  0.00    +0.110 C 
ATOM      6  C   UNL     1       0.074   0.756   5.434  0.00  0.00    +0.148 C 
ATOM      7  O   UNL     1       0.358   1.900   5.696  0.00  0.00    -0.296 OA
ATOM      8  C   UNL     1      -3.127  -1.338   5.597  0.00  0.00    +0.042 C 
ENDROOT
BRANCH   2   9
ATOM      9  C   UNL     1       1.641  -2.627   6.189  0.00  0.00    -0.040 A 
ATOM     10  C   UNL     1       1.678  -3.406   5.047  0.00  0.00    +0.004 A 
ATOM     11  C   UNL     1       2.579  -4.450   4.950  0.00  0.00    +0.003 A 
ATOM     12  C   UNL     1       3.443  -4.717   5.995  0.00  0.00    +0.038 A 
ATOM     13  C   UNL     1       3.406  -3.938   7.139  0.00  0.00    +0.124 A 
ATOM     14  C   UNL     1       2.508  -2.889   7.232  0.00  0.00    +0.042 A 
ATOM     15  F   UNL     1       4.250  -4.199   8.162  0.00  0.00    -0.205 F 
ENDBRANCH   2   9
BRANCH   1  17
ATOM     16  N   UNL     1       0.834  -0.108   2.975  0.00  0.00    -0.285 N 
ATOM     17  C   UNL     1       1.351  -0.802   4.008  0.00  0.00    +0.228 C 
ATOM     18  O   UNL     1       1.991  -1.811   3.802  0.00  0.00    -0.275 OA
ATOM     19  H   UNL     1       0.377   0.732   3.135  0.00  0.00    +0.155 HD
BRANCH  16  26
ATOM     20  C   UNL     1      -1.067   0.740   1.035  0.00  0.00    +0.045 C 
ATOM     21  C   UNL     1       0.049  -0.214   0.693  0.00  0.00    -0.029 A 
ATOM     22  C   UNL     1       0.175  -0.698  -0.594  0.00  0.00    +0.005 A 
ATOM     23  C   UNL     1       1.199  -1.572  -0.908  0.00  0.00    +0.000 A 
ATOM     24  C   UNL     1       2.100  -1.965   0.065  0.00  0.00    +0.002 A 
ATOM     25  C   UNL     1       1.980  -1.484   1.353  0.00  0.00    +0.023 A 
ATOM     26  C   UNL     1       0.955  -0.602   1.671  0.00  0.00    +0.036 A 
ENDBRANCH  16  26
ENDBRANCH   1  17
BRANCH   3  27
ATOM     27  C   UNL     1      -0.638  -2.324   4.352  0.00  0.00    +0.224 C 
ATOM     28  O   UNL     1      -0.592  -1.454   3.509  0.00  0.00    -0.275 OA
ATOM     29  N   UNL     1      -0.618  -3.620   3.984  0.00  0.00    -0.285 N 
ATOM     30  H   UNL     1      -0.712  -4.316   4.653  0.00  0.00    +0.155 HD
BRANCH  29  31
ATOM     31  C   UNL     1      -0.462  -3.963   2.636  0.00  0.00    +0.036 A 
ATOM     32  C   UNL     1      -0.740  -3.031   1.645  0.00  0.00    +0.023 A 
ATOM     33  C   UNL     1      -0.585  -3.372   0.316  0.00  0.00    +0.002 A 
ATOM     34  C   UNL     1      -0.155  -4.640  -0.029  0.00  0.00    +0.000 A 
ATOM     35  C   UNL     1       0.122  -5.570   0.956  0.00  0.00    +0.005 A 
ATOM     36  C   UNL     1      -0.024  -5.233   2.287  0.00  0.00    -0.029 A 
ATOM     37  C   UNL     1       0.285  -6.246   3.360  0.00  0.00    +0.045 C 
ENDBRANCH  29  31
ENDBRANCH   3  27
BRANCH   4  38
ATOM     38  O   UNL     1      -1.756  -0.427   7.367  0.00  0.00    -0.388 OA
ATOM     39  H   UNL     1      -2.384   0.284   7.558  0.00  0.00    +0.210 HD
ENDBRANCH   4  38
TORSDOF 6
