REMARK  Name = ZINC22299812
REMARK  7 active torsions:
REMARK  status: ('A' for Active; 'I' for Inactive)
REMARK    1  A    between atoms: C_1  and  C_2
REMARK    2  A    between atoms: N_13  and  C_26
REMARK    3  A    between atoms: C_14  and  S_16
REMARK    4  A    between atoms: S_16  and  C_17
REMARK    5  A    between atoms: C_17  and  C_19
REMARK    6  A    between atoms: C_17  and  C_20
REMARK    7  A    between atoms: C_26  and  C_27
REMARK                            x       y       z     vdW  Elec       q    Type
REMARK                         _______ _______ _______ _____ _____    ______ ____
ROOT
ATOM      1  C   UNL     1     -10.787  -5.602   0.601  0.00  0.00    +0.008 C 
ATOM      2  C   UNL     1      -9.833  -4.457   0.947  0.00  0.00    -0.009 C 
ATOM      3  C   UNL     1     -10.463  -3.120   0.546  0.00  0.00    +0.008 C 
ATOM      4  C   UNL     1      -9.634  -1.965   1.110  0.00  0.00    +0.037 C 
ATOM      5  C   UNL     1      -8.177  -2.157   0.699  0.00  0.00    -0.023 A 
ATOM      6  C   UNL     1      -7.729  -3.362   0.290  0.00  0.00    -0.004 A 
ATOM      7  S   UNL     1      -6.013  -3.116  -0.079  0.00  0.00    -0.073 S 
ATOM      8  C   UNL     1      -5.901  -1.389   0.319  0.00  0.00    +0.117 A 
ATOM      9  C   UNL     1      -7.205  -1.062   0.725  0.00  0.00    +0.076 A 
ATOM     10  C   UNL     1      -7.414   0.299   1.113  0.00  0.00    +0.263 A 
ATOM     11  O   UNL     1      -8.514   0.676   1.480  0.00  0.00    -0.267 OA
ATOM     12  N   UNL     1      -6.379   1.159   1.066  0.00  0.00    -0.285 N 
ATOM     13  C   UNL     1      -5.141   0.755   0.658  0.00  0.00    +0.173 A 
ATOM     14  N   UNL     1      -4.923  -0.491   0.291  0.00  0.00    -0.216 NA
ATOM     15  C   UNL     1      -8.517  -4.632   0.176  0.00  0.00    +0.046 C 
ENDROOT
BRANCH  13  16
ATOM     16  S   UNL     1      -3.818   1.918   0.614  0.00  0.00    -0.075 S 
BRANCH  16  17
ATOM     17  C   UNL     1      -2.482   0.853   0.018  0.00  0.00    +0.137 C 
ATOM     18  C   UNL     1      -2.799   0.384  -1.403  0.00  0.00    +0.029 C 
BRANCH  17  19
ATOM     19  C   UNL     1      -1.187   1.624   0.017  0.00  0.00    +0.233 C 
ATOM     20  O   UNL     1      -1.204   2.836   0.023  0.00  0.00    -0.274 OA
ATOM     21  N   UNL     1      -0.011   0.966   0.007  0.00  0.00    -0.239 N 
ATOM     22  C   UNL     1       1.147   1.655   0.000  0.00  0.00    +0.303 C 
ATOM     23  O   UNL     1       1.130   2.871   0.007  0.00  0.00    -0.253 OA
ATOM     24  N   UNL     1       2.323   0.998  -0.015  0.00  0.00    -0.313 N 
ATOM     25  H   UNL     1       0.004  -0.134   0.006  0.00  0.00    +0.159 HD
ATOM     26  H   UNL     1       3.268   1.560  -0.021  0.00  0.00    +0.146 HD
ATOM     27  H   UNL     1       2.338  -0.102  -0.021  0.00  0.00    +0.146 HD
ENDBRANCH  17  19
ENDBRANCH  16  17
ENDBRANCH  13  16
BRANCH  12  28
ATOM     28  C   UNL     1      -6.586   2.554   1.461  0.00  0.00    +0.159 C 
BRANCH  28  29
ATOM     29  C   UNL     1      -6.998   3.375   0.237  0.00  0.00    +0.138 C 
ATOM     30  C   UNL     1      -7.106   4.867   0.619  0.00  0.00    +0.035 C 
ATOM     31  C   UNL     1      -8.359   5.321  -0.179  0.00  0.00    +0.031 C 
ATOM     32  C   UNL     1      -9.223   4.036  -0.127  0.00  0.00    +0.160 C 
ATOM     33  O   UNL     1      -8.287   2.951  -0.221  0.00  0.00    -0.375 OA
ENDBRANCH  28  29
ENDBRANCH  12  28
TORSDOF 5
