REMARK  Name = ZINC61862178
REMARK  5 active torsions:
REMARK  status: ('A' for Active; 'I' for Inactive)
REMARK    1  A    between atoms: C_1  and  C_2
REMARK    2  A    between atoms: C_2  and  N_3
REMARK    3  A    between atoms: N_3  and  C_4
REMARK    4  A    between atoms: C_4  and  C_6
REMARK    5  A    between atoms: C_4  and  C_18
REMARK                            x       y       z     vdW  Elec       q    Type
REMARK                         _______ _______ _______ _____ _____    ______ ____
ROOT
ATOM      1  C   UNL     1       0.710  -1.947  -1.215  0.00  0.00    +0.009 C 
ENDROOT
BRANCH   1   2
ATOM      2  C   UNL     1      -0.700  -2.467  -1.328  0.00  0.00    -0.054 A 
ATOM      3  C   UNL     1      -1.601  -1.841  -2.172  0.00  0.00    +0.004 A 
ATOM      4  C   UNL     1      -2.894  -2.311  -2.283  0.00  0.00    +0.028 A 
ATOM      5  C   UNL     1      -3.293  -3.415  -1.545  0.00  0.00    +0.067 A 
ATOM      6  C   UNL     1      -2.385  -4.047  -0.693  0.00  0.00    +0.067 A 
ATOM      7  C   UNL     1      -1.086  -3.571  -0.593  0.00  0.00    +0.030 A 
ATOM      8  N   UNL     1      -3.063  -5.107  -0.097  0.00  0.00    -0.306 N 
ATOM      9  H   UNL     1      -2.689  -5.730   0.546  0.00  0.00    +0.170 HD
ATOM     10  C   UNL     1      -4.326  -5.120  -0.564  0.00  0.00    +0.325 A 
ATOM     11  O   UNL     1      -5.184  -5.921  -0.243  0.00  0.00    -0.247 OA
ATOM     12  N   UNL     1      -4.495  -4.111  -1.439  0.00  0.00    -0.306 N 
ATOM     13  H   UNL     1      -5.314  -3.904  -1.916  0.00  0.00    +0.170 HD
ENDBRANCH   1   2
BRANCH   1  14
ATOM     14  C   UNL     1       1.520  -2.432  -2.389  0.00  0.00    +0.032 A 
ATOM     15  C   UNL     1       2.110  -3.681  -2.342  0.00  0.00    +0.023 A 
ATOM     16  C   UNL     1       2.854  -4.118  -3.427  0.00  0.00    +0.018 A 
ATOM     17  C   UNL     1       2.977  -3.278  -4.525  0.00  0.00    +0.036 A 
ATOM     18  C   UNL     1       2.358  -2.041  -4.499  0.00  0.00    +0.126 A 
ATOM     19  N   UNL     1       1.654  -1.661  -3.451  0.00  0.00    -0.260 NA
ATOM     20 BR   UNL     1       3.978  -3.816  -6.036  0.00  0.00    -0.049 Br
ENDBRANCH   1  14
BRANCH   1  21
ATOM     21  N   UNL     1       0.690  -0.478  -1.207  0.00  0.00    +0.387 N 
ATOM     22  H   UNL     1       0.202  -0.144  -2.024  0.00  0.00    -0.085 HD
ATOM     23  H   UNL     1       1.636  -0.129  -1.214  0.00  0.00    -0.085 HD
BRANCH  21  25
ATOM     24  C   UNL     1      -0.019   1.526   0.010  0.00  0.00    -0.017 C 
ATOM     25  C   UNL     1       0.002  -0.004   0.002  0.00  0.00    -0.085 C 
ENDBRANCH  21  25
ENDBRANCH   1  21
TORSDOF 4
