REMARK  Name = ZINC20911533
REMARK  12 active torsions:
REMARK  status: ('A' for Active; 'I' for Inactive)
REMARK    1  A    between atoms: C_1  and  C_2
REMARK    2  A    between atoms: C_3  and  C_11
REMARK    3  A    between atoms: C_4  and  C_10
REMARK    4  A    between atoms: N_5  and  C_7
REMARK    5  A    between atoms: C_7  and  C_8
REMARK    6  A    between atoms: C_7  and  C_9
REMARK    7  A    between atoms: N_12  and  N_13
REMARK    8  A    between atoms: C_17  and  S_20
REMARK    9  A    between atoms: N_18  and  N_19
REMARK   10  A    between atoms: S_20  and  C_21
REMARK   11  A    between atoms: C_21  and  C_22
REMARK   12  A    between atoms: N_24  and  C_25
REMARK                            x       y       z     vdW  Elec       q    Type
REMARK                         _______ _______ _______ _____ _____    ______ ____
ROOT
ATOM      1  N   UNL     1      -1.109  -0.835   0.009  0.00  0.00    -0.204 N 
ATOM      2  C   UNL     1       0.002  -0.004   0.002  0.00  0.00    +0.254 A 
ATOM      3  N   UNL     1       1.254  -0.392  -0.012  0.00  0.00    -0.109 NA
ATOM      4  N   UNL     1       2.062   0.752  -0.014  0.00  0.00    -0.119 NA
ATOM      5  C   UNL     1       1.277   1.803  -0.001  0.00  0.00    +0.210 A 
ATOM      6  N   UNL     1      -0.017   1.363   0.009  0.00  0.00    -0.211 N 
ATOM      7  H   UNL     1      -2.120  -0.401   0.021  0.00  0.00    +0.177 HD
ENDROOT
BRANCH   6   8
ATOM      8  N   UNL     1      -1.132   2.151   0.019  0.00  0.00    -0.294 N 
ATOM      9  H   UNL     1      -1.032   3.246   0.025  0.00  0.00    +0.163 HD
ATOM     10  H   UNL     1      -2.131   1.690   0.022  0.00  0.00    +0.163 HD
ENDBRANCH   6   8
BRANCH   1  12
ATOM     11  C   UNL     1      -1.983  -3.003   0.006  0.00  0.00    +0.141 C 
ATOM     12  N   UNL     1      -0.944  -2.226  -0.001  0.00  0.00    -0.187 NA
BRANCH  11  15
ATOM     13  C   UNL     1       0.790  -4.541  -0.030  0.00  0.00    +0.068 C 
ATOM     14  C   UNL     1      -0.581  -5.165  -0.019  0.00  0.00    +0.069 A 
ATOM     15  C   UNL     1      -1.809  -4.469  -0.004  0.00  0.00    +0.038 A 
ATOM     16  C   UNL     1      -2.814  -5.411   0.006  0.00  0.00    +0.045 A 
ATOM     17  N   UNL     1      -2.228  -6.625  -0.011  0.00  0.00    -0.265 N 
ATOM     18  N   UNL     1      -0.840  -6.445  -0.023  0.00  0.00    -0.175 NA
ATOM     19  C   UNL     1      -4.295  -5.135   0.029  0.00  0.00    +0.066 C 
BRANCH  17  20
ATOM     20  C   UNL     1      -2.925  -7.914  -0.011  0.00  0.00    +0.101 C 
ATOM     21  C   UNL     1      -2.546  -8.700  -1.267  0.00  0.00    +0.032 C 
ATOM     22  C   UNL     1      -2.522  -8.712   1.231  0.00  0.00    +0.032 C 
ENDBRANCH  17  20
ENDBRANCH  11  15
ENDBRANCH   1  12
BRANCH   5  23
ATOM     23  S   UNL     1       1.799   3.486   0.004  0.00  0.00    -0.075 S 
BRANCH  23  24
ATOM     24  C   UNL     1       3.610   3.384  -0.014  0.00  0.00    +0.173 C 
BRANCH  24  25
ATOM     25  C   UNL     1       4.191   4.774  -0.012  0.00  0.00    +0.224 C 
ATOM     26  O   UNL     1       3.456   5.739  -0.000  0.00  0.00    -0.275 OA
ATOM     27  N   UNL     1       5.528   4.946  -0.024  0.00  0.00    -0.312 N 
ATOM     28  H   UNL     1       6.194   4.071  -0.035  0.00  0.00    +0.149 HD
BRANCH  27  29
ATOM     29  C   UNL     1       6.093   6.298  -0.022  0.00  0.00    +0.073 C 
ATOM     30  C   UNL     1       6.232   6.814  -1.469  0.00  0.00    +0.022 C 
ATOM     31  C   UNL     1       7.554   7.622  -1.458  0.00  0.00    +0.002 C 
ATOM     32  C   UNL     1       8.462   6.779  -0.530  0.00  0.00    +0.002 C 
ATOM     33  C   UNL     1       7.511   6.275   0.575  0.00  0.00    +0.022 C 
ENDBRANCH  27  29
ENDBRANCH  24  25
ENDBRANCH  23  24
ENDBRANCH   5  23
TORSDOF 8
