REMARK  Name = ZINC24143587
REMARK  8 active torsions:
REMARK  status: ('A' for Active; 'I' for Inactive)
REMARK    1  A    between atoms: C_1  and  C_2
REMARK    2  A    between atoms: C_2  and  C_4
REMARK    3  A    between atoms: C_2  and  N_30
REMARK    4  A    between atoms: C_7  and  S_16
REMARK    5  A    between atoms: N_8  and  C_9
REMARK    6  A    between atoms: S_16  and  C_17
REMARK    7  A    between atoms: C_17  and  C_18
REMARK    8  A    between atoms: C_24  and  C_27
REMARK                            x       y       z     vdW  Elec       q    Type
REMARK                         _______ _______ _______ _____ _____    ______ ____
ROOT
ATOM      1  C   UNL     1      -1.525   5.120  -7.502  0.00  0.00    +0.125 A 
ATOM      2  N   UNL     1      -2.354   4.533  -6.685  0.00  0.00    -0.135 NA
ATOM      3  N   UNL     1      -1.762   4.255  -5.578  0.00  0.00    -0.122 NA
ATOM      4  C   UNL     1      -0.514   4.660  -5.624  0.00  0.00    +0.197 A 
ATOM      5  N   UNL     1      -0.322   5.223  -6.856  0.00  0.00    -0.275 N 
ENDROOT
BRANCH   5   6
ATOM      6  C   UNL     1       0.863   5.787  -7.355  0.00  0.00    +0.050 A 
ATOM      7  C   UNL     1       0.916   7.143  -7.648  0.00  0.00    +0.029 A 
ATOM      8  C   UNL     1       2.085   7.698  -8.132  0.00  0.00    +0.040 A 
ATOM      9  C   UNL     1       3.198   6.900  -8.337  0.00  0.00    +0.124 A 
ATOM     10  C   UNL     1       3.144   5.546  -8.052  0.00  0.00    +0.040 A 
ATOM     11  C   UNL     1       1.980   4.989  -7.561  0.00  0.00    +0.029 A 
ATOM     12  F   UNL     1       4.338   7.444  -8.816  0.00  0.00    -0.205 F 
ENDBRANCH   5   6
BRANCH   1  14
ATOM     13  C   UNL     1      -1.946   4.392  -9.835  0.00  0.00    -0.005 C 
ATOM     14  C   UNL     1      -1.834   5.597  -8.898  0.00  0.00    -0.002 C 
BRANCH  14  15
ATOM     15  N   UNL     1      -3.104   6.334  -8.893  0.00  0.00    +0.386 N 
ATOM     16  C   UNL     1      -3.424   6.840 -10.234  0.00  0.00    -0.078 C 
ATOM     17  C   UNL     1      -4.817   7.473 -10.224  0.00  0.00    -0.019 C 
ATOM     18  C   UNL     1      -4.844   8.617  -9.207  0.00  0.00    -0.004 C 
ATOM     19  C   UNL     1      -4.461   8.073  -7.828  0.00  0.00    -0.019 C 
ATOM     20  C   UNL     1      -3.078   7.422  -7.908  0.00  0.00    -0.078 C 
ATOM     21  H   UNL     1      -3.902   5.635  -8.600  0.00  0.00    -0.081 HD
ENDBRANCH  14  15
ENDBRANCH   1  14
BRANCH   4  22
ATOM     22  S   UNL     1       0.687   4.502  -4.345  0.00  0.00    -0.076 S 
BRANCH  22  23
ATOM     23  C   UNL     1      -0.310   3.680  -3.078  0.00  0.00    +0.173 C 
BRANCH  23  24
ATOM     24  C   UNL     1       0.534   3.436  -1.853  0.00  0.00    +0.226 C 
ATOM     25  O   UNL     1       1.696   3.784  -1.839  0.00  0.00    -0.275 OA
ATOM     26  N   UNL     1      -0.002   2.832  -0.774  0.00  0.00    -0.300 N 
ATOM     27  C   UNL     1      -1.407   2.405  -0.776  0.00  0.00    +0.108 C 
ATOM     28  C   UNL     1      -2.105   3.002   0.450  0.00  0.00    +0.020 C 
ATOM     29  C   UNL     1      -1.332   2.613   1.712  0.00  0.00    +0.016 C 
ATOM     30  C   UNL     1       0.090   3.183   1.640  0.00  0.00    +0.092 C 
ATOM     31  C   UNL     1       0.809   2.587   0.426  0.00  0.00    +0.120 C 
BRANCH  30  32
ATOM     32  C   UNL     1       0.843   2.826   2.896  0.00  0.00    +0.215 C 
ATOM     33  O   UNL     1       0.298   2.184   3.768  0.00  0.00    -0.276 OA
ATOM     34  N   UNL     1       2.122   3.222   3.050  0.00  0.00    -0.329 N 
ATOM     35  H   UNL     1       2.672   2.962   3.966  0.00  0.00    +0.145 HD
ATOM     36  H   UNL     1       2.617   3.805   2.258  0.00  0.00    +0.145 HD
ENDBRANCH  30  32
ENDBRANCH  23  24
ENDBRANCH  22  23
ENDBRANCH   4  22
TORSDOF 7
