REMARK  Name = ZINC12394827
REMARK  10 active torsions:
REMARK  status: ('A' for Active; 'I' for Inactive)
REMARK    1  A    between atoms: C_1  and  C_2
REMARK    2  A    between atoms: C_2  and  O_3
REMARK    3  A    between atoms: O_3  and  C_4
REMARK    4  A    between atoms: C_7  and  C_10
REMARK    5  A    between atoms: N_16  and  C_17
REMARK    6  A    between atoms: C_17  and  C_18
REMARK    7  A    between atoms: C_18  and  C_19
REMARK    8  A    between atoms: N_21  and  N_22
REMARK    9  A    between atoms: C_23  and  C_25
REMARK   10  A    between atoms: N_29  and  C_30
REMARK                            x       y       z     vdW  Elec       q    Type
REMARK                         _______ _______ _______ _____ _____    ______ ____
ROOT
ATOM      1  C   UNL     1      -7.223  -0.774  -0.137  0.00  0.00    +0.135 C 
ENDROOT
BRANCH   1   8
ATOM      2  C   UNL     1      -9.029  -2.299  -1.052  0.00  0.00    +0.163 A 
ATOM      3  N   UNL     1      -9.987  -3.031  -0.558  0.00  0.00    -0.153 NA
ATOM      4  N   UNL     1      -9.967  -2.889   0.836  0.00  0.00    -0.254 N 
ATOM      5  H   UNL     1     -10.570  -3.316   1.465  0.00  0.00    +0.191 HD
ATOM      6  C   UNL     1      -8.957  -2.050   1.144  0.00  0.00    +0.176 A 
ATOM      7  S   UNL     1      -8.506  -1.546   2.717  0.00  0.00    -0.011 S 
ATOM      8  N   UNL     1      -8.367  -1.681  -0.010  0.00  0.00    -0.303 N 
BRANCH   2  12
ATOM      9  C   UNL     1      -8.091  -1.891  -5.178  0.00  0.00    +0.121 A 
ATOM     10  C   UNL     1      -9.358  -2.313  -4.793  0.00  0.00    +0.046 A 
ATOM     11  C   UNL     1      -9.665  -2.446  -3.456  0.00  0.00    +0.015 A 
ATOM     12  C   UNL     1      -8.703  -2.157  -2.488  0.00  0.00    +0.019 A 
ATOM     13  C   UNL     1      -7.433  -1.728  -2.878  0.00  0.00    +0.015 A 
ATOM     14  C   UNL     1      -7.131  -1.603  -4.217  0.00  0.00    +0.046 A 
BRANCH   9  15
ATOM     15  O   UNL     1      -7.792  -1.761  -6.496  0.00  0.00    -0.492 OA
BRANCH  15  17
ATOM     16  C   UNL     1      -6.322  -1.237  -8.342  0.00  0.00    +0.048 C 
ATOM     17  C   UNL     1      -6.471  -1.323  -6.821  0.00  0.00    +0.225 C 
ENDBRANCH  15  17
ENDBRANCH   9  15
ENDBRANCH   2  12
ENDBRANCH   1   8
BRANCH   1  18
ATOM     18  C   UNL     1      -5.924  -1.566   0.025  0.00  0.00    +0.119 C 
BRANCH  18  19
ATOM     19  C   UNL     1      -4.747  -0.634  -0.106  0.00  0.00    +0.231 C 
ATOM     20  O   UNL     1      -4.930   0.548  -0.308  0.00  0.00    -0.274 OA
ATOM     21  N   UNL     1      -3.492  -1.113   0.003  0.00  0.00    -0.234 N 
ATOM     22  H   UNL     1      -3.346  -2.058   0.165  0.00  0.00    +0.173 HD
BRANCH  21  23
ATOM     23  N   UNL     1      -2.398  -0.246  -0.119  0.00  0.00    -0.229 N 
ATOM     24  C   UNL     1      -1.143  -0.725  -0.010  0.00  0.00    +0.277 C 
ATOM     25  O   UNL     1      -0.957  -1.923   0.101  0.00  0.00    -0.267 OA
ATOM     26  H   UNL     1      -2.544   0.699  -0.281  0.00  0.00    +0.173 HD
BRANCH  24  27
ATOM     27  C   UNL     1      -0.003   0.196  -0.027  0.00  0.00    +0.107 A 
ATOM     28  C   UNL     1      -0.068   1.573  -0.050  0.00  0.00    +0.052 A 
ATOM     29  C   UNL     1       1.248   2.047  -0.058  0.00  0.00    +0.059 A 
ATOM     30  C   UNL     1       2.076   0.975  -0.040  0.00  0.00    +0.106 A 
ATOM     31  N   UNL     1       1.328  -0.156  -0.021  0.00  0.00    -0.345 N 
ATOM     32  C   UNL     1       1.849  -1.525   0.006  0.00  0.00    +0.149 C 
ATOM     33 CL   UNL     1       1.735   3.714  -0.086  0.00  0.00    -0.082 Cl
ENDBRANCH  24  27
ENDBRANCH  21  23
ENDBRANCH  18  19
ENDBRANCH   1  18
TORSDOF 8
