REMARK  Name = ZINC35137466
REMARK  7 active torsions:
REMARK  status: ('A' for Active; 'I' for Inactive)
REMARK    1  A    between atoms: C_1  and  C_2
REMARK    2  A    between atoms: C_2  and  C_4
REMARK    3  A    between atoms: C_2  and  N_9
REMARK    4  A    between atoms: C_10  and  C_12
REMARK    5  A    between atoms: C_12  and  N_13
REMARK    6  A    between atoms: C_14  and  C_16
REMARK    7  A    between atoms: C_19  and  N_22
REMARK                            x       y       z     vdW  Elec       q    Type
REMARK                         _______ _______ _______ _____ _____    ______ ____
ROOT
ATOM      1  N   UNL     1      -0.240  -1.150  -4.711  0.00  0.00    -0.303 N 
ATOM      2  C   UNL     1       0.170  -1.560  -5.928  0.00  0.00    +0.244 C 
ATOM      3  O   UNL     1       1.329  -1.882  -6.103  0.00  0.00    -0.270 OA
ATOM      4  H   UNL     1      -1.165  -0.893  -4.572  0.00  0.00    +0.150 HD
ENDROOT
BRANCH   2   5
ATOM      5  C   UNL     1      -0.788  -1.616  -7.049  0.00  0.00    +0.037 A 
ATOM      6  C   UNL     1      -2.120  -1.240  -6.851  0.00  0.00    +0.015 A 
ATOM      7  C   UNL     1      -3.011  -1.293  -7.899  0.00  0.00    +0.023 A 
ATOM      8  C   UNL     1      -2.587  -1.722  -9.154  0.00  0.00    +0.025 A 
ATOM      9  C   UNL     1      -1.261  -2.097  -9.353  0.00  0.00    +0.023 A 
ATOM     10  C   UNL     1      -0.364  -2.040  -8.312  0.00  0.00    +0.015 A 
BRANCH   8  11
ATOM     11  N   UNL     1      -3.490  -1.775 -10.210  0.00  0.00    -0.358 N 
ATOM     12  H   UNL     1      -4.414  -1.513 -10.072  0.00  0.00    +0.142 HD
ATOM     13  H   UNL     1      -3.196  -2.073 -11.085  0.00  0.00    +0.142 HD
ENDBRANCH   8  11
ENDBRANCH   2   5
BRANCH   1  14
ATOM     14  C   UNL     1       0.712  -1.094  -3.598  0.00  0.00    +0.200 C 
BRANCH  14  16
ATOM     15  N   UNL     1       0.688  -0.476  -1.203  0.00  0.00    -0.304 N 
ATOM     16  C   UNL     1       0.006  -0.608  -2.358  0.00  0.00    +0.231 C 
ATOM     17  O   UNL     1      -1.175  -0.336  -2.400  0.00  0.00    -0.274 OA
ATOM     18  H   UNL     1       1.632  -0.695  -1.170  0.00  0.00    +0.149 HD
BRANCH  15  20
ATOM     19  C   UNL     1      -0.019   1.526   0.010  0.00  0.00    +0.036 C 
ATOM     20  C   UNL     1       0.002  -0.004   0.002  0.00  0.00    +0.136 C 
BRANCH  20  21
ATOM     21  C   UNL     1       0.731  -0.503   1.223  0.00  0.00    +0.125 A 
ATOM     22  C   UNL     1       0.156  -0.963   2.349  0.00  0.00    +0.046 A 
ATOM     23  C   UNL     1       1.205  -1.322   3.227  0.00  0.00    +0.041 A 
ATOM     24  C   UNL     1       2.358  -1.060   2.584  0.00  0.00    +0.195 A 
ATOM     25  O   UNL     1       2.064  -0.570   1.369  0.00  0.00    -0.466 OA
ENDBRANCH  20  21
ENDBRANCH  15  20
ENDBRANCH  14  16
ENDBRANCH   1  14
TORSDOF 6
