REMARK  Name = ZINC67461765
REMARK  7 active torsions:
REMARK  status: ('A' for Active; 'I' for Inactive)
REMARK    1  A    between atoms: C_1  and  C_2
REMARK    2  A    between atoms: C_3  and  N_9
REMARK    3  A    between atoms: N_9  and  N_10
REMARK    4  A    between atoms: N_13  and  C_14
REMARK    5  A    between atoms: C_14  and  C_15
REMARK    6  A    between atoms: C_15  and  C_16
REMARK    7  A    between atoms: C_16  and  C_17
REMARK                            x       y       z     vdW  Elec       q    Type
REMARK                         _______ _______ _______ _____ _____    ______ ____
ROOT
ATOM      1  N   UNL     1      -0.006  -0.687  -3.627  0.00  0.00    -0.220 N 
ATOM      2  C   UNL     1      -0.021  -0.009  -4.792  0.00  0.00    +0.316 C 
ATOM      3  O   UNL     1      -0.018  -0.613  -5.847  0.00  0.00    -0.251 OA
ATOM      4  N   UNL     1      -0.040   1.339  -4.787  0.00  0.00    -0.298 N 
ATOM      5  H   UNL     1       0.007  -1.657  -3.631  0.00  0.00    +0.174 HD
ATOM      6  H   UNL     1      -0.043   1.821  -3.945  0.00  0.00    +0.150 HD
ENDROOT
BRANCH   1   7
ATOM      7  N   UNL     1      -0.010   0.010  -2.411  0.00  0.00    -0.263 N 
ATOM      8  H   UNL     1      -0.023   0.980  -2.408  0.00  0.00    +0.170 HD
BRANCH   7  11
ATOM      9  C   UNL     1      -0.018   1.503   0.010  0.00  0.00    +0.047 C 
ATOM     10  C   UNL     1       0.002  -0.004   0.002  0.00  0.00    -0.010 A 
ATOM     11  C   UNL     1       0.006  -0.693  -1.204  0.00  0.00    +0.049 A 
ATOM     12  C   UNL     1       0.025  -2.082  -1.208  0.00  0.00    +0.025 A 
ATOM     13  C   UNL     1       0.040  -2.774  -0.012  0.00  0.00    +0.003 A 
ATOM     14  C   UNL     1       0.035  -2.087   1.187  0.00  0.00    +0.020 A 
ATOM     15  C   UNL     1       0.023  -0.702   1.194  0.00  0.00    +0.046 A 
ATOM     16 CL   UNL     1       0.026   0.157   2.703  0.00  0.00    -0.083 Cl
ENDBRANCH   7  11
ENDBRANCH   1   7
BRANCH   4  17
ATOM     17  C   UNL     1      -0.056   2.076  -6.053  0.00  0.00    +0.106 C 
BRANCH  17  18
ATOM     18  C   UNL     1      -0.076   3.579  -5.768  0.00  0.00    +0.026 C 
BRANCH  18  19
ATOM     19  C   UNL     1      -0.093   4.348  -7.090  0.00  0.00    +0.078 C 
BRANCH  19  20
ATOM     20  C   UNL     1      -0.112   5.829  -6.810  0.00  0.00    +0.134 A 
ATOM     21  N   UNL     1      -1.173   6.576  -6.655  0.00  0.00    -0.134 NA
ATOM     22  N   UNL     1      -0.818   7.791  -6.421  0.00  0.00    -0.134 NA
ATOM     23  C   UNL     1       0.482   7.871  -6.413  0.00  0.00    +0.133 A 
ATOM     24  N   UNL     1       0.965   6.633  -6.666  0.00  0.00    -0.315 N 
ATOM     25  C   UNL     1       2.373   6.253  -6.777  0.00  0.00    +0.125 C 
ATOM     26  C   UNL     1       3.223   7.195  -5.920  0.00  0.00    +0.022 C 
ATOM     27  C   UNL     1       3.643   8.408  -6.748  0.00  0.00    +0.002 C 
ATOM     28  C   UNL     1       2.417   9.186  -7.216  0.00  0.00    +0.008 C 
ATOM     29  C   UNL     1       1.317   9.100  -6.161  0.00  0.00    +0.076 C 
ENDBRANCH  19  20
ENDBRANCH  18  19
ENDBRANCH  17  18
ENDBRANCH   4  17
TORSDOF 6
