REMARK  Name = ZINC02250775
REMARK  4 active torsions:
REMARK  status: ('A' for Active; 'I' for Inactive)
REMARK    1  A    between atoms: C_1  and  C_2
REMARK    2  A    between atoms: N_13  and  C_19
REMARK    3  A    between atoms: C_19  and  N_21
REMARK    4  A    between atoms: N_21  and  C_22
REMARK                            x       y       z     vdW  Elec       q    Type
REMARK                         _______ _______ _______ _____ _____    ______ ____
ROOT
ATOM      1  C   UNL     1      -2.044   0.373   0.379  0.00  0.00    +0.044 C 
ATOM      2  C   UNL     1      -1.762   1.853   0.340  0.00  0.00    -0.050 A 
ATOM      3  C   UNL     1      -2.823   2.741   0.399  0.00  0.00    +0.005 A 
ATOM      4  C   UNL     1      -2.642   4.112   0.367  0.00  0.00    +0.026 A 
ATOM      5  C   UNL     1      -1.333   4.578   0.262  0.00  0.00    +0.050 A 
ATOM      6  C   UNL     1      -0.244   3.660   0.207  0.00  0.00    +0.004 A 
ATOM      7  C   UNL     1      -0.461   2.279   0.241  0.00  0.00    +0.013 A 
ATOM      8  C   UNL     1       0.960   4.460   0.122  0.00  0.00    -0.017 A 
ATOM      9  C   UNL     1       0.553   5.740   0.190  0.00  0.00    +0.044 A 
ATOM     10  N   UNL     1      -0.823   5.856   0.162  0.00  0.00    -0.340 N 
ATOM     11  C   UNL     1      -1.470   7.174   0.054  0.00  0.00    +0.141 C 
ATOM     12  C   UNL     1      -0.536   8.054  -0.796  0.00  0.00    +0.129 C 
ATOM     13  N   UNL     1       0.800   8.114  -0.199  0.00  0.00    -0.302 N 
ATOM     14  C   UNL     1       1.525   6.899   0.165  0.00  0.00    +0.122 C 
ATOM     15  C   UNL     1       2.573   6.500  -0.878  0.00  0.00    +0.029 C 
ATOM     16  C   UNL     1       3.290   5.229  -0.451  0.00  0.00    +0.007 C 
ATOM     17  C   UNL     1       2.401   4.078  -0.018  0.00  0.00    +0.037 C 
ENDROOT
BRANCH  13  18
ATOM     18  C   UNL     1       1.373   9.315   0.020  0.00  0.00    +0.138 C 
ATOM     19  S   UNL     1       2.880   9.410   0.825  0.00  0.00    -0.018 S 
BRANCH  18  20
ATOM     20  N   UNL     1       0.757  10.440  -0.395  0.00  0.00    -0.297 N 
ATOM     21  H   UNL     1       0.357  11.040   0.252  0.00  0.00    +0.154 HD
BRANCH  20  22
ATOM     22  C   UNL     1       0.697  10.741  -1.760  0.00  0.00    +0.033 A 
ATOM     23  C   UNL     1       1.385   9.956  -2.677  0.00  0.00    +0.023 A 
ATOM     24  C   UNL     1       1.319  10.253  -4.024  0.00  0.00    +0.002 A 
ATOM     25  C   UNL     1       0.578  11.337  -4.459  0.00  0.00    +0.000 A 
ATOM     26  C   UNL     1      -0.103  12.123  -3.548  0.00  0.00    +0.002 A 
ATOM     27  C   UNL     1      -0.046  11.828  -2.200  0.00  0.00    +0.023 A 
ENDBRANCH  20  22
ENDBRANCH  18  20
ENDBRANCH  13  18
TORSDOF 3
