REMARK  Name = ZINC22039083
REMARK  9 active torsions:
REMARK  status: ('A' for Active; 'I' for Inactive)
REMARK    1  A    between atoms: C_1  and  C_2
REMARK    2  A    between atoms: C_7  and  C_9
REMARK    3  A    between atoms: C_7  and  C_10
REMARK    4  A    between atoms: N_13  and  C_17
REMARK    5  A    between atoms: C_17  and  C_18
REMARK    6  A    between atoms: C_18  and  O_20
REMARK    7  A    between atoms: O_20  and  C_21
REMARK    8  A    between atoms: C_21  and  C_22
REMARK    9  A    between atoms: N_24  and  C_25
REMARK                            x       y       z     vdW  Elec       q    Type
REMARK                         _______ _______ _______ _____ _____    ______ ____
ROOT
ATOM      1  C   UNL     1      -3.418  -4.667  -2.703  0.00  0.00    +0.238 C 
ENDROOT
BRANCH   1  13
ATOM      2  C   UNL     1      -0.608   1.409  -0.372  0.00  0.00    +0.007 C 
ATOM      3  C   UNL     1      -0.387  -0.104  -0.317  0.00  0.00    -0.011 C 
ATOM      4  C   UNL     1      -1.699  -0.823  -0.643  0.00  0.00    +0.038 C 
ATOM      5  C   UNL     1      -1.485  -2.331  -0.567  0.00  0.00    +0.113 C 
ATOM      6  C   UNL     1      -1.002  -2.739   0.821  0.00  0.00    +0.041 C 
ATOM      7  C   UNL     1       0.307  -2.012   1.141  0.00  0.00    -0.032 C 
ATOM      8  C   UNL     1       0.076  -0.501   1.086  0.00  0.00    +0.009 C 
ATOM      9  C   UNL     1       0.779  -2.406   2.542  0.00  0.00    +0.011 C 
ATOM     10  C   UNL     1       1.372  -2.403   0.114  0.00  0.00    +0.011 C 
ATOM     11  C   UNL     1      -2.759  -3.063  -0.919  0.00  0.00    +0.247 C 
ATOM     12  O   UNL     1      -3.822  -3.006  -0.339  0.00  0.00    -0.273 OA
ATOM     13  N   UNL     1      -2.465  -3.793  -2.015  0.00  0.00    -0.213 N 
ATOM     14  C   UNL     1      -1.192  -3.621  -2.394  0.00  0.00    +0.310 C 
ATOM     15  O   UNL     1      -0.693  -4.173  -3.355  0.00  0.00    -0.252 OA
ATOM     16  N   UNL     1      -0.528  -2.767  -1.593  0.00  0.00    -0.285 N 
ATOM     17  H   UNL     1       0.399  -2.494  -1.676  0.00  0.00    +0.151 HD
ENDBRANCH   1  13
BRANCH   1  18
ATOM     18  C   UNL     1      -4.140  -3.882  -3.768  0.00  0.00    +0.326 C 
ATOM     19  O   UNL     1      -3.884  -2.713  -3.934  0.00  0.00    -0.249 OA
BRANCH  18  20
ATOM     20  O   UNL     1      -5.067  -4.481  -4.531  0.00  0.00    -0.454 OA
BRANCH  20  21
ATOM     21  C   UNL     1      -5.712  -3.677  -5.521  0.00  0.00    +0.328 C 
BRANCH  21  22
ATOM     22  C   UNL     1      -6.714  -4.514  -6.274  0.00  0.00    +0.255 C 
ATOM     23  O   UNL     1      -6.861  -5.684  -5.991  0.00  0.00    -0.272 OA
ATOM     24  N   UNL     1      -7.446  -3.962  -7.262  0.00  0.00    -0.281 N 
ATOM     25  H   UNL     1      -7.277  -3.048  -7.537  0.00  0.00    +0.155 HD
BRANCH  24  26
ATOM     26  C   UNL     1      -8.449  -4.709  -7.890  0.00  0.00    +0.053 A 
ATOM     27  C   UNL     1      -9.162  -5.660  -7.172  0.00  0.00    +0.025 A 
ATOM     28  C   UNL     1     -10.152  -6.396  -7.794  0.00  0.00    +0.003 A 
ATOM     29  C   UNL     1     -10.434  -6.187  -9.131  0.00  0.00    +0.021 A 
ATOM     30  C   UNL     1      -9.727  -5.240  -9.851  0.00  0.00    +0.061 A 
ATOM     31  C   UNL     1      -8.738  -4.497  -9.232  0.00  0.00    +0.080 A 
ATOM     32 CL   UNL     1      -7.855  -3.304 -10.133  0.00  0.00    -0.080 Cl
ATOM     33 CL   UNL     1     -10.085  -4.982 -11.530  0.00  0.00    -0.082 Cl
ENDBRANCH  24  26
ENDBRANCH  21  22
ENDBRANCH  20  21
ENDBRANCH  18  20
ENDBRANCH   1  18
TORSDOF 6
