REMARK  Name = ZINC36570135
REMARK  19 active torsions:
REMARK  status: ('A' for Active; 'I' for Inactive)
REMARK    1  A    between atoms: C_1  and  C_2
REMARK    2  A    between atoms: C_2  and  C_3
REMARK    3  A    between atoms: C_3  and  N_4
REMARK    4  A    between atoms: N_4  and  C_5
REMARK    5  A    between atoms: C_5  and  C_7
REMARK    6  A    between atoms: C_5  and  C_16
REMARK    7  A    between atoms: C_8  and  O_15
REMARK    8  A    between atoms: C_10  and  O_14
REMARK    9  A    between atoms: C_12  and  O_13
REMARK   10  A    between atoms: N_18  and  C_19
REMARK   11  A    between atoms: C_19  and  C_20
REMARK   12  A    between atoms: C_19  and  C_21
REMARK   13  A    between atoms: C_19  and  C_22
REMARK   14  A    between atoms: C_22  and  C_23
REMARK   15  A    between atoms: C_23  and  C_24
REMARK   16  A    between atoms: C_23  and  C_25
REMARK   17  A    between atoms: C_23  and  C_26
REMARK   18  A    between atoms: C_27  and  C_29
REMARK   19  A    between atoms: C_31  and  N_36
REMARK                            x       y       z     vdW  Elec       q    Type
REMARK                         _______ _______ _______ _____ _____    ______ ____
ROOT
ATOM      1  C   UNL     1       3.210  -3.297  -1.054  0.00  0.00    +0.199 C 
ENDROOT
BRANCH   1   2
ATOM      2  C   UNL     1       4.598  -3.884  -1.083  0.00  0.00    +0.065 A 
ATOM      3  C   UNL     1       5.290  -3.968  -2.282  0.00  0.00    +0.129 A 
ATOM      4  C   UNL     1       6.567  -4.508  -2.308  0.00  0.00    +0.091 A 
ATOM      5  C   UNL     1       7.152  -4.963  -1.136  0.00  0.00    +0.124 A 
ATOM      6  C   UNL     1       6.460  -4.878   0.062  0.00  0.00    +0.091 A 
ATOM      7  C   UNL     1       5.185  -4.334   0.090  0.00  0.00    +0.129 A 
BRANCH   7   8
ATOM      8  O   UNL     1       4.509  -4.246   1.265  0.00  0.00    -0.506 OA
ATOM      9  H   UNL     1       3.971  -5.023   1.469  0.00  0.00    +0.292 HD
ENDBRANCH   7   8
BRANCH   5  10
ATOM     10  O   UNL     1       8.403  -5.493  -1.163  0.00  0.00    -0.507 OA
ATOM     11  H   UNL     1       9.108  -4.845  -1.030  0.00  0.00    +0.292 HD
ENDBRANCH   5  10
BRANCH   3  12
ATOM     12  O   UNL     1       4.717  -3.523  -3.430  0.00  0.00    -0.506 OA
ATOM     13  H   UNL     1       4.956  -2.615  -3.663  0.00  0.00    +0.292 HD
ENDBRANCH   3  12
ENDBRANCH   1   2
BRANCH   1  14
ATOM     14  C   UNL     1       2.587  -3.415  -2.421  0.00  0.00    +0.239 C 
ATOM     15  O   UNL     1       2.060  -2.450  -2.933  0.00  0.00    -0.273 OA
ATOM     16  N   UNL     1       2.613  -4.594  -3.074  0.00  0.00    -0.308 N 
ATOM     17  H   UNL     1       3.124  -5.336  -2.715  0.00  0.00    +0.149 HD
BRANCH  16  18
ATOM     18  C   UNL     1       1.871  -4.753  -4.327  0.00  0.00    +0.030 C 
ATOM     19  C   UNL     1       0.371  -4.635  -4.051  0.00  0.00    +0.031 C 
ATOM     20  C   UNL     1       2.296  -3.664  -5.314  0.00  0.00    +0.031 C 
BRANCH  18  21
ATOM     21  C   UNL     1       2.172  -6.129  -4.926  0.00  0.00    +0.031 C 
BRANCH  21  22
ATOM     22  C   UNL     1       1.547  -7.215  -4.048  0.00  0.00    -0.036 C 
ATOM     23  C   UNL     1       0.024  -7.174  -4.193  0.00  0.00    +0.010 C 
ATOM     24  C   UNL     1       2.063  -8.586  -4.488  0.00  0.00    +0.010 C 
ATOM     25  C   UNL     1       1.927  -6.971  -2.587  0.00  0.00    +0.010 C 
ENDBRANCH  21  22
ENDBRANCH  18  21
ENDBRANCH  16  18
ENDBRANCH   1  14
BRANCH   1  26
ATOM     26  N   UNL     1       3.285  -1.885  -0.672  0.00  0.00    -0.282 N 
ATOM     27  C   UNL     1       2.155  -1.193  -0.425  0.00  0.00    +0.251 C 
ATOM     28  O   UNL     1       2.206   0.008  -0.240  0.00  0.00    -0.270 OA
BRANCH  27  29
ATOM     29  C   UNL     1       0.857  -1.892  -0.378  0.00  0.00    +0.086 A 
ATOM     30  C   UNL     1       0.770  -3.236  -0.749  0.00  0.00    +0.049 A 
ATOM     31  C   UNL     1      -0.446  -3.884  -0.703  0.00  0.00    +0.127 A 
ATOM     32  C   UNL     1      -1.583  -3.208  -0.291  0.00  0.00    +0.036 A 
ATOM     33  C   UNL     1      -1.510  -1.879   0.078  0.00  0.00    +0.054 A 
ATOM     34  C   UNL     1      -0.294  -1.214   0.044  0.00  0.00    +0.191 A 
ATOM     35  O   UNL     1      -0.220   0.090   0.411  0.00  0.00    -0.287 OA
BRANCH  31  36
ATOM     36  N   UNL     1      -0.537  -5.308  -1.096  0.00  0.00    +0.056 N 
ATOM     37  O   UNL     1       0.439  -6.018  -1.027  0.00  0.00    -0.126 OA
ATOM     38  O   UNL     1      -1.588  -5.761  -1.486  0.00  0.00    -0.126 OA
ENDBRANCH  31  36
ENDBRANCH  27  29
BRANCH  26  39
ATOM     39  C   UNL     1       4.588  -1.224  -0.559  0.00  0.00    +0.109 C 
BRANCH  39  41
ATOM     40  C   UNL     1       5.939   0.749  -1.282  0.00  0.00    +0.005 C 
ATOM     41  C   UNL     1       4.627  -0.010  -1.489  0.00  0.00    +0.016 C 
ENDBRANCH  39  41
ENDBRANCH  26  39
ENDBRANCH   1  26
TORSDOF 13
