REMARK  Name = ZINC36365561
REMARK  4 active torsions:
REMARK  status: ('A' for Active; 'I' for Inactive)
REMARK    1  A    between atoms: C_1  and  N_2
REMARK    2  A    between atoms: C_3  and  C_28
REMARK    3  A    between atoms: C_5  and  C_15
REMARK    4  A    between atoms: C_15  and  N_17
REMARK                            x       y       z     vdW  Elec       q    Type
REMARK                         _______ _______ _______ _____ _____    ______ ____
ROOT
ATOM      1  C   UNL     1      -1.281   1.667   0.213  0.00  0.00    +0.133 C 
ATOM      2  N   UNL     1      -0.784   0.290   0.179  0.00  0.00    -0.292 N 
ATOM      3  C   UNL     1      -1.736  -0.819   0.194  0.00  0.00    +0.122 C 
ATOM      4  C   UNL     1      -1.297  -1.931  -0.754  0.00  0.00    +0.132 C 
ATOM      5  C   UNL     1       0.140  -2.299  -0.490  0.00  0.00    -0.021 A 
ATOM      6  C   UNL     1       0.575  -3.596  -0.654  0.00  0.00    +0.005 A 
ATOM      7  C   UNL     1       1.901  -3.916  -0.421  0.00  0.00    +0.000 A 
ATOM      8  C   UNL     1       2.798  -2.939  -0.025  0.00  0.00    +0.001 A 
ATOM      9  C   UNL     1       2.373  -1.637   0.148  0.00  0.00    +0.013 A 
ATOM     10  C   UNL     1       1.037  -1.312  -0.078  0.00  0.00    +0.041 A 
ATOM     11  C   UNL     1       0.543   0.065   0.129  0.00  0.00    +0.247 C 
ATOM     12  O   UNL     1       1.327   0.985   0.256  0.00  0.00    -0.270 OA
ENDROOT
BRANCH   3  13
ATOM     13  C   UNL     1      -3.091  -0.313  -0.231  0.00  0.00    -0.026 A 
ATOM     14  C   UNL     1      -3.744  -0.901  -1.298  0.00  0.00    +0.005 A 
ATOM     15  C   UNL     1      -4.987  -0.438  -1.688  0.00  0.00    +0.000 A 
ATOM     16  C   UNL     1      -5.576   0.614  -1.011  0.00  0.00    +0.000 A 
ATOM     17  C   UNL     1      -4.923   1.201   0.056  0.00  0.00    +0.000 A 
ATOM     18  C   UNL     1      -3.682   0.735   0.449  0.00  0.00    +0.005 A 
ENDBRANCH   3  13
BRANCH   4  19
ATOM     19  C   UNL     1      -1.434  -1.456  -2.178  0.00  0.00    +0.249 C 
ATOM     20  O   UNL     1      -1.435  -0.266  -2.425  0.00  0.00    -0.273 OA
BRANCH  19  21
ATOM     21  N   UNL     1      -1.555  -2.340  -3.164  0.00  0.00    -0.146 NA
ATOM     22  C   UNL     1      -1.777  -1.922  -4.408  0.00  0.00    +0.198 A 
ATOM     23  N   UNL     1      -1.779  -0.625  -4.814  0.00  0.00    -0.326 N 
ATOM     24  H   UNL     1      -1.619   0.147  -4.250  0.00  0.00    +0.169 HD
ATOM     25  C   UNL     1      -2.048  -0.596  -6.179  0.00  0.00    +0.065 A 
ATOM     26  C   UNL     1      -2.167   0.436  -7.099  0.00  0.00    +0.028 A 
ATOM     27  C   UNL     1      -2.447   0.150  -8.420  0.00  0.00    +0.002 A 
ATOM     28  C   UNL     1      -2.609  -1.162  -8.832  0.00  0.00    +0.002 A 
ATOM     29  C   UNL     1      -2.493  -2.196  -7.924  0.00  0.00    +0.028 A 
ATOM     30  C   UNL     1      -2.212  -1.919  -6.594  0.00  0.00    +0.065 A 
ATOM     31  N   UNL     1      -2.033  -2.725  -5.474  0.00  0.00    -0.326 N 
ATOM     32  H   UNL     1      -2.084  -3.693  -5.456  0.00  0.00    +0.169 HD
ENDBRANCH  19  21
ENDBRANCH   4  19
TORSDOF 3
