REMARK  Name = ZINC10040916
REMARK  11 active torsions:
REMARK  status: ('A' for Active; 'I' for Inactive)
REMARK    1  A    between atoms: C_1  and  C_2
REMARK    2  A    between atoms: C_2  and  C_3
REMARK    3  A    between atoms: C_2  and  C_4
REMARK    4  A    between atoms: C_4  and  C_6
REMARK    5  A    between atoms: C_4  and  N_23
REMARK    6  A    between atoms: N_8  and  N_9
REMARK    7  A    between atoms: C_10  and  C_11
REMARK    8  A    between atoms: C_16  and  O_17
REMARK    9  A    between atoms: O_17  and  C_18
REMARK   10  A    between atoms: C_18  and  C_19
REMARK   11  A    between atoms: C_24  and  C_26
REMARK                            x       y       z     vdW  Elec       q    Type
REMARK                         _______ _______ _______ _____ _____    ______ ____
ROOT
ATOM      1  C   UNL     1      -1.182   1.547   0.101  0.00  0.00    +0.253 C 
ATOM      2  O   UNL     1      -1.053   2.662  -0.361  0.00  0.00    -0.272 OA
ATOM      3  N   UNL     1      -0.164   0.974   0.773  0.00  0.00    -0.205 N 
ATOM      4  H   UNL     1      -0.290   0.114   1.203  0.00  0.00    +0.177 HD
ENDROOT
BRANCH   3   5
ATOM      5  N   UNL     1       1.078   1.619   0.846  0.00  0.00    -0.188 NA
ATOM      6  C   UNL     1       2.060   1.065   1.489  0.00  0.00    +0.142 C 
BRANCH   6   7
ATOM      7  C   UNL     1       3.366   1.742   1.566  0.00  0.00    +0.038 A 
ATOM      8  C   UNL     1       4.424   1.152   2.261  0.00  0.00    +0.033 A 
ATOM      9  C   UNL     1       5.646   1.790   2.325  0.00  0.00    +0.042 A 
ATOM     10  C   UNL     1       5.825   3.019   1.711  0.00  0.00    +0.023 A 
ATOM     11  C   UNL     1       4.784   3.615   1.025  0.00  0.00    +0.048 A 
ATOM     12  C   UNL     1       3.552   2.986   0.947  0.00  0.00    +0.130 A 
ATOM     13 CL   UNL     1       6.963   1.052   3.183  0.00  0.00    -0.084 Cl
BRANCH  12  14
ATOM     14  O   UNL     1       2.529   3.571   0.272  0.00  0.00    -0.482 OA
BRANCH  14  15
ATOM     15  C   UNL     1       2.793   4.838  -0.334  0.00  0.00    +0.324 C 
BRANCH  15  16
ATOM     16  C   UNL     1       1.551   5.329  -1.033  0.00  0.00    +0.248 C 
ATOM     17  O   UNL     1       0.540   4.659  -1.014  0.00  0.00    -0.272 OA
ATOM     18  N   UNL     1       1.563   6.512  -1.679  0.00  0.00    -0.327 N 
ATOM     19  H   UNL     1       2.372   7.047  -1.694  0.00  0.00    +0.145 HD
ATOM     20  H   UNL     1       0.764   6.828  -2.128  0.00  0.00    +0.145 HD
ENDBRANCH  15  16
ENDBRANCH  14  15
ENDBRANCH  12  14
ENDBRANCH   6   7
ENDBRANCH   3   5
BRANCH   1  21
ATOM     21  C   UNL     1      -2.481   0.804  -0.077  0.00  0.00    +0.163 C 
BRANCH  21  22
ATOM     22  N   UNL     1      -3.581   1.764  -0.196  0.00  0.00    -0.300 N 
ATOM     23  C   UNL     1      -4.834   1.397   0.137  0.00  0.00    +0.245 C 
ATOM     24  O   UNL     1      -5.052   0.270   0.536  0.00  0.00    -0.270 OA
ATOM     25  H   UNL     1      -3.407   2.664  -0.514  0.00  0.00    +0.150 HD
BRANCH  23  26
ATOM     26  C   UNL     1      -5.944   2.366   0.017  0.00  0.00    +0.038 A 
ATOM     27  C   UNL     1      -5.696   3.663  -0.436  0.00  0.00    +0.014 A 
ATOM     28  C   UNL     1      -6.735   4.561  -0.551  0.00  0.00    +0.022 A 
ATOM     29  C   UNL     1      -8.023   4.183  -0.208  0.00  0.00    +0.059 A 
ATOM     30  C   UNL     1      -8.275   2.898   0.246  0.00  0.00    +0.060 A 
ATOM     31  C   UNL     1      -7.243   1.989   0.360  0.00  0.00    +0.034 A 
ATOM     32 CL   UNL     1      -9.892   2.432   0.673  0.00  0.00    -0.082 Cl
ATOM     33 CL   UNL     1      -9.325   5.322  -0.349  0.00  0.00    -0.082 Cl
ENDBRANCH  23  26
ENDBRANCH  21  22
BRANCH  21  35
ATOM     34  C   UNL     1      -1.292  -1.086  -1.199  0.00  0.00    +0.009 C 
ATOM     35  C   UNL     1      -2.410  -0.051  -1.344  0.00  0.00    +0.012 C 
ATOM     36  C   UNL     1      -3.745  -0.768  -1.551  0.00  0.00    +0.009 C 
ENDBRANCH  21  35
ENDBRANCH   1  21
TORSDOF 9
