REMARK  Name = ZINC29771511
REMARK  7 active torsions:
REMARK  status: ('A' for Active; 'I' for Inactive)
REMARK    1  A    between atoms: C_1  and  S_2
REMARK    2  A    between atoms: S_2  and  C_3
REMARK    3  A    between atoms: C_7  and  N_9
REMARK    4  A    between atoms: C_11  and  C_16
REMARK    5  A    between atoms: N_18  and  N_19
REMARK    6  A    between atoms: C_20  and  C_22
REMARK    7  A    between atoms: C_22  and  N_23
REMARK                            x       y       z     vdW  Elec       q    Type
REMARK                         _______ _______ _______ _____ _____    ______ ____
ROOT
ATOM      1  C   UNL     1       3.536   1.906   0.002  0.00  0.00    +0.234 C 
ATOM      2  O   UNL     1       3.525   3.119   0.017  0.00  0.00    -0.274 OA
ATOM      3  N   UNL     1       2.375   1.222   0.016  0.00  0.00    -0.234 N 
ATOM      4  H   UNL     1       2.385   0.122   0.002  0.00  0.00    +0.173 HD
ENDROOT
BRANCH   1   7
ATOM      5  N   UNL     1       6.356   2.365  -1.459  0.00  0.00    -0.271 N 
ATOM      6  C   UNL     1       6.038   2.149  -0.042  0.00  0.00    +0.127 C 
ATOM      7  C   UNL     1       4.848   1.165  -0.032  0.00  0.00    +0.103 C 
ATOM      8  C   UNL     1       5.033   0.431  -1.380  0.00  0.00    +0.110 C 
ATOM      9  C   UNL     1       5.809   1.411  -2.232  0.00  0.00    +0.221 C 
ATOM     10  O   UNL     1       5.921   1.345  -3.438  0.00  0.00    -0.275 OA
BRANCH   5  15
ATOM     11  C   UNL     1       8.241   4.534  -3.761  0.00  0.00    +0.009 A 
ATOM     12  C   UNL     1       8.662   5.533  -2.890  0.00  0.00    +0.015 A 
ATOM     13  C   UNL     1       8.317   5.476  -1.554  0.00  0.00    +0.003 A 
ATOM     14  C   UNL     1       7.548   4.430  -1.079  0.00  0.00    +0.023 A 
ATOM     15  C   UNL     1       7.129   3.426  -1.942  0.00  0.00    +0.037 A 
ATOM     16  C   UNL     1       7.473   3.479  -3.285  0.00  0.00    +0.038 A 
BRANCH  11  18
ATOM     17  C   UNL     1       9.660   6.127  -5.601  0.00  0.00    +0.090 C 
ATOM     18  S   UNL     1       8.681   4.606  -5.465  0.00  0.00    -0.129 S 
ENDBRANCH  11  18
ENDBRANCH   5  15
ENDBRANCH   1   7
BRANCH   3  19
ATOM     19  N   UNL     1       1.155   1.911   0.047  0.00  0.00    -0.233 N 
ATOM     20  C   UNL     1      -0.005   1.226   0.061  0.00  0.00    +0.246 C 
ATOM     21  O   UNL     1       0.006   0.013   0.046  0.00  0.00    -0.273 OA
ATOM     22  H   UNL     1       1.145   3.010   0.061  0.00  0.00    +0.173 HD
BRANCH  20  23
ATOM     23  C   UNL     1      -1.317   1.967   0.088  0.00  0.00    +0.200 C 
BRANCH  23  24
ATOM     24  N   UNL     1      -2.422   1.005   0.092  0.00  0.00    -0.315 N 
ATOM     25  C   UNL     1      -3.727   1.452   0.116  0.00  0.00    +0.160 A 
ATOM     26  N   UNL     1      -4.174   2.687   0.144  0.00  0.00    -0.225 NA
ATOM     27  C   UNL     1      -5.493   2.981   0.162  0.00  0.00    +0.080 A 
ATOM     28  C   UNL     1      -6.102   4.257   0.187  0.00  0.00    +0.029 A 
ATOM     29  C   UNL     1      -7.467   4.380   0.209  0.00  0.00    +0.002 A 
ATOM     30  C   UNL     1      -8.296   3.268   0.206  0.00  0.00    +0.001 A 
ATOM     31  C   UNL     1      -7.733   2.005   0.182  0.00  0.00    +0.017 A 
ATOM     32  C   UNL     1      -6.367   1.871   0.160  0.00  0.00    +0.041 A 
ATOM     33  S   UNL     1      -5.239   0.499   0.126  0.00  0.00    -0.052 S 
ATOM     34  H   UNL     1      -2.211  -0.075   0.076  0.00  0.00    +0.148 HD
ENDBRANCH  23  24
ENDBRANCH  20  23
ENDBRANCH   3  19
TORSDOF 6
