REMARK  Name = ZINC45334060
REMARK  6 active torsions:
REMARK  status: ('A' for Active; 'I' for Inactive)
REMARK    1  A    between atoms: C_1  and  C_2
REMARK    2  A    between atoms: C_2  and  C_3
REMARK    3  A    between atoms: C_2  and  N_4
REMARK    4  A    between atoms: C_13  and  C_15
REMARK    5  A    between atoms: N_17  and  N_18
REMARK    6  A    between atoms: C_27  and  O_28
REMARK                            x       y       z     vdW  Elec       q    Type
REMARK                         _______ _______ _______ _____ _____    ______ ____
ROOT
ATOM      1  C   UNL     1       4.074  -0.051   2.470  0.00  0.00    +0.284 C 
ATOM      2  O   UNL     1       4.756  -0.394   3.415  0.00  0.00    -0.267 OA
ATOM      3  N   UNL     1       4.596   0.744   1.514  0.00  0.00    -0.201 N 
ATOM      4  H   UNL     1       4.051   1.017   0.760  0.00  0.00    +0.178 HD
ENDROOT
BRANCH   3   5
ATOM      5  N   UNL     1       5.820   1.141   1.604  0.00  0.00    -0.174 NA
ATOM      6  C   UNL     1       6.329   1.915   0.673  0.00  0.00    +0.152 C 
ATOM      7  C   UNL     1       7.702   2.464   0.597  0.00  0.00    +0.036 A 
ATOM      8  C   UNL     1       8.826   2.363   1.404  0.00  0.00    +0.050 A 
ATOM      9  C   UNL     1       9.991   3.017   1.043  0.00  0.00    +0.125 A 
ATOM     10  C   UNL     1      10.035   3.771  -0.121  0.00  0.00    +0.055 A 
ATOM     11  C   UNL     1       8.926   3.880  -0.933  0.00  0.00    +0.047 A 
ATOM     12  C   UNL     1       7.738   3.226  -0.588  0.00  0.00    +0.091 A 
ATOM     13  N   UNL     1       6.523   3.167  -1.195  0.00  0.00    -0.210 NA
ATOM     14  C   UNL     1       5.665   2.431  -0.539  0.00  0.00    +0.241 C 
ATOM     15 BR   UNL     1       9.011   4.913  -2.515  0.00  0.00    -0.048 Br
ATOM     16  F   UNL     1      11.087   2.922   1.827  0.00  0.00    -0.205 F 
BRANCH  14  17
ATOM     17  O   UNL     1       4.383   2.188  -0.908  0.00  0.00    -0.491 OA
ATOM     18  H   UNL     1       4.125   2.613  -1.736  0.00  0.00    +0.294 HD
ENDBRANCH  14  17
ENDBRANCH   3   5
BRANCH   1  28
ATOM     19  N   UNL     1       0.711  -0.489   1.189  0.00  0.00    -0.226 N 
ATOM     20  C   UNL     1       0.042  -1.281   2.053  0.00  0.00    +0.275 A 
ATOM     21  O   UNL     1      -1.120  -1.583   1.849  0.00  0.00    -0.266 OA
ATOM     22  C   UNL     1       0.748  -1.770   3.245  0.00  0.00    +0.050 A 
ATOM     23  C   UNL     1       0.147  -2.590   4.195  0.00  0.00    +0.014 A 
ATOM     24  C   UNL     1       0.879  -3.007   5.287  0.00  0.00    +0.001 A 
ATOM     25  C   UNL     1       2.202  -2.617   5.445  0.00  0.00    +0.001 A 
ATOM     26  C   UNL     1       2.815  -1.804   4.515  0.00  0.00    +0.011 A 
ATOM     27  C   UNL     1       2.095  -1.373   3.406  0.00  0.00    +0.020 A 
ATOM     28  C   UNL     1       2.674  -0.505   2.368  0.00  0.00    +0.155 A 
ATOM     29  N   UNL     1       1.932  -0.144   1.348  0.00  0.00    -0.163 NA
BRANCH  19  31
ATOM     30  C   UNL     1      -0.019   1.526   0.010  0.00  0.00    +0.032 C 
ATOM     31  C   UNL     1       0.002  -0.004   0.002  0.00  0.00    +0.105 C 
ATOM     32  C   UNL     1       0.718  -0.497  -1.257  0.00  0.00    +0.032 C 
ENDBRANCH  19  31
ENDBRANCH   1  28
TORSDOF 4
