REMARK  Name = ZINC16809569
REMARK  12 active torsions:
REMARK  status: ('A' for Active; 'I' for Inactive)
REMARK    1  A    between atoms: C_1  and  C_2
REMARK    2  A    between atoms: C_3  and  C_31
REMARK    3  A    between atoms: N_10  and  C_11
REMARK    4  A    between atoms: C_15  and  N_17
REMARK    5  A    between atoms: C_23  and  C_27
REMARK    6  A    between atoms: C_24  and  C_26
REMARK    7  A    between atoms: C_27  and  C_28
REMARK    8  A    between atoms: C_28  and  C_30
REMARK    9  A    between atoms: C_31  and  C_32
REMARK   10  A    between atoms: C_32  and  C_33
REMARK   11  A    between atoms: C_33  and  C_34
REMARK   12  A    between atoms: C_33  and  C_35
REMARK                            x       y       z     vdW  Elec       q    Type
REMARK                         _______ _______ _______ _____ _____    ______ ____
ROOT
ATOM      1  C   UNL     1       3.704  -2.224   0.530  0.00  0.00    +0.035 A 
ATOM      2  C   UNL     1       3.545  -0.845   0.472  0.00  0.00    +0.023 A 
ATOM      3  C   UNL     1       4.609  -0.039   0.117  0.00  0.00    +0.004 A 
ATOM      4  C   UNL     1       5.835  -0.602  -0.184  0.00  0.00    +0.023 A 
ATOM      5  C   UNL     1       6.001  -1.980  -0.128  0.00  0.00    +0.035 A 
ATOM      6  C   UNL     1       4.936  -2.792   0.235  0.00  0.00    +0.046 A 
ENDROOT
BRANCH   1  16
ATOM      7  C   UNL     1      -0.170  -0.298  -1.846  0.00  0.00    +0.066 C 
ATOM      8  C   UNL     1      -0.013  -1.435  -0.870  0.00  0.00    +0.050 A 
ATOM      9  C   UNL     1      -1.109  -2.135  -0.458  0.00  0.00    +0.038 A 
ATOM     10  C   UNL     1      -0.937  -3.192   0.454  0.00  0.00    +0.256 A 
ATOM     11  O   UNL     1      -1.895  -3.840   0.843  0.00  0.00    -0.267 OA
ATOM     12  N   UNL     1       0.309  -3.477   0.889  0.00  0.00    -0.295 N 
ATOM     13  H   UNL     1       0.451  -4.202   1.518  0.00  0.00    +0.172 HD
ATOM     14  C   UNL     1       1.365  -2.744   0.443  0.00  0.00    +0.200 A 
ATOM     15  N   UNL     1       1.196  -1.758  -0.415  0.00  0.00    -0.221 NA
ATOM     16  N   UNL     1       2.627  -3.039   0.890  0.00  0.00    -0.285 N 
ATOM     17  H   UNL     1       2.772  -3.814   1.456  0.00  0.00    +0.155 HD
BRANCH   9  18
ATOM     18  C   UNL     1      -2.481  -1.782  -0.970  0.00  0.00    +0.042 C 
BRANCH  18  19
ATOM     19  C   UNL     1      -2.822  -2.669  -2.169  0.00  0.00    +0.008 C 
BRANCH  19  20
ATOM     20  C   UNL     1      -4.216  -2.310  -2.689  0.00  0.00    -0.017 C 
ATOM     21  C   UNL     1      -4.203  -0.880  -3.234  0.00  0.00    +0.007 C 
ATOM     22  C   UNL     1      -4.608  -3.278  -3.806  0.00  0.00    +0.007 C 
ENDBRANCH  19  20
ENDBRANCH  18  19
ENDBRANCH   9  18
ENDBRANCH   1  16
BRANCH   5  23
ATOM     23  N   UNL     1       7.242  -2.548  -0.432  0.00  0.00    -0.285 N 
ATOM     24  C   UNL     1       7.304  -3.722  -1.137  0.00  0.00    +0.200 A 
ATOM     25  N   UNL     1       8.509  -4.328  -1.321  0.00  0.00    -0.295 N 
ATOM     26  H   UNL     1       9.315  -3.931  -0.956  0.00  0.00    +0.172 HD
ATOM     27  C   UNL     1       8.578  -5.485  -2.014  0.00  0.00    +0.256 A 
ATOM     28  O   UNL     1       9.649  -6.043  -2.189  0.00  0.00    -0.267 OA
ATOM     29  C   UNL     1       7.391  -6.036  -2.530  0.00  0.00    +0.042 A 
ATOM     30  C   UNL     1       6.212  -5.383  -2.314  0.00  0.00    +0.050 A 
ATOM     31  N   UNL     1       6.196  -4.247  -1.620  0.00  0.00    -0.221 NA
ATOM     32  C   UNL     1       4.926  -5.952  -2.856  0.00  0.00    +0.066 C 
ATOM     33  H   UNL     1       8.059  -2.111  -0.145  0.00  0.00    +0.155 HD
BRANCH  29  34
ATOM     34  C   UNL     1       7.420  -7.325  -3.310  0.00  0.00    +0.072 C 
BRANCH  34  35
ATOM     35  C   UNL     1       7.736  -7.032  -4.754  0.00  0.00    -0.075 C 
ATOM     36  C   UNL     1       8.971  -7.108  -5.183  0.00  0.00    +0.007 C 
ATOM     37  C   UNL     1       6.630  -6.650  -5.705  0.00  0.00    +0.039 C 
ENDBRANCH  34  35
ENDBRANCH  29  34
ENDBRANCH   5  23
TORSDOF 7
