REMARK  Name = ZINC52837386
REMARK  9 active torsions:
REMARK  status: ('A' for Active; 'I' for Inactive)
REMARK    1  A    between atoms: C_1  and  C_2
REMARK    2  A    between atoms: C_4  and  C_30
REMARK    3  A    between atoms: C_6  and  N_13
REMARK    4  A    between atoms: C_14  and  C_16
REMARK    5  A    between atoms: C_16  and  N_17
REMARK    6  A    between atoms: N_17  and  C_18
REMARK    7  A    between atoms: N_17  and  C_21
REMARK    8  A    between atoms: C_21  and  C_22
REMARK    9  A    between atoms: C_21  and  C_23
REMARK                            x       y       z     vdW  Elec       q    Type
REMARK                         _______ _______ _______ _____ _____    ______ ____
ROOT
ATOM      1  N   UNL     1      -2.790  -6.422   1.487  0.00  0.00    -0.257 N 
ATOM      2  C   UNL     1      -4.117  -6.371   1.258  0.00  0.00    +0.203 C 
ATOM      3  O   UNL     1      -4.889  -6.849   2.061  0.00  0.00    -0.277 OA
ATOM      4  H   UNL     1      -2.172  -6.039   0.844  0.00  0.00    +0.158 HD
ENDROOT
BRANCH   1  10
ATOM      5  C   UNL     1       0.377  -8.831   6.250  0.00  0.00    +0.068 C 
ATOM      6  C   UNL     1       0.312  -8.116   4.925  0.00  0.00    +0.070 A 
ATOM      7  C   UNL     1      -0.985  -7.846   4.297  0.00  0.00    +0.053 A 
ATOM      8  C   UNL     1      -2.282  -8.077   4.590  0.00  0.00    +0.114 A 
ATOM      9  O   UNL     1      -3.052  -7.584   3.603  0.00  0.00    -0.445 OA
ATOM     10  C   UNL     1      -2.308  -7.019   2.639  0.00  0.00    +0.206 A 
ATOM     11  C   UNL     1      -0.986  -7.139   2.993  0.00  0.00    +0.110 A 
ATOM     12  C   UNL     1       0.305  -6.761   2.428  0.00  0.00    +0.277 A 
ATOM     13  O   UNL     1       0.370  -6.178   1.360  0.00  0.00    -0.266 OA
ATOM     14  N   UNL     1       1.427  -7.071   3.112  0.00  0.00    -0.242 N 
ATOM     15  H   UNL     1       2.285  -6.819   2.736  0.00  0.00    +0.192 HD
ATOM     16  N   UNL     1       1.403  -7.731   4.338  0.00  0.00    -0.175 NA
ATOM     17  C   UNL     1      -2.787  -8.776   5.826  0.00  0.00    +0.087 C 
ENDBRANCH   1  10
BRANCH   2  18
ATOM     18  C   UNL     1      -4.641  -5.720   0.004  0.00  0.00    +0.020 C 
BRANCH  18  19
ATOM     19  N   UNL     1      -6.097  -5.903  -0.071  0.00  0.00    +0.392 N 
ATOM     20  H   UNL     1      -6.452  -5.439  -0.893  0.00  0.00    -0.080 HD
BRANCH  19  21
ATOM     21  C   UNL     1      -6.725  -5.327   1.126  0.00  0.00    -0.067 C 
ATOM     22  C   UNL     1      -7.943  -4.424   0.920  0.00  0.00    -0.017 C 
ATOM     23  C   UNL     1      -6.601  -3.815   1.331  0.00  0.00    -0.017 C 
ENDBRANCH  19  21
BRANCH  19  24
ATOM     24  C   UNL     1      -6.408  -7.336  -0.145  0.00  0.00    -0.037 C 
ATOM     25  C   UNL     1      -7.924  -7.534  -0.083  0.00  0.00    -0.008 C 
BRANCH  24  26
ATOM     26  C   UNL     1      -5.880  -7.899  -1.439  0.00  0.00    -0.026 A 
ATOM     27  C   UNL     1      -5.597  -7.054  -2.496  0.00  0.00    +0.005 A 
ATOM     28  C   UNL     1      -5.112  -7.569  -3.683  0.00  0.00    +0.000 A 
ATOM     29  C   UNL     1      -4.911  -8.931  -3.816  0.00  0.00    +0.003 A 
ATOM     30  C   UNL     1      -5.193  -9.777  -2.761  0.00  0.00    +0.038 A 
ATOM     31  C   UNL     1      -5.673  -9.261  -1.569  0.00  0.00    +0.125 A 
ATOM     32  F   UNL     1      -5.944 -10.088  -0.535  0.00  0.00    -0.205 F 
ENDBRANCH  24  26
ENDBRANCH  19  24
ENDBRANCH  18  19
ENDBRANCH   2  18
TORSDOF 6
