REMARK  Name = ZINC19849241
REMARK  6 active torsions:
REMARK  status: ('A' for Active; 'I' for Inactive)
REMARK    1  A    between atoms: C_3  and  O_22
REMARK    2  A    between atoms: C_6  and  C_7
REMARK    3  A    between atoms: C_10  and  S_12
REMARK    4  A    between atoms: S_12  and  C_13
REMARK    5  A    between atoms: C_13  and  C_14
REMARK    6  A    between atoms: C_14  and  C_16
REMARK                            x       y       z     vdW  Elec       q    Type
REMARK                         _______ _______ _______ _____ _____    ______ ____
ROOT
ATOM      1  C   UNL     1       6.619   6.925  -0.024  0.00  0.00    +0.249 A 
ATOM      2  N   UNL     1       6.771   5.623  -0.031  0.00  0.00    -0.106 NA
ATOM      3  N   UNL     1       5.616   5.057  -0.019  0.00  0.00    -0.101 NA
ATOM      4  C   UNL     1       4.679   5.976  -0.011  0.00  0.00    +0.278 A 
ATOM      5  O   UNL     1       5.291   7.176  -0.011  0.00  0.00    -0.411 OA
ENDROOT
BRANCH   1  11
ATOM      6  C   UNL     1       7.387   9.293  -0.026  0.00  0.00    +0.017 A 
ATOM      7  C   UNL     1       8.399  10.230  -0.025  0.00  0.00    +0.046 A 
ATOM      8  C   UNL     1       9.726   9.822  -0.038  0.00  0.00    +0.117 A 
ATOM      9  C   UNL     1      10.040   8.469  -0.047  0.00  0.00    +0.046 A 
ATOM     10  C   UNL     1       9.035   7.526  -0.043  0.00  0.00    +0.017 A 
ATOM     11  C   UNL     1       7.699   7.932  -0.029  0.00  0.00    +0.039 A 
BRANCH   8  12
ATOM     12  O   UNL     1      10.720  10.748  -0.044  0.00  0.00    -0.507 OA
ATOM     13  H   UNL     1      11.771  10.427  -0.054  0.00  0.00    +0.292 HD
ENDBRANCH   8  12
ENDBRANCH   1  11
BRANCH   4  14
ATOM     14  S   UNL     1       2.940   5.692   0.004  0.00  0.00    -0.058 S 
BRANCH  14  15
ATOM     15  C   UNL     1       2.917   3.882  -0.005  0.00  0.00    +0.159 C 
BRANCH  15  16
ATOM     16  C   UNL     1       1.490   3.398   0.006  0.00  0.00    +0.180 C 
ATOM     17  O   UNL     1       0.577   4.199   0.018  0.00  0.00    -0.291 OA
BRANCH  16  18
ATOM     18  C   UNL     1       1.215   2.014   0.001  0.00  0.00    +0.057 A 
ATOM     19  C   UNL     1      -0.017   1.365   0.009  0.00  0.00    +0.020 A 
ATOM     20  C   UNL     1       0.002  -0.004   0.002  0.00  0.00    +0.028 A 
ATOM     21  C   UNL     1       1.200  -0.653  -0.013  0.00  0.00    +0.079 A 
ATOM     22  S   UNL     1       2.353   0.641  -0.017  0.00  0.00    -0.074 S 
ATOM     23 CL   UNL     1       1.500  -2.363  -0.025  0.00  0.00    -0.076 Cl
ENDBRANCH  16  18
ENDBRANCH  15  16
ENDBRANCH  14  15
ENDBRANCH   4  14
TORSDOF 6
