REMARK  Name = ZINC21876091
REMARK  6 active torsions:
REMARK  status: ('A' for Active; 'I' for Inactive)
REMARK    1  A    between atoms: C_1  and  C_2
REMARK    2  A    between atoms: C_4  and  C_8
REMARK    3  A    between atoms: C_5  and  C_7
REMARK    4  A    between atoms: N_10  and  N_11
REMARK    5  A    between atoms: C_12  and  C_14
REMARK    6  A    between atoms: C_23  and  O_24
REMARK                            x       y       z     vdW  Elec       q    Type
REMARK                         _______ _______ _______ _____ _____    ______ ____
ROOT
ATOM      1  N   UNL     1      -3.754   3.417   0.058  0.00  0.00    -0.230 N 
ATOM      2  C   UNL     1      -3.721   2.070   0.051  0.00  0.00    +0.264 C 
ATOM      3  O   UNL     1      -4.758   1.436   0.058  0.00  0.00    -0.269 OA
ATOM      4  H   UNL     1      -2.816   3.991   0.052  0.00  0.00    +0.173 HD
ENDROOT
BRANCH   2   5
ATOM      5  C   UNL     1      -2.425   1.364   0.034  0.00  0.00    +0.080 A 
ATOM      6  C   UNL     1      -1.245   2.091   0.031  0.00  0.00    +0.025 A 
ATOM      7  C   UNL     1      -0.017   1.415   0.010  0.00  0.00    -0.017 A 
ATOM      8  C   UNL     1       1.200   2.121   0.002  0.00  0.00    +0.008 A 
ATOM      9  C   UNL     1       2.376   1.436  -0.013  0.00  0.00    +0.001 A 
ATOM     10  C   UNL     1       2.394   0.042  -0.021  0.00  0.00    +0.001 A 
ATOM     11  C   UNL     1       1.238  -0.675  -0.013  0.00  0.00    +0.008 A 
ATOM     12  C   UNL     1       0.002  -0.004   0.002  0.00  0.00    -0.014 A 
ATOM     13  C   UNL     1      -1.208  -0.718   0.010  0.00  0.00    +0.054 A 
ATOM     14  C   UNL     1      -2.395  -0.046   0.026  0.00  0.00    +0.130 A 
BRANCH  14  15
ATOM     15  O   UNL     1      -3.560  -0.743   0.033  0.00  0.00    -0.506 OA
ATOM     16  H   UNL     1      -3.544  -1.843   0.027  0.00  0.00    +0.292 HD
ENDBRANCH  14  15
ENDBRANCH   2   5
BRANCH   1  19
ATOM     17  C   UNL     1      -5.018   5.435   0.082  0.00  0.00    +0.263 C 
ATOM     18  O   UNL     1      -3.980   6.069   0.075  0.00  0.00    -0.269 OA
ATOM     19  N   UNL     1      -4.984   4.088   0.074  0.00  0.00    -0.230 N 
ATOM     20  H   UNL     1      -5.923   3.514   0.081  0.00  0.00    +0.173 HD
BRANCH  17  24
ATOM     21  C   UNL     1     -10.020   6.436   0.139  0.00  0.00    +0.086 C 
ATOM     22  C   UNL     1      -8.518   6.561   0.124  0.00  0.00    +0.103 A 
ATOM     23  C   UNL     1      -7.653   5.536   0.103  0.00  0.00    +0.057 A 
ATOM     24  C   UNL     1      -6.312   6.140   0.099  0.00  0.00    +0.079 A 
ATOM     25  C   UNL     1      -6.516   7.488   0.108  0.00  0.00    +0.114 A 
ATOM     26  O   UNL     1      -7.833   7.715   0.123  0.00  0.00    -0.464 OA
ATOM     27  C   UNL     1      -5.440   8.543   0.104  0.00  0.00    +0.087 C 
ENDBRANCH  17  24
ENDBRANCH   1  19
TORSDOF 4
