REMARK  Name = ZINC05437880
REMARK  10 active torsions:
REMARK  status: ('A' for Active; 'I' for Inactive)
REMARK    1  A    between atoms: C_1  and  C_2
REMARK    2  A    between atoms: C_2  and  CA_3
REMARK    3  A    between atoms: CA_3  and  C_5
REMARK    4  A    between atoms: CA_3  and  N_7
REMARK    5  A    between atoms: C_5  and  O_6
REMARK    6  A    between atoms: C_8  and  C_10
REMARK    7  A    between atoms: N_12  and  C_13
REMARK    8  A    between atoms: N_17  and  C_18
REMARK    9  A    between atoms: C_21  and  C_25
REMARK   10  A    between atoms: C_23  and  C_24
REMARK                            x       y       z     vdW  Elec       q    Type
REMARK                         _______ _______ _______ _____ _____    ______ ____
ROOT
ATOM      1  C   UNL     1       2.091   0.672  -0.072  0.00  0.00    +0.133 A 
ATOM      2  C   UNL     1       1.282   1.751   0.209  0.00  0.00    +0.026 A 
ATOM      3  C   UNL     1      -0.030   1.308   0.205  0.00  0.00    +0.079 A 
ATOM      4  N   UNL     1      -0.031   0.011  -0.067  0.00  0.00    -0.168 NA
ATOM      5  N   UNL     1       1.288  -0.408  -0.244  0.00  0.00    -0.218 N 
ATOM      6  C   UNL     1      -1.108   2.353   0.492  0.00  0.00    +0.127 C 
ATOM      7  S   UNL     1      -0.117   3.726   1.214  0.00  0.00    -0.150 S 
ATOM      8  C   UNL     1       1.508   3.232   0.506  0.00  0.00    +0.110 C 
ENDROOT
BRANCH   5   9
ATOM      9  C   UNL     1       1.708  -1.710  -0.547  0.00  0.00    +0.070 A 
ATOM     10  C   UNL     1       2.623  -1.926  -1.569  0.00  0.00    +0.028 A 
ATOM     11  C   UNL     1       3.040  -3.210  -1.861  0.00  0.00    +0.005 A 
ATOM     12  C   UNL     1       2.538  -4.281  -1.144  0.00  0.00    -0.050 A 
ATOM     13  C   UNL     1       1.623  -4.070  -0.129  0.00  0.00    +0.008 A 
ATOM     14  C   UNL     1       1.207  -2.787   0.171  0.00  0.00    -0.025 A 
ATOM     15  C   UNL     1       0.209  -2.558   1.277  0.00  0.00    +0.046 C 
ATOM     16  C   UNL     1       2.990  -5.681  -1.470  0.00  0.00    +0.044 C 
ENDBRANCH   5   9
BRANCH   1  19
ATOM     17  C   UNL     1       4.119   1.820  -0.517  0.00  0.00    +0.304 C 
ATOM     18  O   UNL     1       3.482   2.794  -0.862  0.00  0.00    -0.265 OA
ATOM     19  N   UNL     1       3.479   0.688  -0.163  0.00  0.00    -0.262 N 
ATOM     20  H   UNL     1       3.987  -0.117   0.028  0.00  0.00    +0.157 HD
BRANCH  17  22
ATOM     21  N   UNL     1       6.250   3.009  -0.838  0.00  0.00    -0.303 N 
ATOM     22  C   UNL     1       5.611   1.876  -0.484  0.00  0.00    +0.300 C 
ATOM     23  O   UNL     1       6.247   0.902  -0.140  0.00  0.00    -0.265 OA
ATOM     24  H   UNL     1       5.741   3.787  -1.114  0.00  0.00    +0.150 HD
BRANCH  21  25
ATOM     25  CA  UNL     1       7.714   3.064  -0.806  0.00  0.00    +0.098 C 
BRANCH  25  27
ATOM     26  C   UNL     1       7.712   5.027   0.739  0.00  0.00    +0.006 C 
ATOM     27  C   UNL     1       8.166   4.515  -0.630  0.00  0.00    +0.021 C 
ENDBRANCH  25  27
BRANCH  25  28
ATOM     28  C   UNL     1       8.274   2.511  -2.119  0.00  0.00    +0.178 C 
BRANCH  28  29
ATOM     29  O   UNL     1       7.886   3.364  -3.198  0.00  0.00    -0.393 OA
ATOM     30  H   UNL     1       8.207   3.075  -4.063  0.00  0.00    +0.209 HD
ENDBRANCH  28  29
ENDBRANCH  25  28
ENDBRANCH  21  25
ENDBRANCH  17  22
ENDBRANCH   1  19
TORSDOF 7
