REMARK  Name = ZINC63875080
REMARK  10 active torsions:
REMARK  status: ('A' for Active; 'I' for Inactive)
REMARK    1  A    between atoms: C_1  and  C_2
REMARK    2  A    between atoms: C_4  and  S_20
REMARK    3  A    between atoms: C_6  and  C_7
REMARK    4  A    between atoms: N_9  and  C_10
REMARK    5  A    between atoms: C_10  and  C_11
REMARK    6  A    between atoms: C_11  and  C_12
REMARK    7  A    between atoms: C_11  and  N_17
REMARK    8  A    between atoms: N_17  and  C_18
REMARK    9  A    between atoms: N_17  and  C_19
REMARK   10  A    between atoms: S_20  and  N_23
REMARK                            x       y       z     vdW  Elec       q    Type
REMARK                         _______ _______ _______ _____ _____    ______ ____
ROOT
ATOM      1  C   UNL     1       0.651  -0.078   3.062  0.00  0.00    +0.251 C 
ATOM      2  O   UNL     1       0.547   1.089   3.393  0.00  0.00    -0.270 OA
ATOM      3  N   UNL     1       0.477  -1.055   3.973  0.00  0.00    -0.312 N 
ATOM      4  H   UNL     1       0.560  -1.985   3.708  0.00  0.00    +0.149 HD
ENDROOT
BRANCH   1  10
ATOM      5  C   UNL     1       1.112   1.924   0.720  0.00  0.00    +0.045 C 
ATOM      6  C   UNL     1       1.180   0.424   0.591  0.00  0.00    -0.029 A 
ATOM      7  C   UNL     1       1.464  -0.196  -0.602  0.00  0.00    +0.040 A 
ATOM      8  C   UNL     1       1.509  -1.550  -0.647  0.00  0.00    +0.143 A 
ATOM      9  S   UNL     1       1.169  -2.026   0.927  0.00  0.00    -0.064 S 
ATOM     10  C   UNL     1       0.965  -0.419   1.671  0.00  0.00    +0.079 A 
BRANCH   8  11
ATOM     11  S   UNL     1       1.848  -2.576  -2.039  0.00  0.00    +0.062 S 
ATOM     12  O   UNL     1       1.256  -3.838  -1.767  0.00  0.00    -0.153 OA
ATOM     13  O   UNL     1       1.522  -1.815  -3.194  0.00  0.00    -0.153 OA
BRANCH  11  14
ATOM     14  N   UNL     1       3.485  -2.820  -2.081  0.00  0.00    -0.203 NA
ATOM     15  H   UNL     1       4.053  -2.418  -1.405  0.00  0.00    +0.144 HD
ATOM     16  H   UNL     1       3.877  -3.365  -2.781  0.00  0.00    +0.144 HD
ENDBRANCH  11  14
ENDBRANCH   8  11
ENDBRANCH   1  10
BRANCH   3  17
ATOM     17  C   UNL     1       0.163  -0.714   5.362  0.00  0.00    +0.097 C 
BRANCH  17  18
ATOM     18  C   UNL     1      -0.108  -1.995   6.153  0.00  0.00    +0.016 C 
BRANCH  18  19
ATOM     19  C   UNL     1       1.154  -2.815   6.230  0.00  0.00    +0.093 A 
ATOM     20  C   UNL     1       1.990  -2.876   7.282  0.00  0.00    +0.043 A 
ATOM     21  C   UNL     1       3.035  -3.758   6.924  0.00  0.00    +0.041 A 
ATOM     22  C   UNL     1       2.775  -4.184   5.675  0.00  0.00    +0.195 A 
ATOM     23  O   UNL     1       1.631  -3.614   5.262  0.00  0.00    -0.469 OA
ENDBRANCH  18  19
BRANCH  18  24
ATOM     24  N   UNL     1      -1.157  -2.773   5.481  0.00  0.00    +0.384 N 
ATOM     25  C   UNL     1      -1.412  -4.008   6.235  0.00  0.00    -0.096 C 
ATOM     26  C   UNL     1      -2.390  -1.977   5.414  0.00  0.00    -0.096 C 
ATOM     27  H   UNL     1      -0.857  -3.006   4.546  0.00  0.00    -0.082 HD
ENDBRANCH  18  24
ENDBRANCH  17  18
ENDBRANCH   3  17
TORSDOF 7
