REMARK  Name = ZINC53096793
REMARK  6 active torsions:
REMARK  status: ('A' for Active; 'I' for Inactive)
REMARK    1  A    between atoms: C_1  and  C_2
REMARK    2  A    between atoms: C_2  and  C_4
REMARK    3  A    between atoms: C_2  and  N_6
REMARK    4  A    between atoms: N_6  and  C_7
REMARK    5  A    between atoms: C_7  and  C_13
REMARK    6  A    between atoms: C_13  and  O_14
REMARK                            x       y       z     vdW  Elec       q    Type
REMARK                         _______ _______ _______ _____ _____    ______ ____
ROOT
ATOM      1  C   UNL     1      -0.172  -0.491  -2.534  0.00  0.00    +0.043 C 
ATOM      2  C   UNL     1      -1.428  -1.355  -2.400  0.00  0.00    +0.024 C 
ATOM      3  C   UNL     1      -1.029  -2.776  -1.996  0.00  0.00    +0.002 C 
ATOM      4  C   UNL     1      -0.111  -3.371  -3.066  0.00  0.00    +0.000 C 
ATOM      5  C   UNL     1       1.144  -2.507  -3.200  0.00  0.00    +0.002 C 
ATOM      6  C   UNL     1       0.745  -1.087  -3.603  0.00  0.00    +0.024 C 
ENDROOT
BRANCH   1   7
ATOM      7  N   UNL     1       0.536  -0.454  -1.247  0.00  0.00    -0.294 NA
ATOM      8  H   UNL     1       0.790  -1.383  -0.947  0.00  0.00    +0.124 HD
BRANCH   7  10
ATOM      9  C   UNL     1       2.959  -0.371  -0.903  0.00  0.00    +0.040 C 
ATOM     10  C   UNL     1       1.716   0.417  -1.321  0.00  0.00    +0.155 C 
BRANCH  10  11
ATOM     11  C   UNL     1       1.537   1.565  -0.417  0.00  0.00    +0.081 C 
ATOM     12  N   UNL     1       1.398   2.451   0.281  0.00  0.00    -0.195 NA
ENDBRANCH  10  11
ENDBRANCH   7  10
ENDBRANCH   1   7
BRANCH   1  13
ATOM     13  C   UNL     1      -0.572   0.930  -2.937  0.00  0.00    +0.178 C 
BRANCH  13  14
ATOM     14  O   UNL     1      -1.329   1.529  -1.885  0.00  0.00    -0.393 OA
ATOM     15  H   UNL     1      -1.681   2.403  -2.102  0.00  0.00    +0.209 HD
ENDBRANCH  13  14
ENDBRANCH   1  13
TORSDOF 5
