REMARK  Name = ZINC01584927
REMARK  4 active torsions:
REMARK  status: ('A' for Active; 'I' for Inactive)
REMARK    1  A    between atoms: N_7  and  C_10
REMARK    2  A    between atoms: C_10  and  C_11
REMARK    3  A    between atoms: C_11  and  C_13
REMARK    4  A    between atoms: C_11  and  O_15
REMARK                            x       y       z     vdW  Elec       q    Type
REMARK                         _______ _______ _______ _____ _____    ______ ____
ROOT
ATOM      1  C   UNL     1       0.002  -0.004   0.002  0.00  0.00    +0.225 A 
ATOM      2  N   UNL     1      -0.016   1.317   0.009  0.00  0.00    -0.219 NA
ATOM      3  C   UNL     1       1.111   2.020   0.002  0.00  0.00    +0.147 A 
ATOM      4  C   UNL     1       2.334   1.326  -0.013  0.00  0.00    +0.147 A 
ATOM      5  C   UNL     1       2.299  -0.078  -0.020  0.00  0.00    +0.165 A 
ATOM      6  N   UNL     1       1.122  -0.695  -0.012  0.00  0.00    -0.216 NA
ATOM      7  N   UNL     1       3.608  -0.489  -0.035  0.00  0.00    -0.312 N 
ATOM      8  C   UNL     1       4.387   0.630  -0.036  0.00  0.00    +0.201 A 
ATOM      9  N   UNL     1       3.638   1.694  -0.024  0.00  0.00    -0.231 NA
ATOM     10  N   UNL     1       1.083   3.404   0.009  0.00  0.00    -0.341 N 
ATOM     11  H   UNL     1       0.597   3.731  -0.801  0.00  0.00    +0.144 HD
ATOM     12  H   UNL     1       1.912   3.906   0.004  0.00  0.00    +0.144 HD
ENDROOT
BRANCH   7  13
ATOM     13  C   UNL     1       4.082  -1.875  -0.047  0.00  0.00    +0.156 C 
BRANCH  13  14
ATOM     14  C   UNL     1       4.114  -2.390  -1.488  0.00  0.00    +0.145 C 
BRANCH  14  15
ATOM     15  C   UNL     1       4.489  -3.873  -1.491  0.00  0.00    +0.113 C 
ATOM     16 BR   UNL     1       4.375  -4.574  -3.324  0.00  0.00    -0.089 Br
ENDBRANCH  14  15
BRANCH  14  17
ATOM     17  O   UNL     1       5.083  -1.653  -2.236  0.00  0.00    -0.389 OA
ATOM     18  H   UNL     1       5.983  -1.720  -1.888  0.00  0.00    +0.210 HD
ENDBRANCH  14  17
ENDBRANCH  13  14
ENDBRANCH   7  13
TORSDOF 4
