REMARK  Name = ZINC47145248
REMARK  6 active torsions:
REMARK  status: ('A' for Active; 'I' for Inactive)
REMARK    1  A    between atoms: C_1  and  C_2
REMARK    2  A    between atoms: C_5  and  N_8
REMARK    3  A    between atoms: C_9  and  C_11
REMARK    4  A    between atoms: C_11  and  N_12
REMARK    5  A    between atoms: C_30  and  C_39
REMARK    6  A    between atoms: C_30  and  C_40
REMARK                            x       y       z     vdW  Elec       q    Type
REMARK                         _______ _______ _______ _____ _____    ______ ____
ROOT
ATOM      1  N   UNL     1       0.420  -6.845   2.495  0.00  0.00    -0.233 N 
ATOM      2  C   UNL     1       1.617  -6.997   3.161  0.00  0.00    +0.226 C 
ATOM      3  O   UNL     1       2.693  -6.513   2.886  0.00  0.00    -0.275 OA
ATOM      4  C   UNL     1       1.274  -7.899   4.302  0.00  0.00    +0.091 C 
ATOM      5  C   UNL     1       1.967  -7.833   5.688  0.00  0.00    +0.007 C 
ATOM      6  C   UNL     1       1.048  -6.841   6.517  0.00  0.00    +0.010 C 
ATOM      7  C   UNL     1      -0.357  -7.461   6.035  0.00  0.00    +0.015 C 
ATOM      8  C   UNL     1      -0.101  -7.175   4.611  0.00  0.00    +0.092 C 
ATOM      9  C   UNL     1      -0.668  -7.207   3.274  0.00  0.00    +0.226 C 
ATOM     10  O   UNL     1      -1.798  -7.482   2.930  0.00  0.00    -0.275 OA
ATOM     11  C   UNL     1      -0.104  -8.871   6.556  0.00  0.00    +0.061 C 
ATOM     12  C   UNL     1       1.395  -9.158   6.198  0.00  0.00    +0.017 C 
ATOM     13  C   UNL     1       2.038 -10.234   6.957  0.00  0.00    +0.003 C 
ATOM     14  C   UNL     1       1.220 -11.488   6.753  0.00  0.00    +0.031 A 
ATOM     15  C   UNL     1      -0.017 -11.634   6.229  0.00  0.00    +0.087 A 
ATOM     16  N   UNL     1      -0.459 -12.933   6.149  0.00  0.00    -0.311 N 
ATOM     17  H   UNL     1      -1.327 -13.126   5.763  0.00  0.00    +0.170 HD
ATOM     18  C   UNL     1       0.312 -13.938   6.607  0.00  0.00    +0.289 A 
ATOM     19  O   UNL     1       0.070 -15.132   6.617  0.00  0.00    -0.260 OA
ATOM     20  S   UNL     1       1.691 -13.148   7.159  0.00  0.00    -0.030 S 
ATOM     21  S   UNL     1      -1.046 -10.199   5.760  0.00  0.00    -0.103 S 
ATOM     22  C   UNL     1       3.462 -10.454   6.441  0.00  0.00    +0.017 C 
ATOM     23  C   UNL     1       2.073  -9.872   8.443  0.00  0.00    +0.017 C 
ENDROOT
BRANCH   1  24
ATOM     24  C   UNL     1       0.309  -6.349   1.121  0.00  0.00    +0.212 C 
BRANCH  24  26
ATOM     25  N   UNL     1       0.059  -4.170  -0.021  0.00  0.00    -0.284 N 
ATOM     26  C   UNL     1       0.175  -4.848   1.138  0.00  0.00    +0.235 C 
ATOM     27  O   UNL     1       0.173  -4.251   2.193  0.00  0.00    -0.274 OA
ATOM     28  H   UNL     1      -0.017  -4.651  -0.860  0.00  0.00    +0.155 HD
BRANCH  25  33
ATOM     29  C   UNL     1       0.008   1.503   0.007  0.00  0.00    +0.044 C 
ATOM     30  C   UNL     1       0.022  -0.004  -0.001  0.00  0.00    -0.050 A 
ATOM     31  C   UNL     1       0.777  -0.692   0.931  0.00  0.00    +0.005 A 
ATOM     32  C   UNL     1       0.791  -2.073   0.927  0.00  0.00    +0.023 A 
ATOM     33  C   UNL     1       0.046  -2.771  -0.014  0.00  0.00    +0.033 A 
ATOM     34  C   UNL     1      -0.712  -2.077  -0.948  0.00  0.00    +0.023 A 
ATOM     35  C   UNL     1      -0.726  -0.696  -0.936  0.00  0.00    +0.005 A 
ENDBRANCH  25  33
ENDBRANCH  24  26
ENDBRANCH   1  24
TORSDOF 3
