REMARK  Name = ZINC66598450
REMARK  5 active torsions:
REMARK  status: ('A' for Active; 'I' for Inactive)
REMARK    1  A    between atoms: C_1  and  C_2
REMARK    2  A    between atoms: C_2  and  C_7
REMARK    3  A    between atoms: C_7  and  N_8
REMARK    4  A    between atoms: N_11  and  N_12
REMARK    5  A    between atoms: C_13  and  C_15
REMARK                            x       y       z     vdW  Elec       q    Type
REMARK                         _______ _______ _______ _____ _____    ______ ____
ROOT
ATOM      1  N   UNL     1      -2.117  -0.054  -1.217  0.00  0.00    -0.298 N 
ATOM      2  C   UNL     1      -3.397  -0.406  -1.450  0.00  0.00    +0.316 C 
ATOM      3  O   UNL     1      -3.980  -1.132  -0.668  0.00  0.00    -0.251 OA
ATOM      4  N   UNL     1      -4.032   0.047  -2.549  0.00  0.00    -0.218 N 
ATOM      5  H   UNL     1      -1.653   0.525  -1.841  0.00  0.00    +0.150 HD
ATOM      6  H   UNL     1      -4.953  -0.206  -2.717  0.00  0.00    +0.174 HD
ENDROOT
BRANCH   4   7
ATOM      7  N   UNL     1      -3.360   0.884  -3.450  0.00  0.00    -0.230 N 
ATOM      8  C   UNL     1      -3.994   1.337  -4.550  0.00  0.00    +0.270 C 
ATOM      9  O   UNL     1      -5.146   1.021  -4.759  0.00  0.00    -0.270 OA
ATOM     10  H   UNL     1      -2.439   1.137  -3.283  0.00  0.00    +0.173 HD
BRANCH   8  11
ATOM     11  C   UNL     1      -3.272   2.237  -5.519  0.00  0.00    +0.264 C 
ATOM     12  C   UNL     1      -2.974   3.611  -4.873  0.00  0.00    +0.093 C 
ATOM     13  C   UNL     1      -3.161   4.555  -6.045  0.00  0.00    -0.002 A 
ATOM     14  C   UNL     1      -2.793   5.868  -6.243  0.00  0.00    +0.007 A 
ATOM     15  C   UNL     1      -3.091   6.497  -7.438  0.00  0.00    +0.000 A 
ATOM     16  C   UNL     1      -3.759   5.803  -8.431  0.00  0.00    +0.004 A 
ATOM     17  C   UNL     1      -4.130   4.490  -8.234  0.00  0.00    +0.046 A 
ATOM     18  C   UNL     1      -3.837   3.850  -7.032  0.00  0.00    +0.125 A 
ATOM     19  O   UNL     1      -4.122   2.580  -6.627  0.00  0.00    -0.479 OA
ENDBRANCH   8  11
ENDBRANCH   4   7
BRANCH   1  20
ATOM     20  C   UNL     1      -1.428  -0.547  -0.022  0.00  0.00    +0.112 C 
BRANCH  20  22
ATOM     21  C   UNL     1      -0.019   1.526   0.010  0.00  0.00    +0.013 C 
ATOM     22  C   UNL     1       0.002  -0.004   0.002  0.00  0.00    -0.016 C 
ATOM     23  C   UNL     1       0.783  -0.515  -1.226  0.00  0.00    +0.008 C 
ATOM     24  C   UNL     1       2.213  -0.768  -0.688  0.00  0.00    +0.001 C 
ATOM     25  C   UNL     1       1.950  -1.339   0.728  0.00  0.00    +0.001 C 
ATOM     26  C   UNL     1       0.744  -0.528   1.244  0.00  0.00    +0.008 C 
ENDBRANCH  20  22
ENDBRANCH   1  20
TORSDOF 4
