REMARK  Name = ZINC06550462
REMARK  10 active torsions:
REMARK  status: ('A' for Active; 'I' for Inactive)
REMARK    1  A    between atoms: C_1  and  C_2
REMARK    2  A    between atoms: C_2  and  C_3
REMARK    3  A    between atoms: C_2  and  C_4
REMARK    4  A    between atoms: C_4  and  C_6
REMARK    5  A    between atoms: C_4  and  O_12
REMARK    6  A    between atoms: O_12  and  C_13
REMARK    7  A    between atoms: C_13  and  C_15
REMARK    8  A    between atoms: C_16  and  C_17
REMARK    9  A    between atoms: C_20  and  O_23
REMARK   10  A    between atoms: O_23  and  C_24
REMARK                            x       y       z     vdW  Elec       q    Type
REMARK                         _______ _______ _______ _____ _____    ______ ____
ROOT
ATOM      1  O   UNL     1      -0.007   1.193  -0.030  0.00  0.00    -0.449 OA
ENDROOT
BRANCH   1   2
ATOM      2  C   UNL     1       0.105  -0.152  -0.013  0.00  0.00    +0.333 C 
ATOM      3  O   UNL     1       1.205  -0.670   0.019  0.00  0.00    -0.246 OA
BRANCH   2   4
ATOM      4  C   UNL     1      -1.060  -0.961  -0.032  0.00  0.00    +0.092 C 
ATOM      5  C   UNL     1      -0.948  -2.307  -0.015  0.00  0.00    +0.015 C 
BRANCH   5   6
ATOM      6  C   UNL     1      -2.155  -3.145  -0.035  0.00  0.00    -0.025 A 
ATOM      7  C   UNL     1      -3.422  -2.551  -0.066  0.00  0.00    +0.011 A 
ATOM      8  C   UNL     1      -4.549  -3.340  -0.090  0.00  0.00    +0.046 A 
ATOM      9  C   UNL     1      -4.431  -4.726  -0.073  0.00  0.00    +0.127 A 
ATOM     10  C   UNL     1      -3.175  -5.321  -0.036  0.00  0.00    +0.046 A 
ATOM     11  C   UNL     1      -2.041  -4.540  -0.017  0.00  0.00    +0.011 A 
BRANCH   9  12
ATOM     12  O   UNL     1      -5.546  -5.500  -0.092  0.00  0.00    -0.434 OA
BRANCH  12  13
ATOM     13  C   UNL     1      -6.804  -4.824  -0.130  0.00  0.00    +0.541 C 
ATOM     14  F   UNL     1      -6.931  -4.010   1.001  0.00  0.00    -0.166 F 
ATOM     15  F   UNL     1      -6.875  -4.035  -1.283  0.00  0.00    -0.166 F 
ENDBRANCH  12  13
ENDBRANCH   9  12
ENDBRANCH   5   6
ENDBRANCH   2   4
ENDBRANCH   1   2
BRANCH   1  16
ATOM     16  C   UNL     1       1.207   1.945  -0.009  0.00  0.00    +0.265 C 
BRANCH  16  17
ATOM     17  C   UNL     1       0.970   3.263   0.682  0.00  0.00    +0.261 C 
ATOM     18  O   UNL     1       1.906   3.986   0.946  0.00  0.00    -0.271 OA
ATOM     19  N   UNL     1      -0.284   3.638   1.006  0.00  0.00    -0.237 N 
ATOM     20  C   UNL     1      -0.508   4.862   1.523  0.00  0.00    +0.303 C 
ATOM     21  O   UNL     1       0.419   5.628   1.698  0.00  0.00    -0.253 OA
ATOM     22  N   UNL     1      -1.762   5.237   1.847  0.00  0.00    -0.313 N 
ATOM     23  H   UNL     1      -1.024   3.027   0.866  0.00  0.00    +0.159 HD
ATOM     24  H   UNL     1      -2.502   4.626   1.708  0.00  0.00    +0.146 HD
ATOM     25  H   UNL     1      -1.924   6.118   2.220  0.00  0.00    +0.146 HD
ENDBRANCH  16  17
BRANCH  16  27
ATOM     26  C   UNL     1       3.044   2.882  -1.420  0.00  0.00    +0.011 C 
ATOM     27  C   UNL     1       1.675   2.198  -1.444  0.00  0.00    +0.033 C 
ATOM     28  C   UNL     1       1.784   0.866  -2.187  0.00  0.00    +0.011 C 
ENDBRANCH  16  27
ENDBRANCH   1  16
TORSDOF 8
