REMARK  Name = ZINC66869342
REMARK  7 active torsions:
REMARK  status: ('A' for Active; 'I' for Inactive)
REMARK    1  A    between atoms: C_1  and  C_2
REMARK    2  A    between atoms: C_2  and  C_4
REMARK    3  A    between atoms: C_2  and  N_14
REMARK    4  A    between atoms: N_9  and  C_10
REMARK    5  A    between atoms: C_10  and  C_11
REMARK    6  A    between atoms: C_10  and  C_12
REMARK    7  A    between atoms: C_10  and  C_13
REMARK                            x       y       z     vdW  Elec       q    Type
REMARK                         _______ _______ _______ _____ _____    ______ ____
ROOT
ATOM      1  C   UNL     1      -0.046   1.655   0.008  0.00  0.00    +0.034 C 
ATOM      2  C   UNL     1       0.137   0.136   0.013  0.00  0.00    +0.140 C 
ENDROOT
BRANCH   2   3
ATOM      3  N   UNL     1      -1.158  -0.513  -0.232  0.00  0.00    -0.289 NA
ATOM      4  C   UNL     1      -1.528  -0.431  -1.651  0.00  0.00    +0.104 C 
ATOM      5  C   UNL     1      -2.786  -1.271  -1.897  0.00  0.00    +0.122 C 
ATOM      6  N   UNL     1      -3.830  -0.836  -0.956  0.00  0.00    -0.313 N 
ATOM      7  C   UNL     1      -3.491  -0.760   0.473  0.00  0.00    +0.122 C 
ATOM      8  C   UNL     1      -2.205   0.060   0.626  0.00  0.00    +0.104 C 
ATOM      9  C   UNL     1      -5.103  -0.505  -1.406  0.00  0.00    +0.121 A 
ATOM     10  C   UNL     1      -5.466  -0.790  -2.718  0.00  0.00    +0.045 A 
ATOM     11  C   UNL     1      -6.736  -0.457  -3.153  0.00  0.00    +0.025 A 
ATOM     12  C   UNL     1      -7.604   0.155  -2.256  0.00  0.00    +0.059 A 
ATOM     13  C   UNL     1      -7.177   0.409  -0.968  0.00  0.00    +0.132 A 
ATOM     14  N   UNL     1      -5.961   0.074  -0.580  0.00  0.00    -0.239 NA
ATOM     15 CL   UNL     1      -9.209   0.595  -2.751  0.00  0.00    -0.082 Cl
ENDBRANCH   2   3
BRANCH   2  16
ATOM     16  C   UNL     1       0.672  -0.301   1.352  0.00  0.00    +0.237 C 
ATOM     17  O   UNL     1      -0.058  -0.856   2.146  0.00  0.00    -0.274 OA
ATOM     18  N   UNL     1       1.963  -0.075   1.668  0.00  0.00    -0.239 N 
ATOM     19  C   UNL     1       2.442  -0.466   2.865  0.00  0.00    +0.306 C 
ATOM     20  O   UNL     1       1.711  -1.022   3.661  0.00  0.00    -0.252 OA
ATOM     21  N   UNL     1       3.733  -0.240   3.181  0.00  0.00    -0.294 N 
ATOM     22  H   UNL     1       2.547   0.369   1.033  0.00  0.00    +0.159 HD
ATOM     23  H   UNL     1       4.317   0.204   2.546  0.00  0.00    +0.151 HD
BRANCH  21  24
ATOM     24  C   UNL     1       4.254  -0.665   4.483  0.00  0.00    +0.028 C 
ATOM     25  C   UNL     1       4.099  -2.181   4.624  0.00  0.00    +0.031 C 
ATOM     26  C   UNL     1       5.734  -0.292   4.586  0.00  0.00    +0.031 C 
ATOM     27  C   UNL     1       3.473   0.034   5.597  0.00  0.00    +0.031 C 
ENDBRANCH  21  24
ENDBRANCH   2  16
TORSDOF 3
