REMARK  Name = ZINC40531174
REMARK  3 active torsions:
REMARK  status: ('A' for Active; 'I' for Inactive)
REMARK    1  A    between atoms: C_9  and  C_12
REMARK    2  A    between atoms: N_17  and  C_18
REMARK    3  A    between atoms: C_18  and  C_19
REMARK                            x       y       z     vdW  Elec       q    Type
REMARK                         _______ _______ _______ _____ _____    ______ ____
ROOT
ATOM      1  C   UNL     1      -0.029   1.374  -0.052  0.00  0.00    +0.002 A 
ATOM      2  C   UNL     1       1.156   2.087  -0.058  0.00  0.00    +0.004 A 
ATOM      3  C   UNL     1       2.368   1.424  -0.053  0.00  0.00    +0.047 A 
ATOM      4  C   UNL     1       2.402   0.037  -0.042  0.00  0.00    +0.143 A 
ATOM      5  C   UNL     1       1.208  -0.678  -0.033  0.00  0.00    +0.080 A 
ATOM      6  C   UNL     1      -0.005  -0.009  -0.039  0.00  0.00    +0.027 A 
ATOM      7  N   UNL     1       1.237  -2.084  -0.013  0.00  0.00    -0.248 N 
ATOM      8  C   UNL     1       2.518  -2.745  -0.315  0.00  0.00    +0.171 C 
ATOM      9  C   UNL     1       3.625  -1.964   0.406  0.00  0.00    +0.303 C 
ATOM     10  O   UNL     1       3.599  -0.607  -0.042  0.00  0.00    -0.474 OA
ATOM     11  C   UNL     1       0.132  -2.800   0.273  0.00  0.00    +0.307 C 
ATOM     12  O   UNL     1      -0.885  -2.235   0.626  0.00  0.00    -0.252 OA
ATOM     13  N   UNL     1       0.155  -4.144   0.167  0.00  0.00    -0.290 N 
ATOM     14  H   UNL     1       0.984  -4.600  -0.044  0.00  0.00    +0.151 HD
ENDROOT
BRANCH   9  15
ATOM     15  C   UNL     1       4.965  -2.577   0.089  0.00  0.00    +0.397 C 
ATOM     16  O   UNL     1       5.793  -1.941  -0.541  0.00  0.00    -0.242 OA
ATOM     17  O   UNL     1       5.221  -3.709   0.463  0.00  0.00    -0.242 OA
ENDBRANCH   9  15
BRANCH  13  18
ATOM     18  C   UNL     1      -1.074  -4.915   0.372  0.00  0.00    +0.201 C 
BRANCH  18  19
ATOM     19  C   UNL     1      -0.780  -6.383   0.199  0.00  0.00    +0.228 C 
ATOM     20  O   UNL     1       0.345  -6.749  -0.069  0.00  0.00    -0.274 OA
ATOM     21  N   UNL     1      -1.768  -7.289   0.342  0.00  0.00    -0.328 N 
ATOM     22  H   UNL     1      -2.667  -6.997   0.555  0.00  0.00    +0.145 HD
ATOM     23  H   UNL     1      -1.578  -8.234   0.230  0.00  0.00    +0.145 HD
ENDBRANCH  18  19
ENDBRANCH  13  18
TORSDOF 3
