REMARK  Name = ZINC05641516
REMARK  11 active torsions:
REMARK  status: ('A' for Active; 'I' for Inactive)
REMARK    1  A    between atoms: C_1  and  C_2
REMARK    2  A    between atoms: C_4  and  C_25
REMARK    3  A    between atoms: C_6  and  S_10
REMARK    4  A    between atoms: C_7  and  C_8
REMARK    5  A    between atoms: S_10  and  C_11
REMARK    6  A    between atoms: C_11  and  C_13
REMARK    7  A    between atoms: C_11  and  C_14
REMARK    8  A    between atoms: N_16  and  C_17
REMARK    9  A    between atoms: N_21  and  C_22
REMARK   10  A    between atoms: C_22  and  C_23
REMARK   11  A    between atoms: C_22  and  C_24
REMARK                            x       y       z     vdW  Elec       q    Type
REMARK                         _______ _______ _______ _____ _____    ______ ____
ROOT
ATOM      1  C   UNL     1       0.002  -0.004   0.002  0.00  0.00    +0.136 C 
ATOM      2  C   UNL     1       0.606  -0.499  -1.314  0.00  0.00    +0.029 C 
ENDROOT
BRANCH   1   3
ATOM      3  C   UNL     1      -1.405  -0.526   0.137  0.00  0.00    +0.231 C 
ATOM      4  O   UNL     1      -2.342   0.158  -0.216  0.00  0.00    -0.274 OA
ATOM      5  N   UNL     1      -1.622  -1.754   0.648  0.00  0.00    -0.270 N 
ATOM      6  H   UNL     1      -0.873  -2.302   0.930  0.00  0.00    +0.156 HD
BRANCH   5   7
ATOM      7  C   UNL     1      -2.925  -2.237   0.772  0.00  0.00    +0.123 A 
ATOM      8  C   UNL     1      -4.064  -1.578   0.425  0.00  0.00    +0.065 A 
ATOM      9  C   UNL     1      -5.146  -2.415   0.710  0.00  0.00    +0.136 A 
ATOM     10  N   UNL     1      -4.683  -3.530   1.215  0.00  0.00    -0.178 NA
ATOM     11  N   UNL     1      -3.286  -3.444   1.266  0.00  0.00    -0.248 N 
BRANCH  11  12
ATOM     12  C   UNL     1      -2.376  -4.478   1.765  0.00  0.00    +0.103 C 
ATOM     13  C   UNL     1      -2.695  -4.773   3.232  0.00  0.00    +0.032 C 
ATOM     14  C   UNL     1      -2.552  -5.754   0.939  0.00  0.00    +0.032 C 
ENDBRANCH  11  12
ENDBRANCH   5   7
ENDBRANCH   1   3
BRANCH   1  15
ATOM     15  S   UNL     1      -0.022   1.806   0.012  0.00  0.00    -0.092 S 
BRANCH  15  21
ATOM     16  C   UNL     1       4.089   5.107  -0.009  0.00  0.00    +0.045 C 
ATOM     17  C   UNL     1       3.547   3.701  -0.012  0.00  0.00    -0.029 A 
ATOM     18  C   UNL     1       4.400   2.611  -0.026  0.00  0.00    +0.027 A 
ATOM     19  C   UNL     1       3.873   1.333  -0.028  0.00  0.00    +0.040 A 
ATOM     20  N   UNL     1       2.570   1.130  -0.011  0.00  0.00    -0.244 NA
ATOM     21  C   UNL     1       1.708   2.135  -0.003  0.00  0.00    +0.115 A 
ATOM     22  C   UNL     1       2.168   3.465   0.000  0.00  0.00    +0.086 A 
ATOM     23  C   UNL     1       4.806   0.149  -0.043  0.00  0.00    +0.065 C 
BRANCH  22  24
ATOM     24  C   UNL     1       1.241   4.556   0.015  0.00  0.00    +0.102 C 
ATOM     25  N   UNL     1       0.506   5.422   0.027  0.00  0.00    -0.191 NA
ENDBRANCH  22  24
ENDBRANCH  15  21
ENDBRANCH   1  15
TORSDOF 6
