REMARK  Name = ZINC45551506
REMARK  8 active torsions:
REMARK  status: ('A' for Active; 'I' for Inactive)
REMARK    1  A    between atoms: C_1  and  C_2
REMARK    2  A    between atoms: C_2  and  C_3
REMARK    3  A    between atoms: C_2  and  C_14
REMARK    4  A    between atoms: C_2  and  N_17
REMARK    5  A    between atoms: C_3  and  C_4
REMARK    6  A    between atoms: C_4  and  C_5
REMARK    7  A    between atoms: C_5  and  S_6
REMARK    8  A    between atoms: S_6  and  C_7
REMARK                            x       y       z     vdW  Elec       q    Type
REMARK                         _______ _______ _______ _____ _____    ______ ____
ROOT
ATOM      1  C   UNL     1      -0.019   1.526   0.010  0.00  0.00    -0.001 C 
ATOM      2  C   UNL     1       0.002  -0.004   0.002  0.00  0.00    +0.004 C 
ENDROOT
BRANCH   2   3
ATOM      3  C   UNL     1       0.707  -0.490  -1.238  0.00  0.00    +0.199 C 
ATOM      4  O   UNL     1       1.889  -0.763  -1.196  0.00  0.00    -0.278 OA
ATOM      5  N   UNL     1       0.026  -0.622  -2.393  0.00  0.00    -0.330 N 
ATOM      6  H   UNL     1      -0.919  -0.404  -2.426  0.00  0.00    +0.145 HD
ATOM      7  H   UNL     1       0.480  -0.934  -3.191  0.00  0.00    +0.145 HD
ENDBRANCH   2   3
BRANCH   2   8
ATOM      8  N   UNL     1      -1.376  -0.512   0.012  0.00  0.00    +0.387 N 
ATOM      9  H   UNL     1      -1.864  -0.178  -0.805  0.00  0.00    -0.089 HD
ATOM     10  H   UNL     1      -1.362  -1.521   0.007  0.00  0.00    -0.089 HD
ATOM     11  H   UNL     1      -1.848  -0.187   0.843  0.00  0.00    -0.089 HD
ENDBRANCH   2   8
BRANCH   2  12
ATOM     12  C   UNL     1       0.742  -0.511   1.242  0.00  0.00    -0.003 C 
BRANCH  12  13
ATOM     13  C   UNL     1      -0.042  -0.124   2.497  0.00  0.00    +0.010 C 
BRANCH  13  14
ATOM     14  C   UNL     1       0.698  -0.630   3.737  0.00  0.00    +0.074 C 
BRANCH  14  15
ATOM     15  S   UNL     1      -0.231  -0.171   5.226  0.00  0.00    -0.125 S 
BRANCH  15  16
ATOM     16  C   UNL     1       0.738  -0.817   6.548  0.00  0.00    +0.008 A 
ATOM     17  C   UNL     1       1.923  -1.491   6.279  0.00  0.00    +0.016 A 
ATOM     18  C   UNL     1       2.680  -1.996   7.318  0.00  0.00    +0.016 A 
ATOM     19  C   UNL     1       2.259  -1.831   8.626  0.00  0.00    +0.018 A 
ATOM     20  C   UNL     1       1.079  -1.160   8.898  0.00  0.00    +0.016 A 
ATOM     21  C   UNL     1       0.321  -0.649   7.863  0.00  0.00    +0.016 A 
ATOM     22 BR   UNL     1       3.298  -2.524  10.046  0.00  0.00    -0.050 Br
ENDBRANCH  15  16
ENDBRANCH  14  15
ENDBRANCH  13  14
ENDBRANCH  12  13
ENDBRANCH   2  12
TORSDOF 7
