REMARK  Name = ZINC13238855
REMARK  10 active torsions:
REMARK  status: ('A' for Active; 'I' for Inactive)
REMARK    1  A    between atoms: C_1  and  N_2
REMARK    2  A    between atoms: N_2  and  C_3
REMARK    3  A    between atoms: C_3  and  C_4
REMARK    4  A    between atoms: C_11  and  C_13
REMARK    5  A    between atoms: C_13  and  N_14
REMARK    6  A    between atoms: N_17  and  CA_18
REMARK    7  A    between atoms: CA_18  and  C_20
REMARK    8  A    between atoms: CA_18  and  C_28
REMARK    9  A    between atoms: C_20  and  C_21
REMARK   10  A    between atoms: C_21  and  C_22
REMARK                            x       y       z     vdW  Elec       q    Type
REMARK                         _______ _______ _______ _____ _____    ______ ____
ROOT
ATOM      1  N   UNL     1       3.556   2.382  -0.019  0.00  0.00    -0.291 N 
ATOM      2  C   UNL     1       4.832   1.950  -0.034  0.00  0.00    +0.301 C 
ATOM      3  O   UNL     1       5.071   0.758  -0.042  0.00  0.00    -0.253 OA
ATOM      4  N   UNL     1       5.845   2.840  -0.038  0.00  0.00    -0.286 N 
ATOM      5  H   UNL     1       3.365   3.333  -0.012  0.00  0.00    +0.151 HD
ATOM      6  H   UNL     1       5.654   3.791  -0.032  0.00  0.00    +0.151 HD
ENDROOT
BRANCH   1   7
ATOM      7  C   UNL     1       2.455   1.415  -0.014  0.00  0.00    +0.201 C 
BRANCH   7  10
ATOM      8  C   UNL     1       0.002  -0.004   0.002  0.00  0.00    +0.132 C 
ATOM      9  N   UNL     1      -0.018   1.461   0.010  0.00  0.00    -0.299 N 
ATOM     10  C   UNL     1       1.140   2.151   0.003  0.00  0.00    +0.233 C 
ATOM     11  O   UNL     1       1.124   3.363   0.009  0.00  0.00    -0.274 OA
BRANCH   9  12
ATOM     12  C   UNL     1      -1.296   2.176   0.020  0.00  0.00    +0.142 C 
BRANCH  12  13
ATOM     13  C   UNL     1      -1.728   2.413   1.444  0.00  0.00    -0.030 A 
ATOM     14  C   UNL     1      -2.515   1.480   2.092  0.00  0.00    +0.006 A 
ATOM     15  C   UNL     1      -2.907   1.695   3.401  0.00  0.00    +0.020 A 
ATOM     16  C   UNL     1      -2.520   2.849   4.057  0.00  0.00    +0.041 A 
ATOM     17  C   UNL     1      -1.737   3.786   3.406  0.00  0.00    +0.020 A 
ATOM     18  C   UNL     1      -1.341   3.567   2.100  0.00  0.00    +0.006 A 
ATOM     19 CL   UNL     1      -3.017   3.123   5.698  0.00  0.00    -0.084 Cl
ENDBRANCH  12  13
ENDBRANCH   9  12
ENDBRANCH   7  10
ENDBRANCH   1   7
BRANCH   4  20
ATOM     20  CA  UNL     1       7.232   2.370  -0.054  0.00  0.00    +0.188 C 
BRANCH  20  21
ATOM     21  C   UNL     1       7.682   2.084   1.355  0.00  0.00    +0.376 C 
ATOM     22  O   UNL     1       6.921   2.255   2.279  0.00  0.00    -0.244 OA
ATOM     23  OXT UNL     1       8.928   1.640   1.585  0.00  0.00    -0.244 OA
ENDBRANCH  20  21
BRANCH  20  24
ATOM     24  C   UNL     1       8.129   3.448  -0.667  0.00  0.00    +0.038 C 
BRANCH  24  25
ATOM     25  C   UNL     1       7.753   3.650  -2.136  0.00  0.00    +0.037 C 
BRANCH  25  26
ATOM     26  C   UNL     1       8.636   4.712  -2.739  0.00  0.00    -0.047 A 
ATOM     27  C   UNL     1       8.245   6.037  -2.703  0.00  0.00    +0.003 A 
ATOM     28  C   UNL     1       9.058   7.012  -3.252  0.00  0.00    +0.000 A 
ATOM     29  C   UNL     1      10.255   6.660  -3.846  0.00  0.00    +0.000 A 
ATOM     30  C   UNL     1      10.642   5.334  -3.887  0.00  0.00    +0.000 A 
ATOM     31  C   UNL     1       9.833   4.360  -3.334  0.00  0.00    +0.003 A 
ENDBRANCH  25  26
ENDBRANCH  24  25
ENDBRANCH  20  24
ENDBRANCH   4  20
TORSDOF 9
