REMARK  Name = ZINC54446066
REMARK  9 active torsions:
REMARK  status: ('A' for Active; 'I' for Inactive)
REMARK    1  A    between atoms: C_1  and  C_2
REMARK    2  A    between atoms: C_5  and  N_8
REMARK    3  A    between atoms: N_11  and  C_12
REMARK    4  A    between atoms: C_12  and  C_14
REMARK    5  A    between atoms: C_12  and  C_16
REMARK    6  A    between atoms: C_14  and  O_15
REMARK    7  A    between atoms: C_16  and  C_18
REMARK    8  A    between atoms: C_16  and  O_27
REMARK    9  A    between atoms: C_21  and  N_24
REMARK                            x       y       z     vdW  Elec       q    Type
REMARK                         _______ _______ _______ _____ _____    ______ ____
ROOT
ATOM      1  C   UNK A   1       0.420  -6.929   2.382  0.00  0.00    +0.133 C 
ENDROOT
BRANCH   1   5
ATOM      2  N   UNK A   0       0.058  -4.170  -0.021  0.00  0.00    -0.269 N 
ATOM      3  C   UNK A   0       0.174  -4.849   1.138  0.00  0.00    +0.304 C 
ATOM      4  O   UNK A   0       0.172  -4.250   2.196  0.00  0.00    -0.252 OA
ATOM      5  N   UNK A   1       0.294  -6.191   1.123  0.00  0.00    -0.291 N 
ATOM      6  H   UNK A   0      -0.007  -4.651  -0.861  0.00  0.00    +0.156 HD
ATOM      7  H   UNK A   1       0.296  -6.669   0.279  0.00  0.00    +0.151 HD
BRANCH   2  12
ATOM      8  C   UNK A   0      -0.048   1.502   0.014  0.00  0.00    +0.044 C 
ATOM      9  C   UNK A   0      -0.020  -0.004   0.005  0.00  0.00    -0.050 A 
ATOM     10  C   UNK A   0      -0.606  -0.712   1.038  0.00  0.00    +0.005 A 
ATOM     11  C   UNK A   0      -0.582  -2.093   1.032  0.00  0.00    +0.023 A 
ATOM     12  C   UNK A   0       0.032  -2.771  -0.013  0.00  0.00    +0.035 A 
ATOM     13  C   UNK A   0       0.620  -2.058  -1.049  0.00  0.00    +0.023 A 
ATOM     14  C   UNK A   0       0.587  -0.677  -1.040  0.00  0.00    +0.005 A 
ENDBRANCH   2  12
ENDBRANCH   1   5
BRANCH   1  15
ATOM     15  C   UNK A   1       1.887  -6.950   2.816  0.00  0.00    +0.181 C 
BRANCH  15  16
ATOM     16  O   UNK A   1       2.655  -7.691   1.865  0.00  0.00    -0.393 OA
ATOM     17  H   UNK A   1       3.597  -7.746   2.076  0.00  0.00    +0.209 HD
ENDBRANCH  15  16
ENDBRANCH   1  15
BRANCH   1  18
ATOM     18  C   UNK A   1      -0.074  -8.364   2.185  0.00  0.00    +0.167 C 
BRANCH  18  19
ATOM     19  C   UNK A   1      -1.479  -8.340   1.641  0.00  0.00    -0.017 A 
ATOM     20  C   UNK A   1      -1.691  -8.226   0.279  0.00  0.00    +0.008 A 
ATOM     21  C   UNK A   1      -2.980  -8.205  -0.220  0.00  0.00    +0.033 A 
ATOM     22  C   UNK A   1      -4.056  -8.298   0.642  0.00  0.00    +0.126 A 
ATOM     23  C   UNK A   1      -3.844  -8.413   2.003  0.00  0.00    +0.033 A 
ATOM     24  C   UNK A   1      -2.555  -8.439   2.502  0.00  0.00    +0.008 A 
BRANCH  22  25
ATOM     25  N   UNK A   1      -5.437  -8.275   0.107  0.00  0.00    +0.056 N 
ATOM     26  O   UNK A   1      -5.622  -8.174  -1.083  0.00  0.00    -0.126 OA
ATOM     27  O   UNK A   1      -6.378  -8.356   0.861  0.00  0.00    -0.126 OA
ENDBRANCH  22  25
ENDBRANCH  18  19
BRANCH  18  28
ATOM     28  O   UNK A   1       0.783  -9.040   1.263  0.00  0.00    -0.385 OA
ATOM     29  H   UNK A   1       0.823  -8.629   0.388  0.00  0.00    +0.210 HD
ENDBRANCH  18  28
ENDBRANCH   1  18
TORSDOF 8
