REMARK  Name = ZINC19078740
REMARK  8 active torsions:
REMARK  status: ('A' for Active; 'I' for Inactive)
REMARK    1  A    between atoms: C_1  and  C_2
REMARK    2  A    between atoms: C_2  and  C_3
REMARK    3  A    between atoms: C_2  and  C_4
REMARK    4  A    between atoms: C_4  and  C_6
REMARK    5  A    between atoms: C_4  and  N_15
REMARK    6  A    between atoms: N_12  and  C_14
REMARK    7  A    between atoms: N_15  and  S_16
REMARK    8  A    between atoms: S_16  and  C_19
REMARK                            x       y       z     vdW  Elec       q    Type
REMARK                         _______ _______ _______ _____ _____    ______ ____
ROOT
ATOM      1  C   UNL     1       3.612  -3.061   0.275  0.00  0.00    +0.165 C 
ENDROOT
BRANCH   1   2
ATOM      2  C   UNL     1       3.146  -1.635   0.130  0.00  0.00    +0.237 C 
ATOM      3  O   UNL     1       3.876  -0.723   0.458  0.00  0.00    -0.274 OA
ATOM      4  N   UNL     1       1.920  -1.374  -0.364  0.00  0.00    -0.268 N 
ATOM      5  C   UNL     1       1.447  -0.055  -0.404  0.00  0.00    +0.147 A 
ATOM      6  C   UNL     1       2.142   1.084   0.035  0.00  0.00    +0.065 A 
ATOM      7  C   UNL     1       1.348   2.159  -0.173  0.00  0.00    +0.110 A 
ATOM      8  N   UNL     1       0.195   1.723  -0.722  0.00  0.00    -0.273 N 
ATOM      9  N   UNL     1       0.278   0.332  -0.858  0.00  0.00    -0.156 NA
ATOM     10  C   UNL     1      -0.942   2.560  -1.113  0.00  0.00    +0.172 C 
ATOM     11  H   UNL     1       1.364  -2.098  -0.692  0.00  0.00    +0.156 HD
ENDBRANCH   1   2
BRANCH   1  13
ATOM     12  C   UNL     1       3.387  -5.153   1.624  0.00  0.00    +0.009 C 
ATOM     13  C   UNL     1       2.948  -3.692   1.501  0.00  0.00    +0.010 C 
ATOM     14  C   UNL     1       3.368  -2.927   2.758  0.00  0.00    +0.009 C 
ENDBRANCH   1  13
BRANCH   1  15
ATOM     15  N   UNL     1       5.067  -3.085   0.441  0.00  0.00    -0.178 NA
ATOM     16  H   UNL     1       5.459  -2.909   1.311  0.00  0.00    +0.149 HD
BRANCH  15  17
ATOM     17  S   UNL     1       6.043  -3.413  -0.856  0.00  0.00    +0.061 S 
ATOM     18  O   UNL     1       7.381  -3.370  -0.379  0.00  0.00    -0.153 OA
ATOM     19  O   UNL     1       5.498  -4.560  -1.494  0.00  0.00    -0.153 OA
BRANCH  17  20
ATOM     20  C   UNL     1       5.869  -2.076  -1.990  0.00  0.00    +0.133 A 
ATOM     21  C   UNL     1       6.913  -1.244  -2.220  0.00  0.00    +0.031 A 
ATOM     22  C   UNL     1       6.811  -0.175  -3.111  0.00  0.00    +0.004 A 
ATOM     23  C   UNL     1       5.665   0.078  -3.786  0.00  0.00    +0.031 A 
ATOM     24  C   UNL     1       4.530  -0.753  -3.595  0.00  0.00    +0.102 A 
ATOM     25  C   UNL     1       4.638  -1.874  -2.666  0.00  0.00    +0.126 A 
ATOM     26  N   UNL     1       3.502  -2.564  -2.581  0.00  0.00    -0.189 NA
ATOM     27  S   UNL     1       2.491  -1.865  -3.554  0.00  0.00    +0.117 S 
ATOM     28  N   UNL     1       3.323  -0.679  -4.152  0.00  0.00    -0.191 NA
ENDBRANCH  17  20
ENDBRANCH  15  17
ENDBRANCH   1  15
TORSDOF 5
