REMARK  Name = ZINC26507275
REMARK  4 active torsions:
REMARK  status: ('A' for Active; 'I' for Inactive)
REMARK    1  A    between atoms: C_3  and  O_17
REMARK    2  A    between atoms: C_4  and  O_16
REMARK    3  A    between atoms: C_6  and  C_7
REMARK    4  A    between atoms: N_8  and  N_9
REMARK                            x       y       z     vdW  Elec       q    Type
REMARK                         _______ _______ _______ _____ _____    ______ ____
ROOT
ATOM      1  C   UNL     1      -0.017   1.394   0.010  0.00  0.00    +0.013 A 
ATOM      2  C   UNL     1       1.168   2.099   0.002  0.00  0.00    +0.050 A 
ATOM      3  C   UNL     1       2.381   1.425  -0.013  0.00  0.00    +0.158 A 
ATOM      4  C   UNL     1       2.408   0.032  -0.022  0.00  0.00    +0.159 A 
ATOM      5  C   UNL     1       1.225  -0.683  -0.014  0.00  0.00    +0.058 A 
ATOM      6  C   UNL     1       0.002  -0.004   0.002  0.00  0.00    -0.002 A 
ENDROOT
BRANCH   6   7
ATOM      7  C   UNL     1      -1.261  -0.759   0.011  0.00  0.00    +0.143 C 
ATOM      8  N   UNL     1      -2.401  -0.124   0.025  0.00  0.00    -0.155 NA
BRANCH   8   9
ATOM      9  N   UNL     1      -3.508  -0.786   0.033  0.00  0.00    -0.127 NA
ATOM     10  C   UNL     1      -4.658  -0.145   0.048  0.00  0.00    +0.182 C 
ATOM     11  N   UNL     1      -5.930  -0.678   0.063  0.00  0.00    -0.263 N 
ATOM     12  C   UNL     1      -7.015   0.076   0.077  0.00  0.00    +0.229 C 
ATOM     13  C   UNL     1      -6.778   1.578   0.075  0.00  0.00    +0.173 C 
ATOM     14  S   UNL     1      -4.938   1.619   0.060  0.00  0.00    -0.079 S 
ATOM     15  O   UNL     1      -8.130  -0.400   0.090  0.00  0.00    -0.275 OA
ATOM     16  H   UNL     1      -6.031  -1.643   0.063  0.00  0.00    +0.157 HD
ENDBRANCH   8   9
ENDBRANCH   6   7
BRANCH   4  17
ATOM     17  O   UNL     1       3.599  -0.625  -0.038  0.00  0.00    -0.503 OA
ATOM     18  H   UNL     1       3.952  -0.820   0.841  0.00  0.00    +0.292 HD
ENDBRANCH   4  17
BRANCH   3  19
ATOM     19  O   UNL     1       3.545   2.126  -0.021  0.00  0.00    -0.503 OA
ATOM     20  H   UNL     1       3.891   2.324   0.860  0.00  0.00    +0.292 HD
ENDBRANCH   3  19
TORSDOF 4
