REMARK  Name = ZINC24215700
REMARK  10 active torsions:
REMARK  status: ('A' for Active; 'I' for Inactive)
REMARK    1  A    between atoms: C_1  and  C_2
REMARK    2  A    between atoms: C_3  and  C_14
REMARK    3  A    between atoms: C_4  and  C_13
REMARK    4  A    between atoms: N_5  and  C_7
REMARK    5  A    between atoms: N_21  and  C_22
REMARK    6  A    between atoms: C_22  and  C_23
REMARK    7  A    between atoms: N_25  and  C_26
REMARK    8  A    between atoms: C_26  and  C_27
REMARK    9  A    between atoms: C_27  and  S_28
REMARK   10  A    between atoms: S_28  and  C_29
REMARK                            x       y       z     vdW  Elec       q    Type
REMARK                         _______ _______ _______ _____ _____    ______ ____
ROOT
ATOM      1  C   UNL     1      -2.203  -0.147  -1.034  0.00  0.00    +0.054 C 
ATOM      2  C   UNL     1      -3.219  -1.239  -0.855  0.00  0.00    +0.204 C 
ATOM      3  O   UNL     1      -3.503  -1.931  -1.810  0.00  0.00    -0.277 OA
ATOM      4  N   UNL     1      -3.825  -1.480   0.313  0.00  0.00    -0.318 N 
ATOM      5  C   UNL     1      -3.582  -0.683   1.512  0.00  0.00    +0.085 C 
ATOM      6  C   UNL     1      -2.278   0.103   1.364  0.00  0.00    -0.058 C 
ATOM      7  N   UNL     1      -2.297   0.813   0.075  0.00  0.00    +0.397 N 
ATOM      8  H   UNL     1      -4.533  -2.321   0.345  0.00  0.00    +0.149 HD
ATOM      9  H   UNL     1      -3.252   1.353  -0.013  0.00  0.00    -0.079 HD
ENDROOT
BRANCH   1  12
ATOM     10  C   UNL     1      -4.523   1.940  -1.589  0.00  0.00    +0.068 C 
ATOM     11  C   UNL     1      -3.483   1.488  -2.582  0.00  0.00    +0.063 A 
ATOM     12  C   UNL     1      -2.459   0.567  -2.336  0.00  0.00    -0.009 A 
ATOM     13  C   UNL     1      -1.736   0.434  -3.472  0.00  0.00    +0.044 A 
ATOM     14  N   UNL     1      -2.289   1.238  -4.408  0.00  0.00    -0.237 N 
ATOM     15  N   UNL     1      -3.382   1.891  -3.823  0.00  0.00    -0.171 NA
ATOM     16  C   UNL     1      -0.533  -0.454  -3.661  0.00  0.00    +0.066 C 
BRANCH  14  17
ATOM     17  C   UNL     1      -1.844   1.395  -5.728  0.00  0.00    +0.066 A 
ATOM     18  C   UNL     1      -1.810   2.657  -6.306  0.00  0.00    +0.028 A 
ATOM     19  C   UNL     1      -1.367   2.808  -7.605  0.00  0.00    +0.002 A 
ATOM     20  C   UNL     1      -0.967   1.704  -8.334  0.00  0.00    +0.000 A 
ATOM     21  C   UNL     1      -1.005   0.445  -7.763  0.00  0.00    +0.002 A 
ATOM     22  C   UNL     1      -1.442   0.287  -6.463  0.00  0.00    +0.028 A 
ENDBRANCH  14  17
ENDBRANCH   1  12
BRANCH   7  23
ATOM     23  C   UNL     1      -1.218   1.806   0.004  0.00  0.00    +0.020 C 
BRANCH  23  24
ATOM     24  C   UNL     1      -1.476   2.901   1.008  0.00  0.00    +0.197 C 
ATOM     25  O   UNL     1      -2.517   2.919   1.630  0.00  0.00    -0.278 OA
ATOM     26  N   UNL     1      -0.548   3.856   1.217  0.00  0.00    -0.316 N 
ATOM     27  H   UNL     1       0.396   3.839   0.652  0.00  0.00    +0.149 HD
BRANCH  26  28
ATOM     28  C   UNL     1      -0.797   4.916   2.197  0.00  0.00    +0.115 C 
BRANCH  28  29
ATOM     29  C   UNL     1       0.405   5.862   2.240  0.00  0.00    +0.093 C 
BRANCH  29  30
ATOM     30  S   UNL     1       0.097   7.176   3.453  0.00  0.00    -0.124 S 
BRANCH  30  31
ATOM     31  C   UNL     1       1.551   8.168   3.384  0.00  0.00    +0.008 A 
ATOM     32  C   UNL     1       2.586   7.829   2.521  0.00  0.00    +0.015 A 
ATOM     33  C   UNL     1       3.721   8.613   2.465  0.00  0.00    +0.001 A 
ATOM     34  C   UNL     1       3.835   9.728   3.276  0.00  0.00    +0.000 A 
ATOM     35  C   UNL     1       2.809  10.065   4.141  0.00  0.00    +0.001 A 
ATOM     36  C   UNL     1       1.668   9.289   4.198  0.00  0.00    +0.015 A 
ENDBRANCH  30  31
ENDBRANCH  29  30
ENDBRANCH  28  29
ENDBRANCH  26  28
ENDBRANCH  23  24
ENDBRANCH   7  23
TORSDOF 8
