REMARK  Name = ZINC38653195
REMARK  8 active torsions:
REMARK  status: ('A' for Active; 'I' for Inactive)
REMARK    1  A    between atoms: C_1  and  C_2
REMARK    2  A    between atoms: C_4  and  C_31
REMARK    3  A    between atoms: C_8  and  C_12
REMARK    4  A    between atoms: C_12  and  C_14
REMARK    5  A    between atoms: C_12  and  S_15
REMARK    6  A    between atoms: S_15  and  C_16
REMARK    7  A    between atoms: C_20  and  C_23
REMARK    8  A    between atoms: N_21  and  N_22
REMARK                            x       y       z     vdW  Elec       q    Type
REMARK                         _______ _______ _______ _____ _____    ______ ____
ROOT
ATOM      1  C   UNL     1      -3.925  -5.160   6.158  0.00  0.00    +0.252 C 
ATOM      2  N   UNL     1      -3.748  -4.192   7.254  0.00  0.00    -0.236 N 
ATOM      3  N   UNL     1      -2.773  -4.730   8.101  0.00  0.00    -0.167 NA
ATOM      4  C   UNL     1      -2.348  -5.872   7.670  0.00  0.00    +0.163 C 
ATOM      5  N   UNL     1      -2.982  -6.244   6.482  0.00  0.00    -0.220 N 
ATOM      6  H   UNL     1      -4.215  -3.349   7.365  0.00  0.00    +0.171 HD
ENDROOT
BRANCH   4   7
ATOM      7  C   UNL     1      -1.317  -6.684   8.350  0.00  0.00    +0.032 A 
ATOM      8  C   UNL     1      -0.058  -6.143   8.613  0.00  0.00    +0.012 A 
ATOM      9  C   UNL     1       0.899  -6.907   9.248  0.00  0.00    +0.001 A 
ATOM     10  C   UNL     1       0.614  -8.208   9.624  0.00  0.00    +0.001 A 
ATOM     11  C   UNL     1      -0.632  -8.751   9.367  0.00  0.00    +0.016 A 
ATOM     12  C   UNL     1      -1.602  -7.996   8.738  0.00  0.00    +0.028 A 
ATOM     13 BR   UNL     1      -3.307  -8.737   8.395  0.00  0.00    -0.050 Br
ENDBRANCH   4   7
BRANCH   5  14
ATOM     14  N   UNL     1      -2.771  -7.386   5.763  0.00  0.00    -0.250 NA
ATOM     15  H   UNL     1      -2.013  -7.925   6.154  0.00  0.00    +0.141 HD
ATOM     16  H   UNL     1      -3.614  -7.937   5.704  0.00  0.00    +0.141 HD
ENDBRANCH   5  14
BRANCH   1  17
ATOM     17  S   UNL     1      -3.499  -4.403   4.565  0.00  0.00    -0.106 S 
BRANCH  17  18
ATOM     18  C   UNL     1      -1.794  -3.828   4.794  0.00  0.00    +0.112 C 
ATOM     19  C   UNL     1      -0.873  -5.032   5.001  0.00  0.00    +0.027 C 
BRANCH  18  26
ATOM     20  C   UNL     1       1.579   0.950   0.384  0.00  0.00    +0.024 C 
ATOM     21  C   UNL     1       1.429  -0.573   0.398  0.00  0.00    +0.076 C 
ATOM     22  C   UNL     1      -0.027  -0.974   0.314  0.00  0.00    -0.045 C 
ATOM     23  C   UNL     1      -0.544  -1.663   1.341  0.00  0.00    +0.071 C 
ATOM     24  C   UNL     1       0.349  -1.977   2.477  0.00  0.00    +0.111 C 
ATOM     25  N   UNL     1      -0.098  -2.648   3.511  0.00  0.00    -0.226 NA
ATOM     26  C   UNL     1      -1.354  -3.063   3.573  0.00  0.00    +0.136 C 
ATOM     27  N   UNL     1      -2.235  -2.842   2.627  0.00  0.00    -0.160 NA
ATOM     28  C   UNL     1      -1.942  -2.175   1.506  0.00  0.00    +0.271 C 
ATOM     29  O   UNL     1      -2.786  -1.988   0.646  0.00  0.00    -0.268 OA
ATOM     30  S   UNL     1       1.915  -1.268   2.029  0.00  0.00    -0.098 S 
ATOM     31  C   UNL     1      -0.867  -0.611  -0.884  0.00  0.00    +0.041 C 
ENDBRANCH  18  26
ENDBRANCH  17  18
ENDBRANCH   1  17
TORSDOF 5
