REMARK  Name = ZINC43877145
REMARK  8 active torsions:
REMARK  status: ('A' for Active; 'I' for Inactive)
REMARK    1  A    between atoms: C_1  and  C_2
REMARK    2  A    between atoms: C_2  and  C_4
REMARK    3  A    between atoms: C_2  and  N_13
REMARK    4  A    between atoms: N_16  and  N_17
REMARK    5  A    between atoms: C_18  and  C_20
REMARK    6  A    between atoms: C_20  and  C_22
REMARK    7  A    between atoms: C_20  and  O_23
REMARK    8  A    between atoms: O_23  and  C_24
REMARK                            x       y       z     vdW  Elec       q    Type
REMARK                         _______ _______ _______ _____ _____    ______ ____
ROOT
ATOM      1  N   UNL     1      -1.273  -0.861   0.099  0.00  0.00    -0.289 N 
ATOM      2  C   UNL     1      -1.886  -1.190   1.253  0.00  0.00    +0.316 C 
ATOM      3  O   UNL     1      -1.287  -1.097   2.308  0.00  0.00    -0.251 OA
ATOM      4  N   UNL     1      -3.162  -1.622   1.239  0.00  0.00    -0.218 N 
ATOM      5  H   UNL     1      -1.750  -0.935  -0.742  0.00  0.00    +0.151 HD
ATOM      6  H   UNL     1      -3.603  -1.858   2.070  0.00  0.00    +0.174 HD
ENDROOT
BRANCH   4   7
ATOM      7  N   UNL     1      -3.852  -1.729   0.025  0.00  0.00    -0.230 N 
ATOM      8  C   UNL     1      -5.129  -2.161   0.011  0.00  0.00    +0.270 C 
ATOM      9  O   UNL     1      -5.680  -2.457   1.049  0.00  0.00    -0.270 OA
ATOM     10  H   UNL     1      -3.411  -1.492  -0.806  0.00  0.00    +0.173 HD
BRANCH   8  11
ATOM     11  C   UNL     1      -5.871  -2.276  -1.296  0.00  0.00    +0.257 C 
ATOM     12  C   UNL     1      -5.210  -3.348  -2.165  0.00  0.00    +0.062 C 
BRANCH  11  13
ATOM     13  O   UNL     1      -7.229  -2.639  -1.042  0.00  0.00    -0.477 OA
BRANCH  13  14
ATOM     14  C   UNL     1      -8.147  -2.294  -1.984  0.00  0.00    +0.157 A 
ATOM     15  C   UNL     1      -7.736  -1.721  -3.178  0.00  0.00    +0.048 A 
ATOM     16  C   UNL     1      -8.670  -1.371  -4.133  0.00  0.00    +0.004 A 
ATOM     17  C   UNL     1     -10.015  -1.591  -3.901  0.00  0.00    +0.003 A 
ATOM     18  C   UNL     1     -10.430  -2.161  -2.712  0.00  0.00    +0.042 A 
ATOM     19  C   UNL     1      -9.498  -2.520  -1.754  0.00  0.00    +0.165 A 
ATOM     20  F   UNL     1      -9.903  -3.083  -0.595  0.00  0.00    -0.202 F 
ENDBRANCH  13  14
ENDBRANCH  11  13
ENDBRANCH   8  11
ENDBRANCH   4   7
BRANCH   1  22
ATOM     21  C   UNL     1       0.141   1.114   0.387  0.00  0.00    +0.036 C 
ATOM     22  C   UNL     1       0.115  -0.391   0.114  0.00  0.00    +0.137 C 
BRANCH  22  23
ATOM     23  C   UNL     1       0.755  -0.671  -1.221  0.00  0.00    +0.126 A 
ATOM     24  C   UNL     1       2.009  -1.110  -1.394  0.00  0.00    +0.055 A 
ATOM     25  C   UNL     1       2.201  -1.242  -2.843  0.00  0.00    +0.020 A 
ATOM     26  C   UNL     1       3.262  -1.642  -3.653  0.00  0.00    +0.011 A 
ATOM     27  C   UNL     1       3.110  -1.652  -5.012  0.00  0.00    +0.001 A 
ATOM     28  C   UNL     1       1.909  -1.266  -5.588  0.00  0.00    +0.004 A 
ATOM     29  C   UNL     1       0.849  -0.867  -4.803  0.00  0.00    +0.047 A 
ATOM     30  C   UNL     1       0.981  -0.850  -3.420  0.00  0.00    +0.135 A 
ATOM     31  O   UNL     1       0.148  -0.523  -2.412  0.00  0.00    -0.458 OA
ENDBRANCH  22  23
ENDBRANCH   1  22
TORSDOF 6
