REMARK  Name = ZINC05271817
REMARK  4 active torsions:
REMARK  status: ('A' for Active; 'I' for Inactive)
REMARK    1  A    between atoms: C_1  and  S_2
REMARK    2  A    between atoms: S_2  and  C_3
REMARK    3  A    between atoms: C_6  and  C_9
REMARK    4  A    between atoms: N_11  and  N_12
REMARK                            x       y       z     vdW  Elec       q    Type
REMARK                         _______ _______ _______ _____ _____    ______ ____
ROOT
ATOM      1  N   UNL     1       2.446  -4.216  -0.043  0.00  0.00    -0.242 N 
ATOM      2  C   UNL     1       3.653  -4.887  -0.058  0.00  0.00    +0.176 A 
ATOM      3  N   UNL     1       4.870  -4.394  -0.073  0.00  0.00    -0.221 NA
ATOM      4  C   UNL     1       5.971  -5.179  -0.082  0.00  0.00    +0.116 A 
ATOM      5  C   UNL     1       7.329  -4.779  -0.094  0.00  0.00    +0.152 A 
ATOM      6  C   UNL     1       8.335  -5.712  -0.109  0.00  0.00    +0.079 A 
ATOM      7  C   UNL     1       8.060  -7.074  -0.113  0.00  0.00    +0.127 A 
ATOM      8  C   UNL     1       6.743  -7.499  -0.102  0.00  0.00    +0.055 A 
ATOM      9  C   UNL     1       5.731  -6.571  -0.087  0.00  0.00    +0.046 A 
ATOM     10  S   UNL     1       3.956  -6.649  -0.070  0.00  0.00    -0.051 S 
ATOM     11  F   UNL     1       9.068  -7.973  -0.127  0.00  0.00    -0.205 F 
ATOM     12  F   UNL     1       7.637  -3.463  -0.090  0.00  0.00    -0.203 F 
ATOM     13  H   UNL     1       1.614  -4.714  -0.037  0.00  0.00    +0.172 HD
ENDROOT
BRANCH   1  16
ATOM     14  C   UNL     1       1.246  -2.160  -0.021  0.00  0.00    +0.260 C 
ATOM     15  O   UNL     1       0.203  -2.784  -0.014  0.00  0.00    -0.269 OA
ATOM     16  N   UNL     1       2.424  -2.815  -0.036  0.00  0.00    -0.231 N 
ATOM     17  H   UNL     1       3.256  -2.317  -0.041  0.00  0.00    +0.173 HD
BRANCH  14  21
ATOM     18  C   UNL     1       1.179   2.081   0.002  0.00  0.00    +0.008 A 
ATOM     19  C   UNL     1      -0.017   1.367   0.010  0.00  0.00    +0.015 A 
ATOM     20  C   UNL     1       0.002  -0.004   0.002  0.00  0.00    +0.014 A 
ATOM     21  C   UNL     1       1.223  -0.685  -0.013  0.00  0.00    +0.038 A 
ATOM     22  C   UNL     1       2.422   0.034  -0.021  0.00  0.00    +0.014 A 
ATOM     23  C   UNL     1       2.397   1.405  -0.013  0.00  0.00    +0.015 A 
BRANCH  18  25
ATOM     24  C   UNL     1       2.905   4.309  -0.003  0.00  0.00    +0.090 C 
ATOM     25  S   UNL     1       1.152   3.843   0.012  0.00  0.00    -0.129 S 
ENDBRANCH  18  25
ENDBRANCH  14  21
ENDBRANCH   1  16
TORSDOF 3
