REMARK  Name = ZINC11785696
REMARK  11 active torsions:
REMARK  status: ('A' for Active; 'I' for Inactive)
REMARK    1  A    between atoms: C_1  and  O_2
REMARK    2  A    between atoms: O_2  and  C_3
REMARK    3  A    between atoms: C_3  and  C_5
REMARK    4  A    between atoms: C_6  and  N_24
REMARK    5  A    between atoms: C_10  and  C_14
REMARK    6  A    between atoms: C_14  and  N_63
REMARK    7  A    between atoms: C_19  and  C_21
REMARK    8  A    between atoms: C_21  and  C_22
REMARK    9  A    between atoms: C_22  and  O_23
REMARK   10  A    between atoms: C_25  and  C_27
REMARK   11  A    between atoms: C_28  and  C_29
REMARK                            x       y       z     vdW  Elec       q    Type
REMARK                         _______ _______ _______ _____ _____    ______ ____
ROOT
ATOM      1  C   UNL     1      -7.301  -3.409  -0.094  0.00  0.00    +0.120 A 
ATOM      2  C   UNL     1      -7.483  -2.221   0.579  0.00  0.00    +0.064 A 
ATOM      3  C   UNL     1      -6.321  -1.384   0.828  0.00  0.00    +0.030 A 
ATOM      4  C   UNL     1      -6.257  -0.132   1.491  0.00  0.00    +0.014 A 
ATOM      5  C   UNL     1      -5.040   0.494   1.617  0.00  0.00    +0.022 A 
ATOM      6  C   UNL     1      -3.892  -0.092   1.103  0.00  0.00    +0.026 A 
ATOM      7  N   UNL     1      -3.956  -1.254   0.482  0.00  0.00    -0.246 NA
ATOM      8  C   UNL     1      -5.096  -1.895   0.341  0.00  0.00    +0.111 A 
ATOM      9  S   UNL     1      -5.548  -3.438  -0.413  0.00  0.00    -0.060 S 
ENDROOT
BRANCH   2  10
ATOM     10  N   UNL     1      -8.746  -1.832   1.008  0.00  0.00    -0.280 N 
ATOM     11  C   UNL     1      -9.096  -0.530   0.983  0.00  0.00    +0.241 C 
ATOM     12  O   UNL     1      -8.335   0.295   0.511  0.00  0.00    -0.270 OA
ATOM     13  H   UNL     1      -9.377  -2.497   1.325  0.00  0.00    +0.155 HD
BRANCH  11  14
ATOM     14  C   UNL     1     -10.389  -0.109   1.522  0.00  0.00    +0.068 C 
ATOM     15  C   UNL     1     -10.738   1.194   1.497  0.00  0.00    +0.013 C 
BRANCH  15  16
ATOM     16  C   UNL     1     -12.038   1.617   2.039  0.00  0.00    -0.025 A 
ATOM     17  C   UNL     1     -12.917   0.670   2.576  0.00  0.00    +0.011 A 
ATOM     18  C   UNL     1     -14.132   1.074   3.086  0.00  0.00    +0.039 A 
ATOM     19  C   UNL     1     -14.488   2.414   3.060  0.00  0.00    +0.123 A 
ATOM     20  C   UNL     1     -13.623   3.357   2.524  0.00  0.00    +0.039 A 
ATOM     21  C   UNL     1     -12.404   2.967   2.014  0.00  0.00    +0.011 A 
ATOM     22  F   UNL     1     -15.682   2.803   3.557  0.00  0.00    -0.205 F 
ENDBRANCH  15  16
ENDBRANCH  11  14
ENDBRANCH   2  10
BRANCH   1  23
ATOM     23  C   UNL     1      -8.274  -4.378  -0.447  0.00  0.00    +0.348 C 
ATOM     24  O   UNL     1      -9.424  -4.249  -0.072  0.00  0.00    -0.244 OA
BRANCH  23  26
ATOM     25  C   UNL     1      -8.956  -6.379  -1.517  0.00  0.00    +0.280 C 
ATOM     26  O   UNL     1      -7.924  -5.442  -1.199  0.00  0.00    -0.464 OA
ENDBRANCH  23  26
ENDBRANCH   1  23
BRANCH   6  27
ATOM     27  C   UNL     1      -2.565   0.607   1.249  0.00  0.00    -0.022 C 
BRANCH  27  33
ATOM     28  C   UNL     1      -2.646   0.367   3.656  0.00  0.00    -0.078 C 
ATOM     29  C   UNL     1      -1.968  -0.303   4.854  0.00  0.00    -0.019 C 
ATOM     30  C   UNL     1      -0.545   0.242   5.000  0.00  0.00    -0.003 C 
ATOM     31  C   UNL     1       0.226  -0.010   3.701  0.00  0.00    -0.015 C 
ATOM     32  C   UNL     1      -0.516   0.652   2.537  0.00  0.00    -0.066 C 
ATOM     33  N   UNL     1      -1.869   0.066   2.435  0.00  0.00    +0.385 N 
ATOM     34  H   UNL     1      -1.785  -0.952   2.337  0.00  0.00    -0.081 HD
BRANCH  32  35
ATOM     35  C   UNL     1       0.240   0.386   1.234  0.00  0.00    +0.012 C 
BRANCH  35  36
ATOM     36  C   UNL     1       0.267  -1.119   0.958  0.00  0.00    +0.154 C 
BRANCH  36  37
ATOM     37  O   UNL     1       0.867  -1.359  -0.317  0.00  0.00    -0.395 OA
ATOM     38  H   UNL     1       0.917  -2.294  -0.558  0.00  0.00    +0.209 HD
ENDBRANCH  36  37
ENDBRANCH  35  36
ENDBRANCH  32  35
ENDBRANCH  27  33
ENDBRANCH   6  27
TORSDOF 10
