REMARK  Name = ZINC63804540
REMARK  10 active torsions:
REMARK  status: ('A' for Active; 'I' for Inactive)
REMARK    1  A    between atoms: C_1  and  C_2
REMARK    2  A    between atoms: C_5  and  C_26
REMARK    3  A    between atoms: C_7  and  S_8
REMARK    4  A    between atoms: S_8  and  N_11
REMARK    5  A    between atoms: N_11  and  C_12
REMARK    6  A    between atoms: C_12  and  C_13
REMARK    7  A    between atoms: C_13  and  C_14
REMARK    8  A    between atoms: C_22  and  C_24
REMARK    9  A    between atoms: C_26  and  C_27
REMARK   10  A    between atoms: C_26  and  C_28
REMARK                            x       y       z     vdW  Elec       q    Type
REMARK                         _______ _______ _______ _____ _____    ______ ____
ROOT
ATOM      1  N   UNL     1       1.526   1.238   2.967  0.00  0.00    -0.190 NA
ATOM      2  H   UNL     1       2.234   0.900   3.538  0.00  0.00    +0.148 HD
ENDROOT
BRANCH   1   3
ATOM      3  S   UNL     1       0.157   0.339   2.726  0.00  0.00    +0.059 S 
ATOM      4  O   UNL     1       0.288  -0.825   3.531  0.00  0.00    -0.153 OA
ATOM      5  O   UNL     1      -0.045   0.275   1.321  0.00  0.00    -0.153 OA
BRANCH   3  12
ATOM      6  C   UNL     1      -0.134   1.068   5.647  0.00  0.00    +0.046 C 
ATOM      7  C   UNL     1      -1.239   1.544   4.739  0.00  0.00    -0.024 A 
ATOM      8  C   UNL     1      -2.295   2.271   5.257  0.00  0.00    +0.005 A 
ATOM      9  C   UNL     1      -3.308   2.707   4.424  0.00  0.00    +0.004 A 
ATOM     10  C   UNL     1      -3.265   2.417   3.073  0.00  0.00    -0.043 A 
ATOM     11  C   UNL     1      -2.208   1.691   2.555  0.00  0.00    +0.032 A 
ATOM     12  C   UNL     1      -1.193   1.259   3.387  0.00  0.00    +0.108 A 
BRANCH  10  13
ATOM     13  C   UNL     1      -4.370   2.892   2.165  0.00  0.00    +0.013 C 
ATOM     14  C   UNL     1      -5.701   2.298   2.628  0.00  0.00    +0.012 C 
ATOM     15  C   UNL     1      -4.449   4.419   2.213  0.00  0.00    +0.012 C 
ENDBRANCH  10  13
ENDBRANCH   3  12
ENDBRANCH   1   3
BRANCH   1  16
ATOM     16  C   UNL     1       1.670   2.543   2.317  0.00  0.00    +0.110 C 
BRANCH  16  17
ATOM     17  C   UNL     1       2.784   3.335   3.003  0.00  0.00    +0.050 C 
BRANCH  17  18
ATOM     18  C   UNL     1       2.930   4.678   2.335  0.00  0.00    -0.037 C 
ATOM     19  C   UNL     1       2.211   5.150   1.292  0.00  0.00    +0.002 A 
ATOM     20  C   UNL     1       1.119   4.575   0.497  0.00  0.00    +0.048 A 
ATOM     21  C   UNL     1       0.586   5.306  -0.511  0.00  0.00    +0.124 A 
ATOM     22  C   UNL     1       1.051   6.596  -0.812  0.00  0.00    +0.040 A 
ATOM     23  C   UNL     1       2.050   7.189  -0.126  0.00  0.00    +0.029 A 
ATOM     24  C   UNL     1       2.683   6.512   0.953  0.00  0.00    +0.043 A 
ATOM     25  N   UNL     1       3.656   6.868   1.756  0.00  0.00    -0.378 N 
ATOM     26  C   UNL     1       3.907   5.773   2.700  0.00  0.00    +0.103 C 
ATOM     27  C   UNL     1       5.344   5.270   2.549  0.00  0.00    +0.035 C 
ATOM     28  F   UNL     1      -0.419   4.780  -1.245  0.00  0.00    -0.205 F 
ATOM     29  H   UNL     1       4.128   7.715   1.733  0.00  0.00    +0.160 HD
ENDBRANCH  17  18
ENDBRANCH  16  17
ENDBRANCH   1  16
TORSDOF 6
