REMARK  Name = ZINC61863345
REMARK  9 active torsions:
REMARK  status: ('A' for Active; 'I' for Inactive)
REMARK    1  A    between atoms: C_1  and  C_2
REMARK    2  A    between atoms: N_5  and  C_8
REMARK    3  A    between atoms: C_8  and  C_9
REMARK    4  A    between atoms: C_8  and  C_22
REMARK    5  A    between atoms: C_9  and  N_10
REMARK    6  A    between atoms: N_13  and  N_14
REMARK    7  A    between atoms: C_15  and  C_17
REMARK    8  A    between atoms: C_22  and  C_23
REMARK    9  A    between atoms: C_22  and  C_24
REMARK                            x       y       z     vdW  Elec       q    Type
REMARK                         _______ _______ _______ _____ _____    ______ ____
ROOT
ATOM      1  N   UNL     1       3.615  -4.069   1.073  0.00  0.00    -0.300 N 
ATOM      2  C   UNL     1       4.316  -4.434   2.164  0.00  0.00    +0.316 C 
ATOM      3  O   UNL     1       3.803  -5.145   3.006  0.00  0.00    -0.251 OA
ATOM      4  N   UNL     1       5.586  -4.011   2.321  0.00  0.00    -0.218 N 
ATOM      5  H   UNL     1       4.024  -3.501   0.400  0.00  0.00    +0.150 HD
ATOM      6  H   UNL     1       6.091  -4.274   3.107  0.00  0.00    +0.174 HD
ENDROOT
BRANCH   4   7
ATOM      7  N   UNL     1       6.177  -3.192   1.350  0.00  0.00    -0.229 N 
ATOM      8  C   UNL     1       7.447  -2.769   1.507  0.00  0.00    +0.263 C 
ATOM      9  O   UNL     1       8.080  -3.099   2.492  0.00  0.00    -0.269 OA
ATOM     10  H   UNL     1       5.672  -2.929   0.565  0.00  0.00    +0.173 HD
BRANCH   8  11
ATOM     11  C   UNL     1       8.069  -1.908   0.486  0.00  0.00    +0.076 A 
ATOM     12  C   UNL     1       9.435  -1.364   0.494  0.00  0.00    +0.054 A 
ATOM     13  C   UNL     1       9.551  -0.643  -0.632  0.00  0.00    +0.195 A 
ATOM     14  O   UNL     1       8.395  -0.699  -1.312  0.00  0.00    -0.470 OA
ATOM     15  C   UNL     1       7.499  -1.453  -0.667  0.00  0.00    +0.208 A 
ENDBRANCH   8  11
ENDBRANCH   4   7
BRANCH   1  16
ATOM     16  C   UNL     1       2.234  -4.528   0.902  0.00  0.00    +0.091 C 
BRANCH  16  17
ATOM     17  C   UNL     1       1.724  -4.108  -0.478  0.00  0.00    -0.048 C 
BRANCH  17  22
ATOM     18  C   UNL     1       1.412   1.530  -1.272  0.00  0.00    +0.007 C 
ATOM     19  C   UNL     1       1.051   0.055  -1.088  0.00  0.00    -0.018 C 
ATOM     20  C   UNL     1       1.701  -0.773  -2.200  0.00  0.00    -0.016 C 
ATOM     21  C   UNL     1       1.402  -2.256  -1.965  0.00  0.00    -0.078 C 
ATOM     22  N   UNL     1       1.945  -2.668  -0.665  0.00  0.00    +0.383 N 
ATOM     23  C   UNL     1       1.275  -1.929   0.411  0.00  0.00    -0.078 C 
ATOM     24  C   UNL     1       1.569  -0.434   0.268  0.00  0.00    -0.016 C 
ATOM     25  H   UNL     1       2.935  -2.475  -0.639  0.00  0.00    -0.081 HD
ENDBRANCH  17  22
BRANCH  17  26
ATOM     26  C   UNL     1       2.480  -4.884  -1.559  0.00  0.00    -0.029 C 
ATOM     27  C   UNL     1       3.974  -4.569  -1.463  0.00  0.00    +0.005 C 
ATOM     28  C   UNL     1       2.261  -6.385  -1.356  0.00  0.00    +0.005 C 
ENDBRANCH  17  26
ENDBRANCH  16  17
ENDBRANCH   1  16
TORSDOF 6
