REMARK  Name = ZINC36569335
REMARK  9 active torsions:
REMARK  status: ('A' for Active; 'I' for Inactive)
REMARK    1  A    between atoms: C_1  and  C_2
REMARK    2  A    between atoms: C_2  and  C_3
REMARK    3  A    between atoms: C_3  and  C_5
REMARK    4  A    between atoms: C_3  and  C_6
REMARK    5  A    between atoms: C_6  and  C_8
REMARK    6  A    between atoms: C_6  and  N_12
REMARK    7  A    between atoms: C_8  and  O_10
REMARK    8  A    between atoms: O_10  and  C_11
REMARK    9  A    between atoms: C_24  and  C_26
REMARK                            x       y       z     vdW  Elec       q    Type
REMARK                         _______ _______ _______ _____ _____    ______ ____
ROOT
ATOM      1  N   UNL     1       2.778  -2.692  -1.338  0.00  0.00    -0.286 N 
ATOM      2  C   UNL     1       2.843  -1.950  -2.461  0.00  0.00    +0.304 C 
ATOM      3  O   UNL     1       2.847  -0.736  -2.388  0.00  0.00    -0.253 OA
ATOM      4  N   UNL     1       2.903  -2.553  -3.665  0.00  0.00    -0.273 N 
ATOM      5  C   UNL     1       3.088  -1.766  -4.893  0.00  0.00    +0.116 C 
ATOM      6  C   UNL     1       4.432  -2.140  -5.531  0.00  0.00    +0.074 C 
ATOM      7  C   UNL     1       4.572  -3.640  -5.522  0.00  0.00    +0.040 A 
ATOM      8  C   UNL     1       3.850  -4.478  -4.748  0.00  0.00    +0.062 A 
ATOM      9  N   UNL     1       4.247  -5.726  -5.005  0.00  0.00    -0.348 N 
ATOM     10  C   UNL     1       5.188  -5.698  -5.912  0.00  0.00    +0.171 A 
ATOM     11  N   UNL     1       5.417  -4.411  -6.261  0.00  0.00    -0.349 N 
ATOM     12  H   UNL     1       6.063  -4.097  -6.914  0.00  0.00    +0.166 HD
ATOM     13  C   UNL     1       2.790  -4.018  -3.781  0.00  0.00    +0.156 C 
ATOM     14  H   UNL     1       2.829  -3.659  -1.392  0.00  0.00    +0.151 HD
ATOM     15  H   UNL     1       3.894  -6.526  -4.585  0.00  0.00    +0.167 HD
ENDROOT
BRANCH  13  16
ATOM     16  C   UNL     1       1.427  -4.387  -4.308  0.00  0.00    -0.021 A 
ATOM     17  C   UNL     1       1.046  -3.991  -5.576  0.00  0.00    +0.007 A 
ATOM     18  C   UNL     1      -0.204  -4.330  -6.059  0.00  0.00    +0.015 A 
ATOM     19  C   UNL     1      -1.073  -5.065  -5.274  0.00  0.00    +0.018 A 
ATOM     20  C   UNL     1      -0.691  -5.461  -4.004  0.00  0.00    +0.015 A 
ATOM     21  C   UNL     1       0.561  -5.126  -3.524  0.00  0.00    +0.007 A 
ATOM     22 BR   UNL     1      -2.784  -5.529  -5.934  0.00  0.00    -0.050 Br
ENDBRANCH  13  16
BRANCH   1  23
ATOM     23  C   UNL     1       2.632  -2.038  -0.035  0.00  0.00    +0.186 C 
BRANCH  23  24
ATOM     24  C   UNL     1       4.011  -1.631   0.489  0.00  0.00    +0.017 C 
ATOM     25  C   UNL     1       4.935  -2.851   0.493  0.00  0.00    +0.010 C 
BRANCH  24  27
ATOM     26  C   UNL     1       3.766   0.729  -0.294  0.00  0.00    +0.004 C 
ATOM     27  C   UNL     1       4.601  -0.548  -0.416  0.00  0.00    +0.002 C 
ENDBRANCH  24  27
ENDBRANCH  23  24
BRANCH  23  28
ATOM     28  C   UNL     1       1.988  -2.993   0.937  0.00  0.00    +0.328 C 
ATOM     29  O   UNL     1       2.009  -4.181   0.720  0.00  0.00    -0.249 OA
BRANCH  28  30
ATOM     30  O   UNL     1       1.390  -2.523   2.043  0.00  0.00    -0.467 OA
ATOM     31  C   UNL     1       0.894  -3.488   2.973  0.00  0.00    +0.280 C 
ENDBRANCH  28  30
ENDBRANCH  23  28
ENDBRANCH   1  23
TORSDOF 6
