REMARK  Name = ZINC04357566
REMARK  8 active torsions:
REMARK  status: ('A' for Active; 'I' for Inactive)
REMARK    1  A    between atoms: C_1  and  C_2
REMARK    2  A    between atoms: C_5  and  C_30
REMARK    3  A    between atoms: C_6  and  S_8
REMARK    4  A    between atoms: S_8  and  N_11
REMARK    5  A    between atoms: C_16  and  C_18
REMARK    6  A    between atoms: C_18  and  N_19
REMARK    7  A    between atoms: C_20  and  C_22
REMARK    8  A    between atoms: N_24  and  C_25
REMARK                            x       y       z     vdW  Elec       q    Type
REMARK                         _______ _______ _______ _____ _____    ______ ____
ROOT
ATOM      1  N   UNL     1      -1.336  -3.915   2.655  0.00  0.00    -0.147 NA
ATOM      2  C   UNL     1      -2.620  -3.356   3.106  0.00  0.00    +0.114 C 
ATOM      3  C   UNL     1      -3.254  -4.346   4.091  0.00  0.00    +0.045 C 
ATOM      4  C   UNL     1      -3.289  -5.735   3.447  0.00  0.00    +0.163 C 
ATOM      5  O   UNL     1      -1.960  -6.141   3.116  0.00  0.00    -0.358 OA
ATOM      6  C   UNL     1      -1.317  -5.296   2.150  0.00  0.00    +0.226 C 
ENDROOT
BRANCH   1   7
ATOM      7  S   UNL     1       0.051  -3.011   2.708  0.00  0.00    +0.063 S 
ATOM      8  O   UNL     1       1.031  -3.727   1.970  0.00  0.00    -0.153 OA
ATOM      9  O   UNL     1       0.241  -2.639   4.066  0.00  0.00    -0.153 OA
BRANCH   7  15
ATOM     10  C   UNL     1      -0.485   2.184   2.495  0.00  0.00    +0.044 C 
ATOM     11  C   UNL     1      -0.498   0.859   1.777  0.00  0.00    -0.049 A 
ATOM     12  C   UNL     1      -0.757   0.810   0.420  0.00  0.00    +0.004 A 
ATOM     13  C   UNL     1      -0.769  -0.405  -0.238  0.00  0.00    +0.005 A 
ATOM     14  C   UNL     1      -0.522  -1.572   0.461  0.00  0.00    -0.024 A 
ATOM     15  C   UNL     1      -0.263  -1.524   1.817  0.00  0.00    +0.109 A 
ATOM     16  C   UNL     1      -0.247  -0.307   2.475  0.00  0.00    +0.032 A 
ATOM     17  C   UNL     1      -0.537  -2.897  -0.257  0.00  0.00    +0.046 C 
ENDBRANCH   7  15
ENDBRANCH   1   7
BRANCH   6  18
ATOM     18  C   UNL     1       0.130  -5.750   1.951  0.00  0.00    +0.154 C 
BRANCH  18  19
ATOM     19  N   UNL     1       0.879  -5.557   3.195  0.00  0.00    -0.304 N 
ATOM     20  C   UNL     1       2.183  -5.890   3.256  0.00  0.00    +0.299 C 
ATOM     21  O   UNL     1       2.738  -6.350   2.279  0.00  0.00    -0.265 OA
ATOM     22  H   UNL     1       0.435  -5.190   3.976  0.00  0.00    +0.149 HD
BRANCH  20  23
ATOM     23  C   UNL     1       2.946  -5.694   4.526  0.00  0.00    +0.299 C 
ATOM     24  O   UNL     1       2.392  -5.234   5.502  0.00  0.00    -0.265 OA
ATOM     25  N   UNL     1       4.251  -6.027   4.586  0.00  0.00    -0.305 N 
ATOM     26  H   UNL     1       4.695  -6.394   3.805  0.00  0.00    +0.149 HD
BRANCH  25  27
ATOM     27  C   UNL     1       4.999  -5.834   5.831  0.00  0.00    +0.073 C 
ATOM     28  C   UNL     1       5.585  -4.408   5.880  0.00  0.00    +0.022 C 
ATOM     29  C   UNL     1       6.968  -4.588   6.554  0.00  0.00    +0.002 C 
ATOM     30  C   UNL     1       7.465  -5.930   5.961  0.00  0.00    +0.002 C 
ATOM     31  C   UNL     1       6.194  -6.802   5.882  0.00  0.00    +0.022 C 
ENDBRANCH  25  27
ENDBRANCH  20  23
ENDBRANCH  18  19
ENDBRANCH   6  18
TORSDOF 6
