REMARK  Name = ZINC06393468
REMARK  5 active torsions:
REMARK  status: ('A' for Active; 'I' for Inactive)
REMARK    1  A    between atoms: C_1  and  C_2
REMARK    2  A    between atoms: C_2  and  C_21
REMARK    3  A    between atoms: N_5  and  C_9
REMARK    4  A    between atoms: C_9  and  C_10
REMARK    5  A    between atoms: N_15  and  C_16
REMARK                            x       y       z     vdW  Elec       q    Type
REMARK                         _______ _______ _______ _____ _____    ______ ____
ROOT
ATOM      1  C   UNL     1       4.506  -6.818   4.255  0.00  0.00    +0.047 C 
ATOM      2  C   UNL     1       4.532  -5.387   3.713  0.00  0.00    +0.135 C 
ATOM      3  C   UNL     1       3.132  -4.924   3.363  0.00  0.00    +0.251 C 
ATOM      4  O   UNL     1       2.188  -4.811   4.115  0.00  0.00    -0.272 OA
ATOM      5  N   UNL     1       3.155  -4.664   2.041  0.00  0.00    -0.215 N 
ATOM      6  C   UNL     1       4.361  -4.901   1.512  0.00  0.00    +0.310 C 
ATOM      7  O   UNL     1       4.625  -4.743   0.336  0.00  0.00    -0.252 OA
ATOM      8  N   UNL     1       5.248  -5.329   2.428  0.00  0.00    -0.281 N 
ATOM      9  H   UNL     1       6.178  -5.557   2.271  0.00  0.00    +0.152 HD
ENDROOT
BRANCH   2  10
ATOM     10  C   UNL     1       5.164  -4.455   4.715  0.00  0.00    -0.012 A 
ATOM     11  C   UNL     1       4.372  -3.778   5.624  0.00  0.00    +0.010 A 
ATOM     12  C   UNL     1       4.947  -2.922   6.543  0.00  0.00    +0.050 A 
ATOM     13  C   UNL     1       6.322  -2.739   6.557  0.00  0.00    +0.162 A 
ATOM     14  C   UNL     1       7.119  -3.420   5.644  0.00  0.00    +0.162 A 
ATOM     15  C   UNL     1       6.535  -4.281   4.727  0.00  0.00    +0.055 A 
ATOM     16  O   UNL     1       8.470  -3.258   5.642  0.00  0.00    -0.485 OA
ATOM     17  C   UNL     1       8.981  -2.110   6.329  0.00  0.00    +0.270 C 
ATOM     18  C   UNL     1       8.282  -2.015   7.692  0.00  0.00    +0.270 C 
ATOM     19  O   UNL     1       6.874  -1.889   7.465  0.00  0.00    -0.485 OA
ENDBRANCH   2  10
BRANCH   5  20
ATOM     20  C   UNL     1       2.000  -4.187   1.276  0.00  0.00    +0.214 C 
BRANCH  20  21
ATOM     21  C   UNL     1       1.979  -2.680   1.284  0.00  0.00    +0.238 C 
ATOM     22  O   UNL     1       2.844  -2.065   1.871  0.00  0.00    -0.274 OA
ATOM     23  N   UNL     1       1.000  -2.016   0.639  0.00  0.00    -0.239 N 
ATOM     24  C   UNL     1       0.982  -0.668   0.647  0.00  0.00    +0.306 C 
ATOM     25  O   UNL     1       1.848  -0.052   1.235  0.00  0.00    -0.252 OA
ATOM     26  N   UNL     1       0.002  -0.004   0.002  0.00  0.00    -0.296 N 
ATOM     27  H   UNL     1       0.308  -2.508   0.170  0.00  0.00    +0.159 HD
ATOM     28  H   UNL     1      -0.690  -0.496  -0.467  0.00  0.00    +0.151 HD
BRANCH  26  29
ATOM     29  C   UNL     1      -0.018   1.461   0.010  0.00  0.00    +0.074 C 
ATOM     30  C   UNL     1      -0.768   1.972   1.257  0.00  0.00    +0.022 C 
ATOM     31  C   UNL     1      -1.536   3.220   0.752  0.00  0.00    +0.002 C 
ATOM     32  C   UNL     1      -1.983   2.796  -0.668  0.00  0.00    +0.002 C 
ATOM     33  C   UNL     1      -0.790   1.984  -1.214  0.00  0.00    +0.022 C 
ENDBRANCH  26  29
ENDBRANCH  20  21
ENDBRANCH   5  20
TORSDOF 4
