REMARK  Name = ZINC21816319
REMARK  5 active torsions:
REMARK  status: ('A' for Active; 'I' for Inactive)
REMARK    1  A    between atoms: C_3  and  S_10
REMARK    2  A    between atoms: C_5  and  C_6
REMARK    3  A    between atoms: C_6  and  C_7
REMARK    4  A    between atoms: S_10  and  N_13
REMARK    5  A    between atoms: C_17  and  C_20
REMARK                            x       y       z     vdW  Elec       q    Type
REMARK                         _______ _______ _______ _____ _____    ______ ____
ROOT
ATOM      1  S   UNL     1       6.801   4.816   1.036  0.00  0.00    +0.067 S 
ATOM      2  O   UNL     1       6.933   4.270   2.341  0.00  0.00    -0.152 OA
ATOM      3  O   UNL     1       7.726   4.536  -0.005  0.00  0.00    -0.152 OA
ENDROOT
BRANCH   1   4
ATOM      4  N   UNL     1       6.772   6.463   1.213  0.00  0.00    -0.175 NA
ATOM      5  C   UNL     1       7.167   7.341   0.103  0.00  0.00    +0.109 C 
ATOM      6  C   UNL     1       8.246   8.305   0.593  0.00  0.00    +0.018 C 
ATOM      7  C   UNL     1       7.742   9.046   1.833  0.00  0.00    +0.015 C 
ATOM      8  C   UNL     1       7.450   8.039   2.947  0.00  0.00    +0.090 C 
ATOM      9  C   UNL     1       6.356   7.072   2.483  0.00  0.00    +0.122 C 
BRANCH   8  10
ATOM     10  C   UNL     1       6.984   8.772   4.179  0.00  0.00    +0.215 C 
ATOM     11  O   UNL     1       5.885   8.545   4.640  0.00  0.00    -0.276 OA
ATOM     12  N   UNL     1       7.787   9.680   4.767  0.00  0.00    -0.329 N 
ATOM     13  H   UNL     1       7.447  10.216   5.666  0.00  0.00    +0.145 HD
ATOM     14  H   UNL     1       8.784   9.886   4.348  0.00  0.00    +0.145 HD
ENDBRANCH   8  10
ENDBRANCH   1   4
BRANCH   1  17
ATOM     15  C   UNL     1       3.479   3.800  -1.064  0.00  0.00    +0.014 A 
ATOM     16  C   UNL     1       4.781   4.203  -0.833  0.00  0.00    +0.036 A 
ATOM     17  C   UNL     1       5.214   4.328   0.445  0.00  0.00    +0.143 A 
ATOM     18  S   UNL     1       3.759   3.875   1.374  0.00  0.00    -0.073 S 
ATOM     19  C   UNL     1       2.674   3.541  -0.004  0.00  0.00    +0.002 A 
BRANCH  19  20
ATOM     20  C   UNL     1       1.235   3.094   0.007  0.00  0.00    +0.167 C 
BRANCH  20  21
ATOM     21  C   UNL     1       1.177   1.588  -0.001  0.00  0.00    +0.361 C 
ATOM     22  O   UNL     1       2.199   0.944  -0.014  0.00  0.00    -0.246 OA
ATOM     23  O   UNL     1      -0.011   0.963   0.007  0.00  0.00    -0.246 OA
ENDBRANCH  20  21
ENDBRANCH  19  20
ENDBRANCH   1  17
TORSDOF 5
