REMARK  Name = ZINC32015642
REMARK  6 active torsions:
REMARK  status: ('A' for Active; 'I' for Inactive)
REMARK    1  A    between atoms: C_1  and  C_2
REMARK    2  A    between atoms: C_2  and  C_3
REMARK    3  A    between atoms: C_2  and  C_4
REMARK    4  A    between atoms: C_2  and  C_5
REMARK    5  A    between atoms: C_10  and  C_13
REMARK    6  A    between atoms: C_13  and  N_15
REMARK                            x       y       z     vdW  Elec       q    Type
REMARK                         _______ _______ _______ _____ _____    ______ ____
ROOT
ATOM      1  C   UNL     1       4.249   3.529  -1.855  0.00  0.00    +0.221 C 
ATOM      2  O   UNL     1       4.928   2.719  -1.262  0.00  0.00    -0.275 OA
ATOM      3  N   UNL     1       3.078   3.941  -1.329  0.00  0.00    -0.301 N 
ATOM      4  C   UNL     1       2.559   3.337  -0.095  0.00  0.00    +0.108 C 
ATOM      5  C   UNL     1       1.130   2.846  -0.349  0.00  0.00    +0.029 C 
ATOM      6  C   UNL     1       0.285   4.003  -0.887  0.00  0.00    +0.043 C 
ATOM      7  C   UNL     1       0.872   4.491  -2.214  0.00  0.00    +0.029 C 
ATOM      8  C   UNL     1       2.297   5.001  -1.980  0.00  0.00    +0.108 C 
ENDROOT
BRANCH   1  10
ATOM      9  C   UNL     1       6.038   3.416  -3.568  0.00  0.00    +0.020 C 
ATOM     10  C   UNL     1       4.713   4.075  -3.180  0.00  0.00    +0.039 C 
ATOM     11  C   UNL     1       3.663   3.777  -4.252  0.00  0.00    +0.020 C 
ATOM     12  C   UNL     1       4.910   5.588  -3.067  0.00  0.00    +0.020 C 
ENDBRANCH   1  10
BRANCH   6  13
ATOM     13  C   UNL     1      -1.129   3.532  -1.106  0.00  0.00    +0.049 C 
ATOM     14  S   UNL     1      -1.528   2.018  -0.778  0.00  0.00    -0.040 S 
BRANCH  13  15
ATOM     15  N   UNL     1      -2.057   4.384  -1.585  0.00  0.00    -0.355 N 
ATOM     16  H   UNL     1      -3.090   4.040  -1.745  0.00  0.00    +0.143 HD
ATOM     17  H   UNL     1      -1.782   5.424  -1.815  0.00  0.00    +0.143 HD
ENDBRANCH  13  15
ENDBRANCH   6  13
TORSDOF 3
