REMARK  Name = ZINC39012855
REMARK  8 active torsions:
REMARK  status: ('A' for Active; 'I' for Inactive)
REMARK    1  A    between atoms: C_1  and  C_2
REMARK    2  A    between atoms: C_5  and  N_9
REMARK    3  A    between atoms: C_10  and  C_12
REMARK    4  A    between atoms: C_12  and  S_13
REMARK    5  A    between atoms: S_13  and  C_14
REMARK    6  A    between atoms: C_18  and  C_22
REMARK    7  A    between atoms: N_20  and  N_21
REMARK    8  A    between atoms: C_25  and  C_28
REMARK                            x       y       z     vdW  Elec       q    Type
REMARK                         _______ _______ _______ _____ _____    ______ ____
ROOT
ATOM      1  C   UNL     1       0.599  -8.763   2.626  0.00  0.00    +0.214 C 
ATOM      2  N   UNL     1      -0.572  -9.295   1.894  0.00  0.00    -0.228 NA
ATOM      3  N   UNL     1      -0.129  -9.368   0.493  0.00  0.00    -0.234 NA
ATOM      4  C   UNL     1       1.289  -9.800   0.612  0.00  0.00    +0.185 C 
ATOM      5  N   UNL     1       1.788  -9.086   1.811  0.00  0.00    -0.197 NA
ATOM      6  H   UNL     1      -1.368  -8.682   1.990  0.00  0.00    +0.143 HD
ATOM      7  H   UNL     1      -0.195  -8.466   0.046  0.00  0.00    +0.143 HD
ENDROOT
BRANCH   4   8
ATOM      8  C   UNL     1       2.080  -9.387  -0.630  0.00  0.00    +0.187 C 
ATOM      9  C   UNL     1       1.473  -9.997  -1.881  0.00  0.00    +0.034 C 
ATOM     10  C   UNL     1       2.456 -10.776  -2.371  0.00  0.00    +0.091 C 
ATOM     11  N   UNL     1       3.557 -10.705  -1.577  0.00  0.00    -0.154 NA
ATOM     12  N   UNL     1       3.436  -9.961  -0.597  0.00  0.00    -0.176 NA
BRANCH  10  13
ATOM     13  C   UNL     1       2.352 -11.596  -3.603  0.00  0.00    +0.002 A 
ATOM     14  C   UNL     1       1.175 -11.593  -4.348  0.00  0.00    +0.010 A 
ATOM     15  C   UNL     1       1.083 -12.357  -5.493  0.00  0.00    +0.001 A 
ATOM     16  C   UNL     1       2.158 -13.127  -5.902  0.00  0.00    +0.000 A 
ATOM     17  C   UNL     1       3.329 -13.134  -5.166  0.00  0.00    +0.001 A 
ATOM     18  C   UNL     1       3.433 -12.369  -4.022  0.00  0.00    +0.010 A 
ENDBRANCH  10  13
ENDBRANCH   4   8
BRANCH   5  19
ATOM     19  N   UNL     1       2.724  -9.910   2.558  0.00  0.00    -0.264 NA
ATOM     20  H   UNL     1       3.038  -9.437   3.392  0.00  0.00    +0.137 HD
ATOM     21  H   UNL     1       2.318 -10.806   2.781  0.00  0.00    +0.137 HD
ENDBRANCH   5  19
BRANCH   1  22
ATOM     22  S   UNL     1       0.447  -6.965   2.820  0.00  0.00    -0.115 S 
BRANCH  22  23
ATOM     23  C   UNL     1       0.310  -6.351   1.119  0.00  0.00    +0.168 C 
BRANCH  23  25
ATOM     24  N   UNL     1       0.059  -4.170  -0.022  0.00  0.00    -0.285 N 
ATOM     25  C   UNL     1       0.176  -4.850   1.136  0.00  0.00    +0.227 C 
ATOM     26  O   UNL     1       0.174  -4.254   2.192  0.00  0.00    -0.275 OA
ATOM     27  H   UNL     1      -0.015  -4.651  -0.861  0.00  0.00    +0.155 HD
BRANCH  24  32
ATOM     28  C   UNL     1       0.008   1.503   0.012  0.00  0.00    +0.045 C 
ATOM     29  C   UNL     1       0.022  -0.004   0.003  0.00  0.00    -0.032 A 
ATOM     30  C   UNL     1       0.777  -0.693   0.934  0.00  0.00    +0.006 A 
ATOM     31  C   UNL     1       0.792  -2.074   0.928  0.00  0.00    +0.023 A 
ATOM     32  C   UNL     1       0.046  -2.771  -0.014  0.00  0.00    +0.035 A 
ATOM     33  C   UNL     1      -0.712  -2.078  -0.948  0.00  0.00    +0.043 A 
ATOM     34  C   UNL     1      -0.726  -0.695  -0.934  0.00  0.00    +0.046 A 
ATOM     35 CL   UNL     1      -1.678   0.174  -2.096  0.00  0.00    -0.083 Cl
ENDBRANCH  24  32
ENDBRANCH  23  25
ENDBRANCH  22  23
ENDBRANCH   1  22
TORSDOF 7
