REMARK  Name = ZINC00752691
REMARK  5 active torsions:
REMARK  status: ('A' for Active; 'I' for Inactive)
REMARK    1  A    between atoms: C_4  and  C_7
REMARK    2  A    between atoms: C_12  and  C_20
REMARK    3  A    between atoms: C_14  and  C_18
REMARK    4  A    between atoms: C_15  and  N_17
REMARK    5  A    between atoms: C_23  and  C_26
REMARK                            x       y       z     vdW  Elec       q    Type
REMARK                         _______ _______ _______ _____ _____    ______ ____
ROOT
ATOM      1  C   UNL     1       2.451   3.937   0.000  0.00  0.00    +0.034 C 
ATOM      2  C   UNL     1       2.535   4.812   1.252  0.00  0.00    +0.083 C 
ATOM      3  C   UNL     1       3.815   5.616   1.225  0.00  0.00    +0.115 C 
ATOM      4  C   UNL     1       4.355   6.005   0.056  0.00  0.00    +0.046 C 
ATOM      5  C   UNL     1       5.632   6.811   0.031  0.00  0.00    +0.101 C 
ATOM      6  C   UNL     1       6.351   6.679   1.344  0.00  0.00    +0.098 C 
ATOM      7  C   UNL     1       5.692   6.245   2.446  0.00  0.00    +0.198 C 
ATOM      8  O   UNL     1       4.389   5.928   2.402  0.00  0.00    -0.445 OA
ATOM      9  C   UNL     1       3.756   5.674  -1.174  0.00  0.00    +0.164 C 
ATOM     10  O   UNL     1       4.262   6.063  -2.208  0.00  0.00    -0.292 OA
ATOM     11  C   UNL     1       2.501   4.846  -1.232  0.00  0.00    +0.088 C 
ENDROOT
BRANCH   1  15
ATOM     12  C   UNL     1      -1.219   1.751   0.017  0.00  0.00    +0.000 A 
ATOM     13  C   UNL     1      -0.013   1.076   0.008  0.00  0.00    +0.000 A 
ATOM     14  C   UNL     1       1.175   1.783   0.000  0.00  0.00    +0.004 A 
ATOM     15  C   UNL     1       1.156   3.165   0.008  0.00  0.00    -0.043 A 
ATOM     16  C   UNL     1      -0.050   3.840   0.022  0.00  0.00    +0.004 A 
ATOM     17  C   UNL     1      -1.238   3.133   0.029  0.00  0.00    +0.000 A 
ENDBRANCH   1  15
BRANCH   5  18
ATOM     18  C   UNL     1       5.302   8.261  -0.214  0.00  0.00    -0.035 A 
ATOM     19  C   UNL     1       4.497   8.947   0.675  0.00  0.00    +0.005 A 
ATOM     20  C   UNL     1       4.199  10.279   0.452  0.00  0.00    +0.012 A 
ATOM     21  C   UNL     1       4.698  10.921  -0.665  0.00  0.00    +0.055 A 
ATOM     22  C   UNL     1       5.499  10.234  -1.558  0.00  0.00    +0.012 A 
ATOM     23  C   UNL     1       5.802   8.904  -1.332  0.00  0.00    +0.005 A 
BRANCH  21  24
ATOM     24  C   UNL     1       4.369  12.371  -0.911  0.00  0.00    +0.417 C 
ATOM     25  F   UNL     1       3.198  12.461  -1.671  0.00  0.00    -0.166 F 
ATOM     26  F   UNL     1       4.181  13.021   0.314  0.00  0.00    -0.166 F 
ATOM     27  F   UNL     1       5.422  12.978  -1.604  0.00  0.00    -0.166 F 
ENDBRANCH  21  24
ENDBRANCH   5  18
BRANCH   7  28
ATOM     28  N   UNL     1       6.372   6.127   3.633  0.00  0.00    -0.328 N 
ATOM     29  H   UNL     1       5.910   5.817   4.428  0.00  0.00    +0.145 HD
ATOM     30  H   UNL     1       7.314   6.354   3.676  0.00  0.00    +0.145 HD
ENDBRANCH   7  28
BRANCH   6  31
ATOM     31  C   UNL     1       7.741   7.013   1.431  0.00  0.00    +0.101 C 
ATOM     32  N   UNL     1       8.844   7.278   1.500  0.00  0.00    -0.191 NA
ENDBRANCH   6  31
TORSDOF 5
