REMARK  Name = ZINC33234568
REMARK  4 active torsions:
REMARK  status: ('A' for Active; 'I' for Inactive)
REMARK    1  A    between atoms: C_1  and  N_2
REMARK    2  A    between atoms: C_6  and  C_7
REMARK    3  A    between atoms: N_9  and  N_10
REMARK    4  A    between atoms: C_11  and  C_13
REMARK                            x       y       z     vdW  Elec       q    Type
REMARK                         _______ _______ _______ _____ _____    ______ ____
ROOT
ATOM      1  N   UNL     1      -3.550  -1.331  -0.009  0.00  0.00    -0.229 N 
ATOM      2  C   UNL     1      -4.801  -0.839  -0.106  0.00  0.00    +0.276 C 
ATOM      3  O   UNL     1      -4.973   0.353  -0.279  0.00  0.00    -0.267 OA
ATOM      4  H   UNL     1      -3.394  -2.409   0.147  0.00  0.00    +0.173 HD
ENDROOT
BRANCH   2   5
ATOM      5  C   UNL     1      -5.957  -1.742  -0.003  0.00  0.00    +0.104 A 
ATOM      6  C   UNL     1      -7.260  -1.365  -0.078  0.00  0.00    +0.041 A 
ATOM      7  C   UNL     1      -8.054  -2.528   0.064  0.00  0.00    +0.000 A 
ATOM      8  C   UNL     1      -9.437  -2.755   0.066  0.00  0.00    +0.010 A 
ATOM      9  C   UNL     1      -9.917  -4.021   0.236  0.00  0.00    +0.001 A 
ATOM     10  C   UNL     1      -9.046  -5.091   0.406  0.00  0.00    +0.002 A 
ATOM     11  C   UNL     1      -7.684  -4.894   0.407  0.00  0.00    +0.026 A 
ATOM     12  C   UNL     1      -7.170  -3.611   0.237  0.00  0.00    +0.047 A 
ATOM     13  N   UNL     1      -5.891  -3.108   0.193  0.00  0.00    -0.351 N 
ATOM     14  H   UNL     1      -4.914  -3.604   0.284  0.00  0.00    +0.166 HD
ENDBRANCH   2   5
BRANCH   1  17
ATOM     15  C   UNL     1      -1.198  -0.964  -0.011  0.00  0.00    +0.277 C 
ATOM     16  O   UNL     1      -1.022  -2.165   0.069  0.00  0.00    -0.267 OA
ATOM     17  N   UNL     1      -2.449  -0.471  -0.107  0.00  0.00    -0.229 N 
ATOM     18  H   UNL     1      -2.605   0.607  -0.264  0.00  0.00    +0.173 HD
BRANCH  15  24
ATOM     19  C   UNL     1       1.788  -1.789  -0.013  0.00  0.00    +0.149 C 
ATOM     20  N   UNL     1       1.278  -0.416  -0.004  0.00  0.00    -0.345 N 
ATOM     21  C   UNL     1       2.036   0.709   0.007  0.00  0.00    +0.101 A 
ATOM     22  C   UNL     1       1.217   1.788   0.018  0.00  0.00    +0.036 A 
ATOM     23  C   UNL     1      -0.103   1.326   0.012  0.00  0.00    +0.047 A 
ATOM     24  C   UNL     1      -0.049  -0.052  -0.001  0.00  0.00    +0.107 A 
ATOM     25 BR   UNL     1       1.763   3.599   0.035  0.00  0.00    -0.049 Br
ENDBRANCH  15  24
ENDBRANCH   1  17
TORSDOF 3
