REMARK  Name = ZINC09705644
REMARK  8 active torsions:
REMARK  status: ('A' for Active; 'I' for Inactive)
REMARK    1  A    between atoms: C_1  and  C_2
REMARK    2  A    between atoms: C_2  and  C_3
REMARK    3  A    between atoms: C_2  and  C_4
REMARK    4  A    between atoms: C_2  and  N_5
REMARK    5  A    between atoms: C_6  and  C_8
REMARK    6  A    between atoms: N_10  and  C_11
REMARK    7  A    between atoms: C_19  and  C_20
REMARK    8  A    between atoms: N_22  and  C_23
REMARK                            x       y       z     vdW  Elec       q    Type
REMARK                         _______ _______ _______ _____ _____    ______ ____
ROOT
ATOM      1  C   UNL     1      -2.382   1.191   0.252  0.00  0.00    +0.093 A 
ATOM      2  C   UNL     1      -3.733   1.686  -0.036  0.00  0.00    +0.042 A 
ATOM      3  C   UNL     1      -4.251   2.921  -0.427  0.00  0.00    +0.013 A 
ATOM      4  C   UNL     1      -5.596   3.060  -0.628  0.00  0.00    +0.001 A 
ATOM      5  C   UNL     1      -6.447   1.978  -0.452  0.00  0.00    +0.004 A 
ATOM      6  C   UNL     1      -5.954   0.749  -0.071  0.00  0.00    +0.047 A 
ATOM      7  C   UNL     1      -4.589   0.585   0.139  0.00  0.00    +0.138 A 
ATOM      8  O   UNL     1      -3.835  -0.470   0.506  0.00  0.00    -0.448 OA
ATOM      9  C   UNL     1      -2.529  -0.131   0.577  0.00  0.00    +0.212 A 
ENDROOT
BRANCH   1  12
ATOM     10  C   UNL     1      -1.188   3.212   0.575  0.00  0.00    +0.303 C 
ATOM     11  O   UNL     1      -2.230   3.775   0.844  0.00  0.00    -0.265 OA
ATOM     12  N   UNL     1      -1.198   1.915   0.209  0.00  0.00    -0.274 N 
ATOM     13  H   UNL     1      -0.378   1.487  -0.083  0.00  0.00    +0.155 HD
BRANCH  10  15
ATOM     14  N   UNL     1       0.114   5.252   1.024  0.00  0.00    -0.303 N 
ATOM     15  C   UNL     1       0.104   3.956   0.653  0.00  0.00    +0.300 C 
ATOM     16  O   UNL     1       1.145   3.394   0.384  0.00  0.00    -0.265 OA
ATOM     17  H   UNL     1      -0.718   5.701   1.239  0.00  0.00    +0.150 HD
BRANCH  14  19
ATOM     18  C   UNL     1       2.054   5.985  -0.273  0.00  0.00    +0.031 C 
ATOM     19  C   UNL     1       1.382   5.981   1.101  0.00  0.00    +0.027 C 
ATOM     20  C   UNL     1       1.116   7.422   1.542  0.00  0.00    +0.031 C 
ATOM     21  C   UNL     1       2.302   5.300   2.116  0.00  0.00    +0.031 C 
ENDBRANCH  14  19
ENDBRANCH  10  15
ENDBRANCH   1  12
BRANCH   9  22
ATOM     22  C   UNL     1      -1.441  -1.035   0.946  0.00  0.00    +0.285 C 
ATOM     23  O   UNL     1      -0.309  -0.606   1.071  0.00  0.00    -0.266 OA
ATOM     24  N   UNL     1      -1.692  -2.344   1.147  0.00  0.00    -0.279 N 
ATOM     25  H   UNL     1      -2.604  -2.674   1.114  0.00  0.00    +0.155 HD
BRANCH  24  26
ATOM     26  C   UNL     1      -0.638  -3.226   1.402  0.00  0.00    +0.036 A 
ATOM     27  C   UNL     1      -0.857  -4.372   2.157  0.00  0.00    +0.023 A 
ATOM     28  C   UNL     1       0.185  -5.243   2.408  0.00  0.00    +0.005 A 
ATOM     29  C   UNL     1       1.447  -4.977   1.908  0.00  0.00    +0.038 A 
ATOM     30  C   UNL     1       1.669  -3.836   1.155  0.00  0.00    +0.125 A 
ATOM     31  C   UNL     1       0.628  -2.962   0.897  0.00  0.00    +0.061 A 
ATOM     32  F   UNL     1       2.903  -3.579   0.668  0.00  0.00    -0.205 F 
ENDBRANCH  24  26
ENDBRANCH   9  22
TORSDOF 5
