REMARK  Name = ZINC18158711
REMARK  12 active torsions:
REMARK  status: ('A' for Active; 'I' for Inactive)
REMARK    1  A    between atoms: C_1  and  C_2
REMARK    2  A    between atoms: C_6  and  C_8
REMARK    3  A    between atoms: C_8  and  O_9
REMARK    4  A    between atoms: O_9  and  C_10
REMARK    5  A    between atoms: C_13  and  C_16
REMARK    6  A    between atoms: C_16  and  C_17
REMARK    7  A    between atoms: C_18  and  C_31
REMARK    8  A    between atoms: N_20  and  C_25
REMARK    9  A    between atoms: C_25  and  C_26
REMARK   10  A    between atoms: C_34  and  N_37
REMARK   11  A    between atoms: N_37  and  C_38
REMARK   12  A    between atoms: N_37  and  C_39
REMARK                            x       y       z     vdW  Elec       q    Type
REMARK                         _______ _______ _______ _____ _____    ______ ____
ROOT
ATOM      1  C   UNL     1      -0.278  12.218  -0.926  0.00  0.00    +0.076 C 
ATOM      2  C   UNL     1      -0.413  13.723  -0.940  0.00  0.00    +0.145 C 
ATOM      3  N   UNL     1      -0.494  14.151   0.460  0.00  0.00    -0.276 N 
ATOM      4  C   UNL     1      -0.412  13.069   1.252  0.00  0.00    +0.288 C 
ATOM      5  O   UNL     1      -0.443  13.091   2.465  0.00  0.00    -0.266 OA
ATOM      6  C   UNL     1      -0.275  11.839   0.425  0.00  0.00    +0.249 C 
ATOM      7  O   UNL     1      -0.178  10.701   0.847  0.00  0.00    -0.282 OA
ENDROOT
BRANCH   2   8
ATOM      8  C   UNL     1       0.790  14.343  -1.603  0.00  0.00    -0.022 A 
ATOM      9  C   UNL     1       1.974  14.474  -0.901  0.00  0.00    +0.007 A 
ATOM     10  C   UNL     1       3.080  15.036  -1.507  0.00  0.00    +0.023 A 
ATOM     11  C   UNL     1       2.999  15.481  -2.821  0.00  0.00    +0.029 A 
ATOM     12  C   UNL     1       1.806  15.353  -3.522  0.00  0.00    +0.023 A 
ATOM     13  C   UNL     1       0.706  14.785  -2.911  0.00  0.00    +0.007 A 
BRANCH  11  14
ATOM     14  N   UNL     1       4.114  16.056  -3.435  0.00  0.00    -0.336 N 
ATOM     15  C   UNL     1       4.026  16.525  -4.821  0.00  0.00    +0.129 C 
ATOM     16  C   UNL     1       5.370  16.190  -2.695  0.00  0.00    +0.129 C 
ENDBRANCH  11  14
ENDBRANCH   2   8
BRANCH   1  17
ATOM     17  C   UNL     1      -0.172  11.384  -2.022  0.00  0.00    +0.195 C 
ATOM     18  O   UNL     1      -0.179  11.903  -3.268  0.00  0.00    -0.287 OA
BRANCH  17  22
ATOM     19  C   UNL     1       0.175   7.191  -1.472  0.00  0.00    +0.121 A 
ATOM     20  C   UNL     1       1.136   7.876  -2.208  0.00  0.00    +0.046 A 
ATOM     21  C   UNL     1       1.026   9.235  -2.393  0.00  0.00    +0.015 A 
ATOM     22  C   UNL     1      -0.052   9.930  -1.831  0.00  0.00    +0.022 A 
ATOM     23  C   UNL     1      -1.014   9.237  -1.087  0.00  0.00    +0.015 A 
ATOM     24  C   UNL     1      -0.897   7.878  -0.911  0.00  0.00    +0.046 A 
BRANCH  19  25
ATOM     25  O   UNL     1       0.285   5.851  -1.296  0.00  0.00    -0.487 OA
BRANCH  25  26
ATOM     26  C   UNL     1       1.410   5.208  -1.899  0.00  0.00    +0.264 C 
BRANCH  26  32
ATOM     27  C   UNL     1       2.607   1.348   1.052  0.00  0.00    +0.044 C 
ATOM     28  C   UNL     1       1.939   1.885  -0.187  0.00  0.00    -0.050 A 
ATOM     29  C   UNL     1       1.285   1.024  -1.048  0.00  0.00    +0.003 A 
ATOM     30  C   UNL     1       0.667   1.517  -2.182  0.00  0.00    +0.001 A 
ATOM     31  C   UNL     1       0.708   2.872  -2.457  0.00  0.00    +0.007 A 
ATOM     32  C   UNL     1       1.366   3.732  -1.599  0.00  0.00    -0.010 A 
ATOM     33  C   UNL     1       1.984   3.238  -0.465  0.00  0.00    +0.010 A 
ENDBRANCH  26  32
ENDBRANCH  25  26
ENDBRANCH  19  25
ENDBRANCH  17  22
ENDBRANCH   1  17
BRANCH   3  34
ATOM     34  C   UNL     1      -0.637  15.534   0.920  0.00  0.00    +0.183 C 
BRANCH  34  35
ATOM     35  C   UNL     1       0.728  16.142   1.113  0.00  0.00    +0.122 A 
ATOM     36  C   UNL     1       1.434  16.804   0.178  0.00  0.00    +0.046 A 
ATOM     37  C   UNL     1       2.648  17.199   0.784  0.00  0.00    +0.041 A 
ATOM     38  C   UNL     1       2.612  16.755   2.054  0.00  0.00    +0.195 A 
ATOM     39  O   UNL     1       1.445  16.121   2.248  0.00  0.00    -0.466 OA
ENDBRANCH  34  35
ENDBRANCH   3  34
TORSDOF 9
