REMARK  Name = ZINC61487644
REMARK  6 active torsions:
REMARK  status: ('A' for Active; 'I' for Inactive)
REMARK    1  A    between atoms: C_1  and  C_2
REMARK    2  A    between atoms: C_2  and  C_3
REMARK    3  A    between atoms: C_3  and  C_5
REMARK    4  A    between atoms: N_7  and  C_8
REMARK    5  A    between atoms: C_11  and  C_17
REMARK    6  A    between atoms: C_12  and  N_14
REMARK                            x       y       z     vdW  Elec       q    Type
REMARK                         _______ _______ _______ _____ _____    ______ ____
ROOT
ATOM      1  C   UNL     1      -0.065  -3.999  -2.288  0.00  0.00    +0.036 A 
ATOM      2  C   UNL     1       0.365  -4.818  -1.253  0.00  0.00    +0.024 A 
ATOM      3  C   UNL     1       0.436  -6.185  -1.439  0.00  0.00    +0.007 A 
ATOM      4  C   UNL     1       0.080  -6.738  -2.655  0.00  0.00    -0.020 A 
ATOM      5  C   UNL     1      -0.349  -5.925  -3.689  0.00  0.00    +0.131 A 
ATOM      6  C   UNL     1      -0.428  -4.558  -3.507  0.00  0.00    +0.056 A 
ATOM      7  C   UNL     1       0.159  -8.229  -2.855  0.00  0.00    +0.046 C 
ENDROOT
BRANCH   1  10
ATOM      8  C   UNL     1      -1.116  -1.905  -2.701  0.00  0.00    +0.231 C 
ATOM      9  O   UNL     1      -1.881  -2.453  -3.466  0.00  0.00    -0.274 OA
ATOM     10  N   UNL     1      -0.139  -2.614  -2.103  0.00  0.00    -0.285 N 
ATOM     11  H   UNL     1       0.514  -2.165  -1.544  0.00  0.00    +0.155 HD
BRANCH   8  12
ATOM     12  C   UNL     1      -1.258  -0.431  -2.419  0.00  0.00    +0.142 C 
ATOM     13 BR   UNL     1      -2.796  -0.137  -1.231  0.00  0.00    -0.078 Br
BRANCH  12  15
ATOM     14  C   UNL     1      -1.498   1.826  -3.463  0.00  0.00    +0.005 C 
ATOM     15  C   UNL     1      -1.478   0.320  -3.734  0.00  0.00    +0.021 C 
ENDBRANCH  12  15
ENDBRANCH   8  12
ENDBRANCH   1  10
BRANCH   5  16
ATOM     16  N   UNL     1      -0.729  -6.521  -4.989  0.00  0.00    +0.057 N 
ATOM     17  O   UNL     1      -0.462  -5.946  -6.019  0.00  0.00    -0.126 OA
ATOM     18  O   UNL     1      -1.305  -7.583  -5.022  0.00  0.00    -0.126 OA
ENDBRANCH   5  16
TORSDOF 4
