REMARK  Name = ZINC36937186
REMARK  4 active torsions:
REMARK  status: ('A' for Active; 'I' for Inactive)
REMARK    1  A    between atoms: C_1  and  C_2
REMARK    2  A    between atoms: C_5  and  C_7
REMARK    3  A    between atoms: C_8  and  C_13
REMARK    4  A    between atoms: C_9  and  N_12
REMARK                            x       y       z     vdW  Elec       q    Type
REMARK                         _______ _______ _______ _____ _____    ______ ____
ROOT
ATOM      1  C   UNL     1       1.666  -3.225  -0.025  0.00  0.00    +0.153 A 
ATOM      2  C   UNL     1       2.915  -3.285  -0.682  0.00  0.00    +0.041 A 
ATOM      3  C   UNL     1       3.450  -4.510  -0.452  0.00  0.00    +0.219 A 
ATOM      4  O   UNL     1       2.590  -5.204   0.314  0.00  0.00    -0.339 OA
ATOM      5  N   UNL     1       1.471  -4.377   0.579  0.00  0.00    -0.073 NA
ATOM      6  C   UNL     1       3.543  -2.183  -1.496  0.00  0.00    +0.051 C 
ENDROOT
BRANCH   1  11
ATOM      7  C   UNL     1      -0.018   1.503   0.010  0.00  0.00    +0.086 C 
ATOM      8  C   UNL     1       0.002  -0.004   0.002  0.00  0.00    +0.103 A 
ATOM      9  C   UNL     1      -1.082  -0.805   0.003  0.00  0.00    +0.045 A 
ATOM     10  C   UNL     1      -0.614  -2.133  -0.008  0.00  0.00    +0.052 A 
ATOM     11  C   UNL     1       0.744  -2.070  -0.014  0.00  0.00    +0.157 A 
ATOM     12  O   UNL     1       1.103  -0.772  -0.013  0.00  0.00    -0.458 OA
ENDBRANCH   1  11
BRANCH   3  13
ATOM     13  N   UNL     1       4.668  -4.966  -0.923  0.00  0.00    -0.327 N 
ATOM     14  H   UNL     1       5.222  -4.390  -1.472  0.00  0.00    +0.145 HD
ATOM     15  H   UNL     1       4.967  -5.863  -0.705  0.00  0.00    +0.145 HD
ENDBRANCH   3  13
TORSDOF 2
