REMARK  Name = ZINC67242381
REMARK  6 active torsions:
REMARK  status: ('A' for Active; 'I' for Inactive)
REMARK    1  A    between atoms: C_1  and  C_2
REMARK    2  A    between atoms: C_2  and  N_3
REMARK    3  A    between atoms: C_4  and  C_6
REMARK    4  A    between atoms: C_6  and  N_7
REMARK    5  A    between atoms: C_13  and  C_15
REMARK    6  A    between atoms: C_16  and  C_25
REMARK                            x       y       z     vdW  Elec       q    Type
REMARK                         _______ _______ _______ _____ _____    ______ ____
ROOT
ATOM      1  N   UNL     1      -2.994  -3.826   0.010  0.00  0.00    -0.261 N 
ATOM      2  C   UNL     1      -3.606  -4.632   0.903  0.00  0.00    +0.111 A 
ATOM      3  C   UNL     1      -3.349  -5.912   0.551  0.00  0.00    +0.065 A 
ATOM      4  C   UNL     1      -2.549  -5.889  -0.603  0.00  0.00    +0.147 A 
ATOM      5  N   UNL     1      -2.342  -4.635  -0.929  0.00  0.00    -0.156 NA
ATOM      6  N   UNL     1      -2.062  -7.009  -1.289  0.00  0.00    -0.262 N 
ATOM      7  C   UNL     1      -2.354  -8.249  -0.849  0.00  0.00    +0.285 C 
ATOM      8  O   UNL     1      -3.042  -8.395   0.145  0.00  0.00    -0.266 OA
ATOM      9  H   UNL     1      -1.514  -6.892  -2.081  0.00  0.00    +0.157 HD
ENDROOT
BRANCH   7  10
ATOM     10  C   UNL     1      -1.843  -9.423  -1.568  0.00  0.00    +0.194 A 
ATOM     11  C   UNL     1      -2.077 -10.716  -1.221  0.00  0.00    +0.008 A 
ATOM     12  C   UNL     1      -1.379 -11.534  -2.212  0.00  0.00    +0.025 A 
ATOM     13  C   UNL     1      -1.231 -12.909  -2.409  0.00  0.00    +0.012 A 
ATOM     14  C   UNL     1      -0.492 -13.367  -3.463  0.00  0.00    +0.002 A 
ATOM     15  C   UNL     1       0.114 -12.475  -4.338  0.00  0.00    +0.024 A 
ATOM     16  C   UNL     1      -0.019 -11.114  -4.161  0.00  0.00    +0.084 A 
ATOM     17  C   UNL     1      -0.768 -10.625  -3.095  0.00  0.00    +0.154 A 
ATOM     18  O   UNL     1      -1.075  -9.381  -2.677  0.00  0.00    -0.448 OA
ATOM     19 CL   UNL     1       0.746 -10.014  -5.264  0.00  0.00    -0.080 Cl
ATOM     20  C   UNL     1      -2.890 -11.207  -0.051  0.00  0.00    +0.048 C 
ENDBRANCH   7  10
BRANCH   1  21
ATOM     21  C   UNL     1      -3.014  -2.361   0.018  0.00  0.00    +0.239 C 
BRANCH  21  23
ATOM     22  N   UNL     1      -1.372  -0.511   0.012  0.00  0.00    -0.314 N 
ATOM     23  C   UNL     1      -1.601  -1.839   0.007  0.00  0.00    +0.234 C 
ATOM     24  O   UNL     1      -0.668  -2.615  -0.006  0.00  0.00    -0.274 OA
ATOM     25  H   UNL     1      -2.118   0.109   0.023  0.00  0.00    +0.149 HD
BRANCH  22  27
ATOM     26  C   UNL     1      -0.019   1.526   0.010  0.00  0.00    +0.024 C 
ATOM     27  C   UNL     1       0.002  -0.004   0.002  0.00  0.00    +0.101 C 
ENDBRANCH  22  27
ENDBRANCH  21  23
ENDBRANCH   1  21
TORSDOF 4
