REMARK  Name = ZINC44681225
REMARK  13 active torsions:
REMARK  status: ('A' for Active; 'I' for Inactive)
REMARK    1  A    between atoms: C_1  and  C_2
REMARK    2  A    between atoms: C_5  and  O_38
REMARK    3  A    between atoms: C_6  and  C_37
REMARK    4  A    between atoms: C_7  and  O_29
REMARK    5  A    between atoms: C_12  and  C_16
REMARK    6  A    between atoms: C_18  and  O_26
REMARK    7  A    between atoms: C_19  and  O_24
REMARK    8  A    between atoms: C_20  and  O_22
REMARK    9  A    between atoms: O_22  and  C_23
REMARK   10  A    between atoms: O_24  and  C_25
REMARK   11  A    between atoms: O_26  and  C_27
REMARK   12  A    between atoms: C_34  and  C_35
REMARK   13  A    between atoms: C_34  and  C_36
REMARK                            x       y       z     vdW  Elec       q    Type
REMARK                         _______ _______ _______ _____ _____    ______ ____
ROOT
ATOM      1  C   UNL     1       0.117   1.527   0.008  0.00  0.00    +0.059 C 
ATOM      2  C   UNL     1       0.113  -0.001  -0.001  0.00  0.00    +0.138 C 
ATOM      3  C   UNL     1      -1.320  -0.521  -0.073  0.00  0.00    +0.053 C 
ATOM      4  C   UNL     1      -2.029  -0.343   1.272  0.00  0.00    +0.040 C 
ATOM      5  C   UNL     1      -1.271  -1.143   2.331  0.00  0.00    +0.090 C 
ATOM      6  C   UNL     1       0.137  -0.564   2.496  0.00  0.00    +0.092 C 
ATOM      7  C   UNL     1       0.879  -0.616   1.168  0.00  0.00    +0.124 C 
ATOM      8  C   UNL     1       2.250   0.065   1.261  0.00  0.00    +0.086 C 
ATOM      9  C   UNL     1       2.885   0.047  -0.109  0.00  0.00    +0.081 A 
ATOM     10  C   UNL     1       2.134  -0.195  -1.243  0.00  0.00    +0.135 A 
ATOM     11  C   UNL     1       2.789  -0.191  -2.492  0.00  0.00    +0.093 A 
ATOM     12  C   UNL     1       4.128   0.044  -2.548  0.00  0.00    +0.143 A 
ATOM     13  O   UNL     1       4.850   0.275  -1.440  0.00  0.00    -0.422 OA
ATOM     14  C   UNL     1       4.258   0.282  -0.236  0.00  0.00    +0.344 A 
ATOM     15  O   UNL     1       4.928   0.499   0.760  0.00  0.00    -0.245 OA
ATOM     16  O   UNL     1       0.804  -0.432  -1.197  0.00  0.00    -0.482 OA
ATOM     17  C   UNL     1       0.857  -1.460   3.497  0.00  0.00    +0.167 C 
ATOM     18  O   UNL     1       1.968  -1.888   3.292  0.00  0.00    -0.292 OA
ATOM     19  C   UNL     1       0.131  -1.777   4.731  0.00  0.00    +0.043 C 
ATOM     20  C   UNL     1      -1.184  -1.643   4.794  0.00  0.00    -0.014 C 
ATOM     21  C   UNL     1      -2.046  -1.238   3.634  0.00  0.00    +0.013 C 
ATOM     22  C   UNL     1      -3.105  -2.353   3.465  0.00  0.00    +0.018 C 
ATOM     23  C   UNL     1      -2.796   0.047   3.969  0.00  0.00    +0.018 C 
ATOM     24  C   UNL     1       0.112   0.851   3.078  0.00  0.00    +0.025 C 
ENDROOT
BRANCH  12  25
ATOM     25  C   UNL     1       4.803   0.046  -3.860  0.00  0.00    +0.025 A 
ATOM     26  C   UNL     1       4.069  -0.186  -5.026  0.00  0.00    +0.061 A 
ATOM     27  C   UNL     1       4.704  -0.183  -6.254  0.00  0.00    +0.166 A 
ATOM     28  C   UNL     1       6.074   0.051  -6.329  0.00  0.00    +0.204 A 
ATOM     29  C   UNL     1       6.809   0.282  -5.170  0.00  0.00    +0.166 A 
ATOM     30  C   UNL     1       6.177   0.286  -3.939  0.00  0.00    +0.061 A 
BRANCH  29  31
ATOM     31  O   UNL     1       8.147   0.509  -5.247  0.00  0.00    -0.491 OA
ATOM     32  C   UNL     1       8.838   0.739  -4.018  0.00  0.00    +0.277 C 
ENDBRANCH  29  31
BRANCH  28  33
ATOM     33  O   UNL     1       6.697   0.053  -7.538  0.00  0.00    -0.488 OA
ATOM     34  C   UNL     1       6.774   1.303  -8.226  0.00  0.00    +0.277 C 
ENDBRANCH  28  33
BRANCH  27  35
ATOM     35  O   UNL     1       3.990  -0.409  -7.389  0.00  0.00    -0.491 OA
ATOM     36  C   UNL     1       2.588  -0.643  -7.238  0.00  0.00    +0.277 C 
ENDBRANCH  27  35
ENDBRANCH  12  25
BRANCH   7  37
ATOM     37  O   UNL     1       1.127  -2.005   0.840  0.00  0.00    -0.383 OA
ATOM     38  H   UNL     1       1.647  -2.132   0.035  0.00  0.00    +0.210 HD
ENDBRANCH   7  37
BRANCH   5  39
ATOM     39  O   UNL     1      -1.140  -2.496   1.831  0.00  0.00    -0.387 OA
ATOM     40  H   UNL     1      -1.984  -2.936   1.660  0.00  0.00    +0.210 HD
ENDBRANCH   5  39
TORSDOF 6
