REMARK  Name = ZINC12864198
REMARK  5 active torsions:
REMARK  status: ('A' for Active; 'I' for Inactive)
REMARK    1  A    between atoms: C_1  and  O_2
REMARK    2  A    between atoms: O_2  and  C_3
REMARK    3  A    between atoms: C_8  and  O_9
REMARK    4  A    between atoms: O_9  and  C_10
REMARK    5  A    between atoms: N_15  and  N_16
REMARK                            x       y       z     vdW  Elec       q    Type
REMARK                         _______ _______ _______ _____ _____    ______ ____
ROOT
ATOM      1  C   UNL     1      -1.229   2.039   0.019  0.00  0.00    +0.162 A 
ATOM      2  C   UNL     1      -1.233   3.422   0.029  0.00  0.00    +0.053 A 
ATOM      3  C   UNL     1      -0.039   4.132   0.016  0.00  0.00    -0.037 A 
ATOM      4  C   UNL     1       1.160   3.457   0.009  0.00  0.00    -0.020 A 
ATOM      5  C   UNL     1       1.169   2.067   0.002  0.00  0.00    +0.055 A 
ATOM      6  C   UNL     1      -0.016   1.356   0.009  0.00  0.00    +0.162 A 
ATOM      7  C   UNL     1       2.488   4.165   0.015  0.00  0.00    +0.110 C 
ATOM      8  C   UNL     1       3.359   3.584  -1.090  0.00  0.00    +0.085 C 
ATOM      9  C   UNL     1       4.562   4.447  -1.343  0.00  0.00    +0.073 C 
ATOM     10  N   UNL     1       5.692   3.916  -1.699  0.00  0.00    -0.183 NA
ATOM     11  C   UNL     1       4.440   5.909  -1.178  0.00  0.00    +0.057 C 
ATOM     12  C   UNL     1       3.339   6.418  -0.531  0.00  0.00    +0.019 C 
ATOM     13  N   UNL     1       2.360   5.603  -0.035  0.00  0.00    -0.325 N 
ATOM     14  C   UNL     1       1.167   6.275   0.491  0.00  0.00    +0.110 C 
ATOM     15  C   UNL     1      -0.111   5.631   0.000  0.00  0.00    +0.054 C 
ATOM     16  C   UNL     1       3.181   7.910  -0.356  0.00  0.00    +0.052 C 
ATOM     17  C   UNL     1       4.561   8.562  -0.252  0.00  0.00    +0.014 C 
ATOM     18  C   UNL     1       5.357   8.248  -1.523  0.00  0.00    +0.080 C 
ATOM     19  C   UNL     1       5.452   6.753  -1.687  0.00  0.00    +0.166 C 
ATOM     20  O   UNL     1       6.408   6.270  -2.260  0.00  0.00    -0.292 OA
ENDROOT
BRANCH  10  21
ATOM     21  N   UNL     1       5.795   2.527  -1.851  0.00  0.00    -0.191 N 
ATOM     22  C   UNL     1       6.968   1.975  -2.220  0.00  0.00    +0.317 C 
ATOM     23  O   UNL     1       7.058   0.769  -2.352  0.00  0.00    -0.251 OA
ATOM     24  N   UNL     1       8.041   2.760  -2.444  0.00  0.00    -0.312 N 
ATOM     25  H   UNL     1       5.023   1.962  -1.690  0.00  0.00    +0.179 HD
ATOM     26  H   UNL     1       7.970   3.721  -2.339  0.00  0.00    +0.147 HD
ATOM     27  H   UNL     1       8.885   2.362  -2.710  0.00  0.00    +0.147 HD
ENDBRANCH  10  21
BRANCH   1  29
ATOM     28  C   UNL     1      -3.605   2.121   0.034  0.00  0.00    +0.277 C 
ATOM     29  O   UNL     1      -2.402   1.351   0.024  0.00  0.00    -0.491 OA
ENDBRANCH   1  29
BRANCH   6  30
ATOM     30  O   UNL     1       0.002  -0.004   0.002  0.00  0.00    -0.491 OA
ATOM     31  C   UNL     1       1.284  -0.635  -0.014  0.00  0.00    +0.277 C 
ENDBRANCH   6  30
TORSDOF 3
