REMARK  Name = ZINC55463827
REMARK  9 active torsions:
REMARK  status: ('A' for Active; 'I' for Inactive)
REMARK    1  A    between atoms: C_1  and  C_2
REMARK    2  A    between atoms: C_2  and  C_3
REMARK    3  A    between atoms: C_3  and  C_4
REMARK    4  A    between atoms: C_4  and  N_5
REMARK    5  A    between atoms: N_5  and  C_6
REMARK    6  A    between atoms: C_9  and  C_11
REMARK    7  A    between atoms: C_14  and  N_20
REMARK    8  A    between atoms: C_15  and  N_17
REMARK    9  A    between atoms: N_20  and  C_21
REMARK                            x       y       z     vdW  Elec       q    Type
REMARK                         _______ _______ _______ _____ _____    ______ ____
ROOT
ATOM      1  C   UNL     1      -2.574  -2.567   2.402  0.00  0.00    +0.039 A 
ATOM      2  C   UNL     1      -1.259  -2.096   2.480  0.00  0.00    +0.015 A 
ATOM      3  C   UNL     1      -0.649  -1.965   3.706  0.00  0.00    +0.026 A 
ATOM      4  C   UNL     1      -1.338  -2.302   4.868  0.00  0.00    +0.058 A 
ATOM      5  C   UNL     1      -2.646  -2.771   4.794  0.00  0.00    +0.148 A 
ATOM      6  C   UNL     1      -3.265  -2.898   3.571  0.00  0.00    +0.047 A 
ENDROOT
BRANCH   1   8
ATOM      7  N   UNL     1      -2.492  -2.933  -0.015  0.00  0.00    -0.294 N 
ATOM      8  C   UNL     1      -3.232  -2.707   1.089  0.00  0.00    +0.247 C 
ATOM      9  O   UNL     1      -4.441  -2.620   1.003  0.00  0.00    -0.270 OA
BRANCH   7  10
ATOM     10  C   UNL     1      -3.132  -2.960  -1.332  0.00  0.00    +0.076 C 
ATOM     11  C   UNL     1      -4.533  -2.357  -1.450  0.00  0.00    +0.024 C 
ATOM     12  C   UNL     1      -4.346  -3.874  -1.509  0.00  0.00    +0.024 C 
ENDBRANCH   7  10
BRANCH   7  13
ATOM     13  C   UNL     1      -1.048  -3.151   0.103  0.00  0.00    +0.108 C 
BRANCH  13  14
ATOM     14  C   UNL     1      -0.302  -1.948  -0.478  0.00  0.00    +0.019 C 
BRANCH  14  16
ATOM     15  C   UNL     1       1.953  -0.973  -0.936  0.00  0.00    +0.004 C 
ATOM     16  C   UNL     1       1.206  -2.176  -0.355  0.00  0.00    -0.002 C 
ENDBRANCH  14  16
ENDBRANCH  13  14
ENDBRANCH   7  13
ENDBRANCH   1   8
BRANCH   5  17
ATOM     17  N   UNL     1      -3.374  -3.129   6.032  0.00  0.00    +0.058 N 
ATOM     18  O   UNL     1      -4.126  -4.076   6.038  0.00  0.00    -0.126 OA
ATOM     19  O   UNL     1      -3.218  -2.474   7.036  0.00  0.00    -0.126 OA
ENDBRANCH   5  17
BRANCH   4  20
ATOM     20  N   UNL     1      -0.717  -2.169   6.106  0.00  0.00    -0.345 N 
ATOM     21  C   UNL     1       0.610  -1.557   6.197  0.00  0.00    +0.125 C 
ATOM     22  H   UNL     1      -1.164  -2.482   6.908  0.00  0.00    +0.146 HD
ENDBRANCH   4  20
TORSDOF 7
