REMARK  Name = ZINC09798808
REMARK  6 active torsions:
REMARK  status: ('A' for Active; 'I' for Inactive)
REMARK    1  A    between atoms: C_1  and  N_2
REMARK    2  A    between atoms: N_2  and  C_3
REMARK    3  A    between atoms: N_2  and  S_10
REMARK    4  A    between atoms: S_10  and  C_13
REMARK    5  A    between atoms: C_17  and  C_19
REMARK    6  A    between atoms: N_21  and  N_22
REMARK                            x       y       z     vdW  Elec       q    Type
REMARK                         _______ _______ _______ _____ _____    ______ ____
ROOT
ATOM      1  C   UNL     1       1.659   2.472  -1.815  0.00  0.00    +0.109 A 
ATOM      2  C   UNL     1       1.259   3.662  -2.398  0.00  0.00    +0.029 A 
ATOM      3  C   UNL     1       1.455   3.877  -3.750  0.00  0.00    +0.003 A 
ATOM      4  C   UNL     1       2.050   2.905  -4.527  0.00  0.00    +0.013 A 
ATOM      5  C   UNL     1       2.455   1.702  -3.946  0.00  0.00    +0.040 A 
ATOM      6  C   UNL     1       2.260   1.494  -2.579  0.00  0.00    +0.042 A 
ENDROOT
BRANCH   5   7
ATOM      7  C   UNL     1       3.094   0.656  -4.772  0.00  0.00    +0.261 C 
ATOM      8  O   UNL     1       3.446  -0.390  -4.263  0.00  0.00    -0.269 OA
ATOM      9  N   UNL     1       3.286   0.862  -6.090  0.00  0.00    -0.220 N 
ATOM     10  H   UNL     1       3.006   1.697  -6.497  0.00  0.00    +0.174 HD
BRANCH   9  11
ATOM     11  N   UNL     1       3.892  -0.129  -6.873  0.00  0.00    -0.137 N 
ATOM     12  C   UNL     1       3.227  -0.923  -7.738  0.00  0.00    +0.263 C 
ATOM     13  O   UNL     1       2.039  -0.916  -7.977  0.00  0.00    -0.271 OA
ATOM     14  C   UNL     1       4.277  -1.825  -8.347  0.00  0.00    +0.114 C 
ATOM     15  C   UNL     1       4.353  -1.609  -9.854  0.00  0.00    +0.035 C 
ATOM     16  C   UNL     1       5.440  -2.509 -10.448  0.00  0.00    +0.003 C 
ATOM     17  C   UNL     1       5.112  -3.971 -10.141  0.00  0.00    +0.000 C 
ATOM     18  C   UNL     1       5.064  -4.178  -8.626  0.00  0.00    +0.003 C 
ATOM     19  C   UNL     1       3.975  -3.284  -8.025  0.00  0.00    +0.035 C 
ATOM     20  N   UNL     1       5.527  -1.402  -7.702  0.00  0.00    -0.284 N 
ATOM     21  C   UNL     1       5.202  -0.402  -6.861  0.00  0.00    +0.326 C 
ATOM     22  O   UNL     1       6.008   0.185  -6.166  0.00  0.00    -0.251 OA
ATOM     23  H   UNL     1       6.412  -1.769  -7.855  0.00  0.00    +0.151 HD
ENDBRANCH   9  11
ENDBRANCH   5   7
BRANCH   1  24
ATOM     24  S   UNL     1       1.405   2.209  -0.091  0.00  0.00    +0.074 S 
ATOM     25  O   UNL     1       1.482   3.485   0.530  0.00  0.00    -0.150 OA
ATOM     26  O   UNL     1       2.248   1.127   0.283  0.00  0.00    -0.150 OA
BRANCH  24  28
ATOM     27  C   UNL     1      -1.240   2.652   0.261  0.00  0.00    +0.157 C 
ATOM     28  N   UNL     1      -0.153   1.683   0.100  0.00  0.00    -0.206 N 
BRANCH  28  29
ATOM     29  C   UNL     1      -0.433   0.314   0.102  0.00  0.00    +0.052 A 
ATOM     30  C   UNL     1      -1.548  -0.168   0.776  0.00  0.00    +0.025 A 
ATOM     31  C   UNL     1      -1.823  -1.521   0.776  0.00  0.00    +0.003 A 
ATOM     32  C   UNL     1      -0.989  -2.397   0.105  0.00  0.00    +0.020 A 
ATOM     33  C   UNL     1       0.122  -1.921  -0.568  0.00  0.00    +0.043 A 
ATOM     34  C   UNL     1       0.400  -0.567  -0.575  0.00  0.00    +0.044 A 
ATOM     35 CL   UNL     1       1.166  -3.025  -1.409  0.00  0.00    -0.083 Cl
ENDBRANCH  28  29
ENDBRANCH  24  28
ENDBRANCH   1  24
TORSDOF 5
