REMARK  Name = ZINC67611801
REMARK  4 active torsions:
REMARK  status: ('A' for Active; 'I' for Inactive)
REMARK    1  A    between atoms: C_4  and  C_7
REMARK    2  A    between atoms: C_10  and  N_12
REMARK    3  A    between atoms: N_15  and  C_16
REMARK    4  A    between atoms: C_16  and  C_17
REMARK                            x       y       z     vdW  Elec       q    Type
REMARK                         _______ _______ _______ _____ _____    ______ ____
ROOT
ATOM      1  N   UNL     1       5.363  -1.736  -1.702  0.00  0.00    -0.296 N 
ATOM      2  C   UNL     1       5.608  -2.099  -2.976  0.00  0.00    +0.300 C 
ATOM      3  O   UNL     1       4.683  -2.347  -3.726  0.00  0.00    -0.253 OA
ATOM      4  N   UNL     1       6.878  -2.187  -3.420  0.00  0.00    -0.299 N 
ATOM      5  H   UNL     1       6.101  -1.538  -1.104  0.00  0.00    +0.151 HD
ATOM      6  H   UNL     1       7.615  -1.990  -2.822  0.00  0.00    +0.150 HD
ENDROOT
BRANCH   1   9
ATOM      7  C   UNL     1       3.711  -0.707  -0.038  0.00  0.00    +0.041 C 
ATOM      8  C   UNL     1       3.675  -2.224   0.162  0.00  0.00    +0.033 C 
ATOM      9  C   UNL     1       3.983  -1.640  -1.219  0.00  0.00    +0.082 C 
BRANCH   7  13
ATOM     10  C   UNL     1      -0.017   1.378   0.010  0.00  0.00    +0.000 A 
ATOM     11  C   UNL     1       1.171   2.086   0.002  0.00  0.00    +0.000 A 
ATOM     12  C   UNL     1       2.377   1.411  -0.013  0.00  0.00    +0.004 A 
ATOM     13  C   UNL     1       2.396   0.029  -0.020  0.00  0.00    -0.042 A 
ATOM     14  C   UNL     1       1.208  -0.679  -0.012  0.00  0.00    +0.004 A 
ATOM     15  C   UNL     1       0.002  -0.004   0.002  0.00  0.00    +0.000 A 
ENDBRANCH   7  13
ENDBRANCH   1   9
BRANCH   4  16
ATOM     16  C   UNL     1       7.144  -2.582  -4.806  0.00  0.00    +0.113 C 
BRANCH  16  17
ATOM     17  C   UNL     1       8.654  -2.604  -5.048  0.00  0.00    +0.048 C 
ATOM     18  C   UNL     1       8.935  -2.908  -6.522  0.00  0.00    +0.047 C 
ATOM     19  C   UNL     1      10.398  -3.222  -6.706  0.00  0.00    -0.005 A 
ATOM     20  C   UNL     1      10.939  -3.156  -7.979  0.00  0.00    +0.007 A 
ATOM     21  C   UNL     1      12.275  -3.441  -8.184  0.00  0.00    +0.000 A 
ATOM     22  C   UNL     1      13.078  -3.795  -7.116  0.00  0.00    +0.004 A 
ATOM     23  C   UNL     1      12.546  -3.859  -5.845  0.00  0.00    +0.046 A 
ATOM     24  C   UNL     1      11.201  -3.571  -5.634  0.00  0.00    +0.124 A 
ATOM     25  O   UNL     1      10.715  -3.636  -4.367  0.00  0.00    -0.491 OA
ATOM     26  C   UNL     1       9.298  -3.706  -4.197  0.00  0.00    +0.234 C 
ENDBRANCH  16  17
ENDBRANCH   4  16
TORSDOF 4
