REMARK  Name = ZINC66107526
REMARK  9 active torsions:
REMARK  status: ('A' for Active; 'I' for Inactive)
REMARK    1  A    between atoms: C_3  and  N_15
REMARK    2  A    between atoms: C_5  and  N_7
REMARK    3  A    between atoms: C_8  and  C_10
REMARK    4  A    between atoms: N_15  and  C_16
REMARK    5  A    between atoms: C_16  and  C_17
REMARK    6  A    between atoms: N_19  and  C_20
REMARK    7  A    between atoms: C_23  and  C_26
REMARK    8  A    between atoms: N_28  and  C_29
REMARK    9  A    between atoms: C_29  and  C_30
REMARK                            x       y       z     vdW  Elec       q    Type
REMARK                         _______ _______ _______ _____ _____    ______ ____
ROOT
ATOM      1  C   UNL     1       2.900   5.901  -0.934  0.00  0.00    +0.234 C 
ATOM      2  O   UNL     1       4.090   5.668  -0.953  0.00  0.00    -0.274 OA
ATOM      3  N   UNL     1       2.454   7.150  -1.173  0.00  0.00    -0.284 N 
ATOM      4  H   UNL     1       1.510   7.353  -1.085  0.00  0.00    +0.155 HD
ENDROOT
BRANCH   3   5
ATOM      5  C   UNL     1       3.351   8.150  -1.547  0.00  0.00    +0.033 A 
ATOM      6  C   UNL     1       4.461   7.833  -2.323  0.00  0.00    +0.024 A 
ATOM      7  C   UNL     1       5.348   8.819  -2.694  0.00  0.00    +0.015 A 
ATOM      8  C   UNL     1       5.132  10.139  -2.290  0.00  0.00    +0.037 A 
ATOM      9  C   UNL     1       4.015  10.454  -1.511  0.00  0.00    +0.015 A 
ATOM     10  C   UNL     1       3.130   9.465  -1.148  0.00  0.00    +0.024 A 
BRANCH   8  11
ATOM     11  C   UNL     1       6.080  11.198  -2.685  0.00  0.00    +0.244 C 
ATOM     12  O   UNL     1       7.052  10.922  -3.363  0.00  0.00    -0.270 OA
ATOM     13  N   UNL     1       5.871  12.471  -2.295  0.00  0.00    -0.304 N 
ATOM     14  H   UNL     1       5.096  12.691  -1.754  0.00  0.00    +0.149 HD
BRANCH  13  15
ATOM     15  C   UNL     1       6.812  13.522  -2.687  0.00  0.00    +0.179 C 
BRANCH  15  16
ATOM     16  C   UNL     1       6.353  14.844  -2.127  0.00  0.00    +0.122 A 
ATOM     17  C   UNL     1       6.697  15.354  -0.931  0.00  0.00    +0.046 A 
ATOM     18  C   UNL     1       6.043  16.602  -0.814  0.00  0.00    +0.041 A 
ATOM     19  C   UNL     1       5.338  16.779  -1.946  0.00  0.00    +0.195 A 
ATOM     20  O   UNL     1       5.534  15.714  -2.740  0.00  0.00    -0.466 OA
ENDBRANCH  15  16
ENDBRANCH  13  15
ENDBRANCH   8  11
ENDBRANCH   3   5
BRANCH   1  21
ATOM     21  C   UNL     1       1.920   4.793  -0.644  0.00  0.00    +0.198 C 
BRANCH  21  22
ATOM     22  N   UNL     1       2.649   3.542  -0.420  0.00  0.00    -0.335 N 
ATOM     23  H   UNL     1       3.617   3.529  -0.473  0.00  0.00    +0.147 HD
BRANCH  22  26
ATOM     24  C   UNL     1      -0.131   1.225   0.228  0.00  0.00    +0.004 A 
ATOM     25  C   UNL     1       0.562   2.386  -0.056  0.00  0.00    +0.023 A 
ATOM     26  C   UNL     1       1.949   2.368  -0.132  0.00  0.00    +0.029 A 
ATOM     27  C   UNL     1       2.639   1.183   0.080  0.00  0.00    +0.046 A 
ATOM     28  C   UNL     1       1.940   0.019   0.365  0.00  0.00    +0.036 A 
ATOM     29  C   UNL     1       0.552   0.043   0.439  0.00  0.00    +0.023 A 
BRANCH  28  30
ATOM     30  N   UNL     1       2.631  -1.178   0.579  0.00  0.00    -0.279 N 
ATOM     31  C   UNL     1       3.848  -1.160   1.157  0.00  0.00    +0.284 C 
ATOM     32  O   UNL     1       4.306  -0.114   1.578  0.00  0.00    -0.266 OA
ATOM     33  H   UNL     1       2.234  -2.022   0.310  0.00  0.00    +0.155 HD
BRANCH  31  34
ATOM     34  C   UNL     1       4.620  -2.400   1.279  0.00  0.00    +0.189 A 
ATOM     35  C   UNL     1       5.857  -2.523   1.845  0.00  0.00    +0.054 A 
ATOM     36  C   UNL     1       6.214  -3.877   1.745  0.00  0.00    +0.042 A 
ATOM     37  C   UNL     1       5.192  -4.513   1.130  0.00  0.00    +0.196 A 
ATOM     38  O   UNL     1       4.232  -3.621   0.856  0.00  0.00    -0.458 OA
ENDBRANCH  31  34
ENDBRANCH  28  30
ENDBRANCH  22  26
ENDBRANCH  21  22
ENDBRANCH   1  21
TORSDOF 9
