REMARK  Name = ZINC48364828
REMARK  4 active torsions:
REMARK  status: ('A' for Active; 'I' for Inactive)
REMARK    1  A    between atoms: C_1  and  C_2
REMARK    2  A    between atoms: C_3  and  C_8
REMARK    3  A    between atoms: C_8  and  N_9
REMARK    4  A    between atoms: C_20  and  C_24
REMARK                            x       y       z     vdW  Elec       q    Type
REMARK                         _______ _______ _______ _____ _____    ______ ____
ROOT
ATOM      1  N   UNL     1       1.347   0.058  -2.960  0.00  0.00    -0.324 N 
ATOM      2  C   UNL     1       1.582   0.532  -4.238  0.00  0.00    +0.131 A 
ATOM      3  C   UNL     1       2.869   1.018  -4.601  0.00  0.00    +0.051 A 
ATOM      4  C   UNL     1       4.080   1.105  -3.783  0.00  0.00    -0.025 A 
ATOM      5  C   UNL     1       5.182   1.610  -4.374  0.00  0.00    -0.004 A 
ATOM      6  S   UNL     1       4.683   1.996  -6.031  0.00  0.00    -0.073 S 
ATOM      7  C   UNL     1       2.991   1.475  -5.928  0.00  0.00    +0.114 A 
ATOM      8  N   UNL     1       1.971   1.446  -6.764  0.00  0.00    -0.228 NA
ATOM      9  C   UNL     1       0.800   0.983  -6.370  0.00  0.00    +0.224 A 
ATOM     10  N   UNL     1       0.615   0.534  -5.141  0.00  0.00    -0.220 NA
ATOM     11  C   UNL     1       6.535   1.801  -3.759  0.00  0.00    +0.046 C 
ATOM     12  C   UNL     1       6.594   0.992  -2.456  0.00  0.00    -0.009 C 
ATOM     13  C   UNL     1       5.329   1.280  -1.642  0.00  0.00    +0.008 C 
ATOM     14  C   UNL     1       4.116   0.649  -2.327  0.00  0.00    +0.037 C 
ATOM     15  C   UNL     1       7.830   1.401  -1.652  0.00  0.00    +0.008 C 
ATOM     16  H   UNL     1       2.079  -0.022  -2.330  0.00  0.00    +0.148 HD
ENDROOT
BRANCH   1  17
ATOM     17  C   UNL     1      -0.010  -0.323  -2.559  0.00  0.00    +0.141 C 
BRANCH  17  20
ATOM     18  C   UNL     1       0.021   1.515   0.022  0.00  0.00    +0.068 C 
ATOM     19  C   UNL     1       0.018   0.008   0.010  0.00  0.00    +0.064 A 
ATOM     20  C   UNL     1       0.005  -0.802  -1.130  0.00  0.00    +0.010 A 
ATOM     21  C   UNL     1       0.007  -2.093  -0.723  0.00  0.00    +0.110 A 
ATOM     22  N   UNL     1       0.021  -2.099   0.626  0.00  0.00    -0.284 N 
ATOM     23  H   UNL     1       0.026  -2.886   1.193  0.00  0.00    +0.188 HD
ATOM     24  N   UNL     1       0.033  -0.768   1.063  0.00  0.00    -0.179 NA
ENDBRANCH  17  20
ENDBRANCH   1  17
TORSDOF 2
