REMARK  Name = ZINC36576039
REMARK  12 active torsions:
REMARK  status: ('A' for Active; 'I' for Inactive)
REMARK    1  A    between atoms: C_1  and  C_2
REMARK    2  A    between atoms: C_2  and  C_3
REMARK    3  A    between atoms: C_3  and  N_4
REMARK    4  A    between atoms: N_4  and  C_5
REMARK    5  A    between atoms: C_5  and  C_7
REMARK    6  A    between atoms: C_5  and  C_16
REMARK    7  A    between atoms: C_8  and  O_15
REMARK    8  A    between atoms: C_10  and  O_14
REMARK    9  A    between atoms: C_12  and  O_13
REMARK   10  A    between atoms: N_18  and  C_19
REMARK   11  A    between atoms: C_25  and  C_27
REMARK   12  A    between atoms: C_31  and  N_33
REMARK                            x       y       z     vdW  Elec       q    Type
REMARK                         _______ _______ _______ _____ _____    ______ ____
ROOT
ATOM      1  C   UNL     1      -0.208  -3.226  -0.774  0.00  0.00    +0.199 C 
ENDROOT
BRANCH   1   2
ATOM      2  C   UNL     1      -0.647  -2.858  -2.168  0.00  0.00    +0.065 A 
ATOM      3  C   UNL     1      -1.117  -3.839  -3.029  0.00  0.00    +0.129 A 
ATOM      4  C   UNL     1      -1.520  -3.501  -4.311  0.00  0.00    +0.091 A 
ATOM      5  C   UNL     1      -1.454  -2.182  -4.734  0.00  0.00    +0.124 A 
ATOM      6  C   UNL     1      -0.985  -1.201  -3.874  0.00  0.00    +0.091 A 
ATOM      7  C   UNL     1      -0.586  -1.538  -2.589  0.00  0.00    +0.129 A 
BRANCH   7   8
ATOM      8  O   UNL     1      -0.130  -0.576  -1.744  0.00  0.00    -0.506 OA
ATOM      9  H   UNL     1       0.824  -0.430  -1.793  0.00  0.00    +0.292 HD
ENDBRANCH   7   8
BRANCH   5  10
ATOM     10  O   UNL     1      -1.848  -1.851  -5.992  0.00  0.00    -0.507 OA
ATOM     11  H   UNL     1      -2.785  -1.620  -6.062  0.00  0.00    +0.292 HD
ENDBRANCH   5  10
BRANCH   3  12
ATOM     12  O   UNL     1      -1.182  -5.132  -2.614  0.00  0.00    -0.506 OA
ATOM     13  H   UNL     1      -2.039  -5.385  -2.246  0.00  0.00    +0.292 HD
ENDBRANCH   3  12
ENDBRANCH   1   2
BRANCH   1  14
ATOM     14  C   UNL     1      -1.389  -3.751   0.002  0.00  0.00    +0.239 C 
ATOM     15  O   UNL     1      -2.063  -2.993   0.667  0.00  0.00    -0.273 OA
ATOM     16  N   UNL     1      -1.696  -5.062  -0.044  0.00  0.00    -0.311 N 
ATOM     17  H   UNL     1      -1.158  -5.668  -0.576  0.00  0.00    +0.149 HD
BRANCH  16  18
ATOM     18  C   UNL     1      -2.844  -5.572   0.710  0.00  0.00    +0.073 C 
ATOM     19  C   UNL     1      -2.417  -5.873   2.148  0.00  0.00    +0.022 C 
ATOM     20  C   UNL     1      -3.615  -6.405   2.936  0.00  0.00    +0.002 C 
ATOM     21  C   UNL     1      -4.128  -7.688   2.278  0.00  0.00    +0.000 C 
ATOM     22  C   UNL     1      -4.556  -7.387   0.840  0.00  0.00    +0.002 C 
ATOM     23  C   UNL     1      -3.357  -6.855   0.052  0.00  0.00    +0.022 C 
ENDBRANCH  16  18
ENDBRANCH   1  14
BRANCH   1  24
ATOM     24  N   UNL     1       0.329  -2.040  -0.103  0.00  0.00    -0.282 N 
ATOM     25  C   UNL     1       1.660  -1.897   0.050  0.00  0.00    +0.248 C 
ATOM     26  O   UNL     1       2.109  -0.886   0.554  0.00  0.00    -0.270 OA
BRANCH  25  27
ATOM     27  C   UNL     1       2.575  -2.969  -0.397  0.00  0.00    +0.039 A 
ATOM     28  C   UNL     1       2.304  -3.679  -1.569  0.00  0.00    +0.013 A 
ATOM     29  C   UNL     1       3.162  -4.678  -1.980  0.00  0.00    +0.003 A 
ATOM     30  C   UNL     1       4.288  -4.978  -1.234  0.00  0.00    +0.033 A 
ATOM     31  C   UNL     1       4.562  -4.279  -0.072  0.00  0.00    +0.127 A 
ATOM     32  C   UNL     1       3.716  -3.273   0.347  0.00  0.00    +0.045 A 
BRANCH  31  33
ATOM     33  N   UNL     1       5.769  -4.606   0.719  0.00  0.00    +0.056 N 
ATOM     34  O   UNL     1       6.514  -5.484   0.350  0.00  0.00    -0.126 OA
ATOM     35  O   UNL     1       6.010  -3.996   1.735  0.00  0.00    -0.126 OA
ENDBRANCH  31  33
ENDBRANCH  25  27
BRANCH  24  36
ATOM     36  C   UNL     1      -0.581  -1.009   0.403  0.00  0.00    +0.109 C 
BRANCH  36  38
ATOM     37  C   UNL     1      -1.623  -0.041   2.457  0.00  0.00    +0.005 C 
ATOM     38  C   UNL     1      -0.614  -1.064   1.932  0.00  0.00    +0.016 C 
ENDBRANCH  36  38
ENDBRANCH  24  36
ENDBRANCH   1  24
TORSDOF 11
