REMARK  Name = ZINC50527753
REMARK  6 active torsions:
REMARK  status: ('A' for Active; 'I' for Inactive)
REMARK    1  A    between atoms: C_1  and  C_2
REMARK    2  A    between atoms: C_5  and  C_9
REMARK    3  A    between atoms: C_6  and  C_8
REMARK    4  A    between atoms: C_9  and  C_11
REMARK    5  A    between atoms: C_9  and  O_21
REMARK    6  A    between atoms: C_11  and  N_12
REMARK                            x       y       z     vdW  Elec       q    Type
REMARK                         _______ _______ _______ _____ _____    ______ ____
ROOT
ATOM      1  C   UNL     1       0.059  -4.275  -0.021  0.00  0.00    +0.166 C 
ENDROOT
BRANCH   1   6
ATOM      2  C   UNL     1      -0.018   1.503   0.010  0.00  0.00    +0.044 C 
ATOM      3  C   UNL     1       0.002  -0.004   0.002  0.00  0.00    -0.050 A 
ATOM      4  C   UNL     1       0.006  -0.689  -1.199  0.00  0.00    +0.004 A 
ATOM      5  C   UNL     1       0.025  -2.071  -1.207  0.00  0.00    +0.007 A 
ATOM      6  C   UNL     1       0.040  -2.768  -0.013  0.00  0.00    -0.014 A 
ATOM      7  C   UNL     1       0.037  -2.084   1.188  0.00  0.00    -0.045 A 
ATOM      8  C   UNL     1       0.023  -0.702   1.195  0.00  0.00    +0.007 A 
ATOM      9  C   UNL     1       0.054  -2.845   2.489  0.00  0.00    +0.044 C 
ENDBRANCH   1   6
BRANCH   1  10
ATOM     10  O   UNL     1       0.628  -4.738  -1.248  0.00  0.00    -0.385 OA
ATOM     11  H   UNL     1       0.146  -4.454  -2.037  0.00  0.00    +0.210 HD
ENDBRANCH   1  10
BRANCH   1  12
ATOM     12  C   UNL     1      -1.370  -4.804   0.109  0.00  0.00    +0.180 C 
BRANCH  12  13
ATOM     13  N   UNL     1      -1.342  -6.265   0.221  0.00  0.00    -0.261 N 
ATOM     14  C   UNL     1      -1.391  -7.144  -0.829  0.00  0.00    +0.069 A 
ATOM     15  C   UNL     1      -1.475  -6.992  -2.211  0.00  0.00    +0.028 A 
ATOM     16  C   UNL     1      -1.506  -8.096  -3.015  0.00  0.00    +0.002 A 
ATOM     17  C   UNL     1      -1.454  -9.374  -2.473  0.00  0.00    +0.001 A 
ATOM     18  C   UNL     1      -1.372  -9.553  -1.122  0.00  0.00    +0.011 A 
ATOM     19  C   UNL     1      -1.338  -8.438  -0.277  0.00  0.00    +0.020 A 
ATOM     20  C   UNL     1      -1.255  -8.264   1.169  0.00  0.00    +0.143 A 
ATOM     21  N   UNL     1      -1.255  -6.986   1.417  0.00  0.00    -0.178 NA
ENDBRANCH  12  13
ENDBRANCH   1  12
TORSDOF 4
