REMARK  Name = ZINC04257543
REMARK  8 active torsions:
REMARK  status: ('A' for Active; 'I' for Inactive)
REMARK    1  A    between atoms: C_6  and  C_7
REMARK    2  A    between atoms: C_12  and  O_18
REMARK    3  A    between atoms: O_18  and  C_19
REMARK    4  A    between atoms: C_21  and  O_34
REMARK    5  A    between atoms: C_23  and  O_33
REMARK    6  A    between atoms: C_25  and  O_32
REMARK    7  A    between atoms: C_27  and  C_30
REMARK    8  A    between atoms: C_30  and  O_31
REMARK                            x       y       z     vdW  Elec       q    Type
REMARK                         _______ _______ _______ _____ _____    ______ ____
ROOT
ATOM      1  C   UNL     1      -1.272  -0.764   0.010  0.00  0.00    +0.064 A 
ATOM      2  C   UNL     1      -1.627  -1.543  -1.044  0.00  0.00    +0.208 A 
ATOM      3  O   UNL     1      -2.757  -2.254  -1.069  0.00  0.00    -0.462 OA
ATOM      4  C   UNL     1      -3.761  -2.019  -0.204  0.00  0.00    +0.142 A 
ATOM      5  C   UNL     1      -5.030  -2.534  -0.435  0.00  0.00    +0.092 A 
ATOM      6  C   UNL     1      -6.048  -2.290   0.470  0.00  0.00    +0.128 A 
ATOM      7  C   UNL     1      -5.814  -1.530   1.615  0.00  0.00    +0.047 A 
ATOM      8  C   UNL     1      -4.574  -1.012   1.856  0.00  0.00    +0.019 A 
ATOM      9  C   UNL     1      -3.539  -1.247   0.951  0.00  0.00    +0.065 A 
ATOM     10  C   UNL     1      -2.186  -0.699   1.167  0.00  0.00    +0.200 A 
ATOM     11  O   UNL     1      -1.845  -0.218   2.234  0.00  0.00    -0.286 OA
ENDROOT
BRANCH   1  17
ATOM     12  C   UNL     1      -0.017   1.389   0.010  0.00  0.00    +0.012 A 
ATOM     13  C   UNL     1       1.169   2.098   0.002  0.00  0.00    +0.050 A 
ATOM     14  C   UNL     1       2.378   1.421  -0.013  0.00  0.00    +0.162 A 
ATOM     15  C   UNL     1       2.402   0.032  -0.020  0.00  0.00    +0.162 A 
ATOM     16  C   UNL     1       1.220  -0.684  -0.013  0.00  0.00    +0.058 A 
ATOM     17  C   UNL     1       0.002  -0.004   0.002  0.00  0.00    -0.008 A 
ATOM     18  O   UNL     1       3.601  -0.621  -0.034  0.00  0.00    -0.488 OA
ATOM     19  C   UNL     1       4.367  -0.496  -1.234  0.00  0.00    +0.232 C 
ATOM     20  C   UNL     1       5.191   0.782  -1.218  0.00  0.00    +0.082 C 
ATOM     21  C   UNL     1       4.322   2.030  -1.220  0.00  0.00    +0.232 C 
ATOM     22  O   UNL     1       3.553   2.115  -0.019  0.00  0.00    -0.488 OA
ENDBRANCH   1  17
BRANCH   6  23
ATOM     23  O   UNL     1      -7.287  -2.794   0.240  0.00  0.00    -0.461 OA
BRANCH  23  24
ATOM     24  C   UNL     1      -8.295  -2.507   1.212  0.00  0.00    +0.339 C 
ATOM     25  C   UNL     1      -9.643  -3.047   0.725  0.00  0.00    +0.214 C 
ATOM     26  C   UNL     1      -9.552  -4.570   0.585  0.00  0.00    +0.180 C 
ATOM     27  C   UNL     1      -9.137  -5.172   1.931  0.00  0.00    +0.177 C 
ATOM     28  C   UNL     1      -7.809  -4.549   2.371  0.00  0.00    +0.179 C 
ATOM     29  O   UNL     1      -7.954  -3.130   2.452  0.00  0.00    -0.331 OA
BRANCH  27  30
ATOM     30  O   UNL     1     -10.142  -4.896   2.908  0.00  0.00    -0.386 OA
ATOM     31  H   UNL     1     -11.012  -5.258   2.690  0.00  0.00    +0.210 HD
ENDBRANCH  27  30
BRANCH  26  32
ATOM     32  O   UNL     1     -10.826  -5.091   0.199  0.00  0.00    -0.386 OA
ATOM     33  H   UNL     1     -11.153  -4.747  -0.643  0.00  0.00    +0.210 HD
ENDBRANCH  26  32
BRANCH  25  34
ATOM     34  O   UNL     1      -9.960  -2.468  -0.542  0.00  0.00    -0.383 OA
ATOM     35  H   UNL     1     -10.028  -1.504  -0.528  0.00  0.00    +0.210 HD
ENDBRANCH  25  34
BRANCH  28  36
ATOM     36  C   UNL     1      -7.417  -5.101   3.743  0.00  0.00    +0.190 C 
BRANCH  36  37
ATOM     37  O   UNL     1      -6.124  -4.611   4.102  0.00  0.00    -0.392 OA
ATOM     38  H   UNL     1      -5.810  -4.921   4.963  0.00  0.00    +0.210 HD
ENDBRANCH  36  37
ENDBRANCH  28  36
ENDBRANCH  23  24
ENDBRANCH   6  23
TORSDOF 8
