REMARK  Name = ZINC62496099
REMARK  7 active torsions:
REMARK  status: ('A' for Active; 'I' for Inactive)
REMARK    1  A    between atoms: C_1  and  C_2
REMARK    2  A    between atoms: C_5  and  C_25
REMARK    3  A    between atoms: C_6  and  C_8
REMARK    4  A    between atoms: C_8  and  C_9
REMARK    5  A    between atoms: N_13  and  C_22
REMARK    6  A    between atoms: C_17  and  N_21
REMARK    7  A    between atoms: C_22  and  C_23
REMARK                            x       y       z     vdW  Elec       q    Type
REMARK                         _______ _______ _______ _____ _____    ______ ____
ROOT
ATOM      1  C   UNL     1       1.835  -3.054   3.347  0.00  0.00    +0.263 C 
ATOM      2  C   UNL     1       1.742  -3.721   4.696  0.00  0.00    +0.261 C 
ATOM      3  O   UNL     1       1.697  -3.050   5.706  0.00  0.00    -0.271 OA
ATOM      4  N   UNL     1       1.710  -5.068   4.776  0.00  0.00    -0.261 N 
ATOM      5  C   UNL     1       1.891  -5.827   3.609  0.00  0.00    +0.079 A 
ATOM      6  C   UNL     1       1.638  -7.190   3.611  0.00  0.00    +0.029 A 
ATOM      7  C   UNL     1       1.807  -7.924   2.453  0.00  0.00    +0.025 A 
ATOM      8  C   UNL     1       2.229  -7.299   1.286  0.00  0.00    +0.028 A 
ATOM      9  C   UNL     1       2.487  -5.934   1.282  0.00  0.00    +0.070 A 
ATOM     10  C   UNL     1       2.324  -5.199   2.443  0.00  0.00    +0.145 A 
ATOM     11  O   UNL     1       2.604  -3.869   2.460  0.00  0.00    -0.477 OA
ENDROOT
BRANCH   8  12
ATOM     12  N   UNL     1       2.394  -8.045   0.114  0.00  0.00    -0.358 N 
ATOM     13  H   UNL     1       2.214  -8.998   0.116  0.00  0.00    +0.142 HD
ATOM     14  H   UNL     1       2.689  -7.609  -0.701  0.00  0.00    +0.142 HD
ENDBRANCH   8  12
BRANCH   1  15
ATOM     15  C   UNL     1       0.429  -2.865   2.775  0.00  0.00    +0.089 C 
BRANCH  15  21
ATOM     16  C   UNL     1      -2.946  -1.974   6.361  0.00  0.00    +0.044 C 
ATOM     17  C   UNL     1      -1.951  -1.466   5.349  0.00  0.00    -0.050 A 
ATOM     18  C   UNL     1      -1.741  -0.106   5.210  0.00  0.00    +0.003 A 
ATOM     19  C   UNL     1      -0.829   0.360   4.282  0.00  0.00    +0.004 A 
ATOM     20  C   UNL     1      -0.127  -0.533   3.494  0.00  0.00    -0.047 A 
ATOM     21  C   UNL     1      -0.336  -1.892   3.634  0.00  0.00    -0.040 A 
ATOM     22  C   UNL     1      -1.245  -2.358   4.565  0.00  0.00    +0.007 A 
ATOM     23  C   UNL     1       0.867  -0.024   2.482  0.00  0.00    +0.044 C 
ENDBRANCH  15  21
ENDBRANCH   1  15
BRANCH   4  24
ATOM     24  C   UNL     1       1.489  -5.729   6.064  0.00  0.00    +0.140 C 
BRANCH  24  25
ATOM     25  C   UNL     1       0.011  -5.936   6.276  0.00  0.00    -0.015 C 
ATOM     26  C   UNL     1      -0.454  -7.135   6.527  0.00  0.00    +0.005 C 
ENDBRANCH  24  25
ENDBRANCH   4  24
TORSDOF 5
