REMARK  Name = ZINC44785600
REMARK  5 active torsions:
REMARK  status: ('A' for Active; 'I' for Inactive)
REMARK    1  A    between atoms: C_4  and  C_6
REMARK    2  A    between atoms: C_4  and  C_10
REMARK    3  A    between atoms: N_7  and  O_8
REMARK    4  A    between atoms: N_12  and  C_13
REMARK    5  A    between atoms: C_13  and  C_14
REMARK                            x       y       z     vdW  Elec       q    Type
REMARK                         _______ _______ _______ _____ _____    ______ ____
ROOT
ATOM      1  C   UNL     1      -0.095   1.294  -0.111  0.00  0.00    +0.001 C 
ATOM      2  C   UNL     1       1.390   1.728  -0.034  0.00  0.00    +0.001 C 
ATOM      3  C   UNL     1       2.095   0.700  -0.953  0.00  0.00    +0.024 C 
ATOM      4  C   UNL     1       1.354  -0.625  -0.677  0.00  0.00    +0.105 C 
ATOM      5  C   UNL     1      -0.038  -0.247  -0.141  0.00  0.00    +0.024 C 
ENDROOT
BRANCH   4   6
ATOM      6  C   UNL     1       1.219  -1.417  -1.952  0.00  0.00    +0.147 C 
ATOM      7  N   UNL     1       0.485  -0.968  -2.916  0.00  0.00    -0.076 NA
ATOM      8  N   UNL     1       1.878  -2.618  -2.090  0.00  0.00    -0.343 N 
ATOM      9  H   UNL     1       2.495  -2.914  -1.402  0.00  0.00    +0.144 HD
ATOM     10  H   UNL     1       1.726  -3.168  -2.874  0.00  0.00    +0.144 HD
BRANCH   7  11
ATOM     11  O   UNL     1      -0.089   0.323  -2.827  0.00  0.00    -0.408 OA
ATOM     12  H   UNL     1      -0.622   0.570  -3.596  0.00  0.00    +0.328 HD
ENDBRANCH   7  11
ENDBRANCH   4   6
BRANCH   4  13
ATOM     13  C   UNL     1       2.103  -1.429   0.354  0.00  0.00    +0.227 C 
ATOM     14  O   UNL     1       3.103  -0.976   0.868  0.00  0.00    -0.275 OA
ATOM     15  N   UNL     1       1.661  -2.653   0.705  0.00  0.00    -0.312 N 
ATOM     16  H   UNL     1       0.903  -3.046   0.244  0.00  0.00    +0.149 HD
BRANCH  15  17
ATOM     17  C   UNL     1       2.325  -3.391   1.782  0.00  0.00    +0.138 C 
BRANCH  17  18
ATOM     18  C   UNL     1       1.633  -4.741   1.979  0.00  0.00    +0.161 C 
ATOM     19  C   UNL     1       2.324  -5.512   3.107  0.00  0.00    +0.193 C 
ATOM     20  O   UNL     1       1.603  -6.722   3.359  0.00  0.00    -0.375 OA
ATOM     21  C   UNL     1       0.232  -6.510   3.708  0.00  0.00    +0.188 C 
ATOM     22  C   UNL     1      -0.460  -5.739   2.579  0.00  0.00    +0.188 C 
ATOM     23  O   UNL     1       0.261  -4.529   2.326  0.00  0.00    -0.370 OA
ENDBRANCH  17  18
ENDBRANCH  15  17
ENDBRANCH   4  13
TORSDOF 5
