REMARK  Name = ZINC02410982
REMARK  9 active torsions:
REMARK  status: ('A' for Active; 'I' for Inactive)
REMARK    1  A    between atoms: C_1  and  C_2
REMARK    2  A    between atoms: C_7  and  C_8
REMARK    3  A    between atoms: C_11  and  C_27
REMARK    4  A    between atoms: N_13  and  C_21
REMARK    5  A    between atoms: C_16  and  N_20
REMARK    6  A    between atoms: C_17  and  C_18
REMARK    7  A    between atoms: C_31  and  C_35
REMARK    8  A    between atoms: C_31  and  C_36
REMARK    9  A    between atoms: C_33  and  C_34
REMARK                            x       y       z     vdW  Elec       q    Type
REMARK                         _______ _______ _______ _____ _____    ______ ____
ROOT
ATOM      1  C   UNL     1      -2.498   0.944   0.019  0.00  0.00    +0.044 C 
ATOM      2  C   UNL     1      -1.224   1.748   0.017  0.00  0.00    -0.047 A 
ATOM      3  C   UNL     1      -0.013   1.076   0.008  0.00  0.00    +0.013 A 
ATOM      4  C   UNL     1       1.179   1.781   0.000  0.00  0.00    -0.000 A 
ATOM      5  C   UNL     1       1.085   3.186   0.008  0.00  0.00    +0.050 A 
ATOM      6  C   UNL     1      -0.130   3.852   0.023  0.00  0.00    +0.002 A 
ATOM      7  C   UNL     1      -1.311   3.141   0.030  0.00  0.00    -0.041 A 
ATOM      8  C   UNL     1      -2.646   3.840   0.047  0.00  0.00    +0.044 C 
ATOM      9  C   UNL     1       0.228   5.301   0.027  0.00  0.00    +0.145 C 
ATOM     10  C   UNL     1      -0.309   6.004  -1.188  0.00  0.00    +0.062 A 
ATOM     11  C   UNL     1       0.049   5.868  -2.522  0.00  0.00    +0.069 A 
ATOM     12  N   UNL     1      -0.691   6.686  -3.232  0.00  0.00    -0.168 NA
ATOM     13  N   UNL     1      -1.551   7.375  -2.364  0.00  0.00    -0.200 N 
ATOM     14  C   UNL     1      -1.302   6.943  -1.109  0.00  0.00    +0.230 A 
ATOM     15  O   UNL     1      -1.872   7.307   0.066  0.00  0.00    -0.423 OA
ATOM     16  C   UNL     1      -1.268   6.920   1.208  0.00  0.00    +0.201 C 
ATOM     17  C   UNL     1      -0.284   5.992   1.260  0.00  0.00    +0.110 C 
ATOM     18  C   UNL     1       1.107   4.940  -3.062  0.00  0.00    +0.068 C 
ATOM     19  C   UNL     1       1.747   5.326   0.012  0.00  0.00    +0.241 C 
ATOM     20  O   UNL     1       2.448   6.316   0.010  0.00  0.00    -0.273 OA
ATOM     21  N   UNL     1       2.172   4.048   0.003  0.00  0.00    -0.260 N 
ATOM     22  C   UNL     1       3.550   3.541  -0.012  0.00  0.00    +0.055 C 
ATOM     23  C   UNL     1       3.586   2.043  -0.020  0.00  0.00    +0.002 C 
ATOM     24  C   UNL     1       2.541   1.231  -0.015  0.00  0.00    -0.043 C 
ATOM     25  C   UNL     1       2.750  -0.262  -0.025  0.00  0.00    +0.044 C 
ATOM     26  C   UNL     1       4.284   4.052   1.230  0.00  0.00    +0.036 C 
ATOM     27  C   UNL     1       4.261   4.065  -1.262  0.00  0.00    +0.036 C 
ENDROOT
BRANCH  13  28
ATOM     28  C   UNL     1      -2.499   8.340  -2.732  0.00  0.00    +0.069 A 
ATOM     29  C   UNL     1      -3.707   8.424  -2.052  0.00  0.00    +0.028 A 
ATOM     30  C   UNL     1      -4.637   9.379  -2.414  0.00  0.00    +0.002 A 
ATOM     31  C   UNL     1      -4.371  10.243  -3.460  0.00  0.00    +0.000 A 
ATOM     32  C   UNL     1      -3.171  10.158  -4.143  0.00  0.00    +0.002 A 
ATOM     33  C   UNL     1      -2.235   9.209  -3.782  0.00  0.00    +0.028 A 
ENDBRANCH  13  28
BRANCH  16  34
ATOM     34  N   UNL     1      -1.675   7.499   2.384  0.00  0.00    -0.328 N 
ATOM     35  H   UNL     1      -1.260   7.240   3.222  0.00  0.00    +0.145 HD
ATOM     36  H   UNL     1      -2.378   8.168   2.378  0.00  0.00    +0.145 HD
ENDBRANCH  16  34
BRANCH  17  37
ATOM     37  C   UNL     1       0.287   5.658   2.530  0.00  0.00    +0.102 C 
ATOM     38  N   UNL     1       0.740   5.393   3.538  0.00  0.00    -0.191 NA
ENDBRANCH  17  37
TORSDOF 3
