REMARK  Name = ZINC28527312
REMARK  9 active torsions:
REMARK  status: ('A' for Active; 'I' for Inactive)
REMARK    1  A    between atoms: C_1  and  C_2
REMARK    2  A    between atoms: C_5  and  C_9
REMARK    3  A    between atoms: C_6  and  C_8
REMARK    4  A    between atoms: C_9  and  S_10
REMARK    5  A    between atoms: S_10  and  C_11
REMARK    6  A    between atoms: N_17  and  C_18
REMARK    7  A    between atoms: N_19  and  C_20
REMARK    8  A    between atoms: C_24  and  C_27
REMARK    9  A    between atoms: C_25  and  C_26
REMARK                            x       y       z     vdW  Elec       q    Type
REMARK                         _______ _______ _______ _____ _____    ______ ____
ROOT
ATOM      1  C   UNL     1       0.044  -0.706   1.170  0.00  0.00    +0.193 A 
ATOM      2  N   UNL     1       0.044  -2.025   1.160  0.00  0.00    -0.122 NA
ATOM      3  N   UNL     1       0.036  -2.701   0.068  0.00  0.00    -0.126 NA
ATOM      4  C   UNL     1       0.027  -2.107  -1.106  0.00  0.00    +0.211 A 
ATOM      5  C   UNL     1       0.021  -0.689  -1.166  0.00  0.00    +0.295 A 
ATOM      6  O   UNL     1       0.008  -0.106  -2.237  0.00  0.00    -0.264 OA
ATOM      7  N   UNL     1       0.035  -0.003   0.000  0.00  0.00    -0.287 N 
ATOM      8  C   UNL     1       0.034   1.462   0.007  0.00  0.00    +0.154 C 
ATOM      9  N   UNL     1       0.018  -2.864  -2.279  0.00  0.00    -0.293 N 
ATOM     10  H   UNL     1      -0.087  -2.365  -3.254  0.00  0.00    +0.154 HD
ENDROOT
BRANCH   9  11
ATOM     11  C   UNL     1       0.142  -4.253  -2.215  0.00  0.00    +0.036 A 
ATOM     12  C   UNL     1       0.767  -4.847  -1.125  0.00  0.00    +0.023 A 
ATOM     13  C   UNL     1       0.888  -6.221  -1.065  0.00  0.00    +0.002 A 
ATOM     14  C   UNL     1       0.389  -7.006  -2.088  0.00  0.00    +0.004 A 
ATOM     15  C   UNL     1      -0.233  -6.419  -3.175  0.00  0.00    -0.046 A 
ATOM     16  C   UNL     1      -0.363  -5.045  -3.238  0.00  0.00    -0.026 A 
ATOM     17  C   UNL     1      -1.048  -4.406  -4.419  0.00  0.00    +0.046 C 
ATOM     18  C   UNL     1      -0.776  -7.279  -4.287  0.00  0.00    +0.044 C 
ENDBRANCH   9  11
BRANCH   1  19
ATOM     19  S   UNL     1       0.055   0.156   2.707  0.00  0.00    -0.081 S 
BRANCH  19  20
ATOM     20  C   UNL     1       0.065  -1.245   3.853  0.00  0.00    +0.112 C 
BRANCH  20  25
ATOM     21  C   UNL     1       0.105   0.711   9.290  0.00  0.00    +0.044 C 
ATOM     22  C   UNL     1       0.094   0.202   7.872  0.00  0.00    -0.050 A 
ATOM     23  C   UNL     1      -1.108  -0.033   7.231  0.00  0.00    +0.003 A 
ATOM     24  C   UNL     1      -1.117  -0.501   5.930  0.00  0.00    +0.005 A 
ATOM     25  C   UNL     1       0.075  -0.735   5.271  0.00  0.00    -0.034 A 
ATOM     26  C   UNL     1       1.277  -0.505   5.914  0.00  0.00    -0.046 A 
ATOM     27  C   UNL     1       1.286  -0.032   7.213  0.00  0.00    +0.007 A 
ATOM     28  C   UNL     1       2.577  -0.766   5.197  0.00  0.00    +0.044 C 
ENDBRANCH  20  25
ENDBRANCH  19  20
ENDBRANCH   1  19
TORSDOF 4
