REMARK  Name = ZINC23143359
REMARK  10 active torsions:
REMARK  status: ('A' for Active; 'I' for Inactive)
REMARK    1  A    between atoms: C_1  and  C_2
REMARK    2  A    between atoms: C_5  and  S_8
REMARK    3  A    between atoms: S_8  and  N_11
REMARK    4  A    between atoms: N_11  and  C_12
REMARK    5  A    between atoms: C_12  and  C_14
REMARK    6  A    between atoms: C_12  and  C_18
REMARK    7  A    between atoms: C_14  and  C_15
REMARK    8  A    between atoms: C_15  and  C_16
REMARK    9  A    between atoms: C_15  and  C_17
REMARK   10  A    between atoms: C_18  and  N_20
REMARK                            x       y       z     vdW  Elec       q    Type
REMARK                         _______ _______ _______ _____ _____    ______ ____
ROOT
ATOM      1  C   UNL     1       2.593  -4.633   1.018  0.00  0.00    +0.164 C 
ENDROOT
BRANCH   1   2
ATOM      2  N   UNL     1       1.680  -5.047  -0.050  0.00  0.00    -0.178 NA
ATOM      3  H   UNL     1       1.864  -4.797  -0.969  0.00  0.00    +0.149 HD
BRANCH   2   4
ATOM      4  S   UNL     1       0.333  -5.939   0.311  0.00  0.00    +0.059 S 
ATOM      5  O   UNL     1       0.767  -7.014   1.133  0.00  0.00    -0.153 OA
ATOM      6  O   UNL     1      -0.357  -6.148  -0.913  0.00  0.00    -0.153 OA
BRANCH   4  11
ATOM      7  C   UNL     1      -3.236  -2.482   3.734  0.00  0.00    +0.044 C 
ATOM      8  C   UNL     1      -2.345  -3.346   2.879  0.00  0.00    -0.050 A 
ATOM      9  C   UNL     1      -2.403  -3.248   1.501  0.00  0.00    +0.005 A 
ATOM     10  C   UNL     1      -1.585  -4.040   0.717  0.00  0.00    +0.029 A 
ATOM     11  C   UNL     1      -0.709  -4.929   1.311  0.00  0.00    +0.105 A 
ATOM     12  C   UNL     1      -0.650  -5.027   2.688  0.00  0.00    +0.029 A 
ATOM     13  C   UNL     1      -1.465  -4.231   3.473  0.00  0.00    +0.005 A 
ENDBRANCH   4  11
ENDBRANCH   2   4
ENDBRANCH   1   2
BRANCH   1  14
ATOM     14  C   UNL     1       3.713  -5.635   1.137  0.00  0.00    +0.258 C 
ATOM     15  O   UNL     1       3.745  -6.602   0.400  0.00  0.00    -0.272 OA
BRANCH  14  16
ATOM     16  N   UNL     1       4.664  -5.462   2.047  0.00  0.00    -0.144 NA
ATOM     17  C   UNL     1       5.655  -6.349   2.152  0.00  0.00    +0.215 A 
ATOM     18  N   UNL     1       5.821  -7.467   1.397  0.00  0.00    -0.316 N 
ATOM     19  H   UNL     1       5.236  -7.762   0.682  0.00  0.00    +0.170 HD
ATOM     20  C   UNL     1       6.958  -8.105   1.820  0.00  0.00    +0.221 A 
ATOM     21  N   UNL     1       7.484  -7.428   2.790  0.00  0.00    -0.162 NA
ATOM     22  N   UNL     1       6.684  -6.301   3.026  0.00  0.00    -0.247 N 
ATOM     23  H   UNL     1       6.840  -5.615   3.693  0.00  0.00    +0.192 HD
ENDBRANCH  14  16
ENDBRANCH   1  14
BRANCH   1  24
ATOM     24  C   UNL     1       3.174  -3.257   0.689  0.00  0.00    +0.033 C 
BRANCH  24  25
ATOM     25  C   UNL     1       2.052  -2.216   0.693  0.00  0.00    -0.015 C 
ATOM     26  C   UNL     1       1.501  -2.066   2.112  0.00  0.00    +0.007 C 
ATOM     27  C   UNL     1       2.603  -0.871   0.215  0.00  0.00    +0.007 C 
ENDBRANCH  24  25
ENDBRANCH   1  24
TORSDOF 7
