REMARK  Name = ZINC63839354
REMARK  10 active torsions:
REMARK  status: ('A' for Active; 'I' for Inactive)
REMARK    1  A    between atoms: C_1  and  C_2
REMARK    2  A    between atoms: C_2  and  C_3
REMARK    3  A    between atoms: C_6  and  N_13
REMARK    4  A    between atoms: C_8  and  S_9
REMARK    5  A    between atoms: S_9  and  N_12
REMARK    6  A    between atoms: C_14  and  C_16
REMARK    7  A    between atoms: C_16  and  N_17
REMARK    8  A    between atoms: C_18  and  C_20
REMARK    9  A    between atoms: C_22  and  C_26
REMARK   10  A    between atoms: C_24  and  C_25
REMARK                            x       y       z     vdW  Elec       q    Type
REMARK                         _______ _______ _______ _____ _____    ______ ____
ROOT
ATOM      1  N   UNL     1       2.657  -1.834  -4.665  0.00  0.00    -0.284 N 
ATOM      2  C   UNL     1       1.941  -2.249  -5.729  0.00  0.00    +0.234 C 
ATOM      3  O   UNL     1       0.733  -2.147  -5.724  0.00  0.00    -0.274 OA
ATOM      4  H   UNL     1       3.627  -1.844  -4.699  0.00  0.00    +0.155 HD
ENDROOT
BRANCH   1   8
ATOM      5  C   UNL     1       0.708  -0.506  -1.231  0.00  0.00    -0.021 A 
ATOM      6  C   UNL     1       0.147  -1.510  -1.998  0.00  0.00    +0.007 A 
ATOM      7  C   UNL     1       0.791  -1.953  -3.137  0.00  0.00    +0.024 A 
ATOM      8  C   UNL     1       2.002  -1.387  -3.512  0.00  0.00    +0.035 A 
ATOM      9  C   UNL     1       2.563  -0.379  -2.740  0.00  0.00    +0.052 A 
ATOM     10  C   UNL     1       1.912   0.063  -1.605  0.00  0.00    +0.110 A 
BRANCH  10  11
ATOM     11  S   UNL     1       2.619   1.347  -0.628  0.00  0.00    +0.056 S 
ATOM     12  O   UNL     1       2.592   0.895   0.719  0.00  0.00    -0.153 OA
ATOM     13  O   UNL     1       3.822   1.736  -1.277  0.00  0.00    -0.153 OA
BRANCH  11  14
ATOM     14  N   UNL     1       1.595   2.646  -0.712  0.00  0.00    -0.204 NA
ATOM     15  H   UNL     1       1.533   3.263   0.034  0.00  0.00    +0.144 HD
ATOM     16  H   UNL     1       1.058   2.790  -1.506  0.00  0.00    +0.144 HD
ENDBRANCH  11  14
ENDBRANCH  10  11
BRANCH   5  18
ATOM     17  C   UNL     1      -0.848   1.200  -0.327  0.00  0.00    +0.009 C 
ATOM     18  C   UNL     1       0.003  -0.025   0.011  0.00  0.00    +0.034 C 
ENDBRANCH   5  18
ENDBRANCH   1   8
BRANCH   2  19
ATOM     19  C   UNL     1       2.642  -2.840  -6.925  0.00  0.00    +0.200 C 
BRANCH  19  20
ATOM     20  N   UNL     1       1.651  -3.210  -7.938  0.00  0.00    -0.303 N 
ATOM     21  C   UNL     1       2.050  -3.762  -9.101  0.00  0.00    +0.248 C 
ATOM     22  O   UNL     1       3.233  -3.953  -9.310  0.00  0.00    -0.270 OA
ATOM     23  H   UNL     1       0.708  -3.058  -7.772  0.00  0.00    +0.150 HD
BRANCH  21  24
ATOM     24  C   UNL     1       1.053  -4.134 -10.121  0.00  0.00    +0.077 A 
ATOM     25  C   UNL     1      -0.406  -3.970 -10.039  0.00  0.00    +0.057 A 
ATOM     26  C   UNL     1      -0.896  -4.447 -11.194  0.00  0.00    +0.103 A 
ATOM     27  O   UNL     1       0.120  -4.879 -11.957  0.00  0.00    -0.464 OA
ATOM     28  C   UNL     1       1.291  -4.698 -11.340  0.00  0.00    +0.114 A 
ATOM     29  C   UNL     1       2.645  -5.058 -11.896  0.00  0.00    +0.087 C 
ATOM     30  C   UNL     1      -2.354  -4.489 -11.572  0.00  0.00    +0.086 C 
ENDBRANCH  21  24
ENDBRANCH  19  20
ENDBRANCH   2  19
TORSDOF 7
