REMARK  Name = ZINC40384373
REMARK  11 active torsions:
REMARK  status: ('A' for Active; 'I' for Inactive)
REMARK    1  A    between atoms: C_1  and  C_2
REMARK    2  A    between atoms: C_2  and  N_3
REMARK    3  A    between atoms: N_3  and  C_4
REMARK    4  A    between atoms: N_3  and  S_6
REMARK    5  A    between atoms: C_4  and  C_5
REMARK    6  A    between atoms: S_6  and  N_9
REMARK    7  A    between atoms: N_9  and  C_10
REMARK    8  A    between atoms: C_12  and  S_18
REMARK    9  A    between atoms: C_14  and  C_17
REMARK   10  A    between atoms: C_15  and  C_16
REMARK   11  A    between atoms: S_18  and  N_21
REMARK                            x       y       z     vdW  Elec       q    Type
REMARK                         _______ _______ _______ _____ _____    ______ ____
ROOT
ATOM      1  C   UNL     1      -3.850   1.047   1.265  0.00  0.00    +0.054 A 
ATOM      2  C   UNL     1      -4.780   0.273   0.581  0.00  0.00    +0.053 A 
ATOM      3  C   UNL     1      -5.769   0.883  -0.165  0.00  0.00    +0.107 A 
ATOM      4  C   UNL     1      -5.835   2.263  -0.232  0.00  0.00    +0.032 A 
ATOM      5  C   UNL     1      -4.911   3.036   0.447  0.00  0.00    -0.044 A 
ATOM      6  C   UNL     1      -3.923   2.433   1.200  0.00  0.00    -0.025 A 
ATOM      7  C   UNL     1      -2.921   3.276   1.946  0.00  0.00    +0.046 C 
ATOM      8  C   UNL     1      -4.987   4.540   0.370  0.00  0.00    +0.044 C 
ENDROOT
BRANCH   3   9
ATOM      9  S   UNL     1      -6.947  -0.097  -1.034  0.00  0.00    +0.056 S 
ATOM     10  O   UNL     1      -7.439   0.706  -2.098  0.00  0.00    -0.153 OA
ATOM     11  O   UNL     1      -6.340  -1.363  -1.252  0.00  0.00    -0.153 OA
BRANCH   9  12
ATOM     12  N   UNL     1      -8.221  -0.354  -0.007  0.00  0.00    -0.204 NA
ATOM     13  H   UNL     1      -8.206   0.019   0.888  0.00  0.00    +0.144 HD
ATOM     14  H   UNL     1      -8.983  -0.879  -0.301  0.00  0.00    +0.144 HD
ENDBRANCH   9  12
ENDBRANCH   3   9
BRANCH   1  15
ATOM     15  N   UNL     1      -2.849   0.433   2.021  0.00  0.00    -0.206 N 
ATOM     16  H   UNL     1      -2.550   0.839   2.850  0.00  0.00    +0.175 HD
BRANCH  15  17
ATOM     17  S   UNL     1      -2.172  -0.986   1.501  0.00  0.00    +0.112 S 
ATOM     18  O   UNL     1      -3.246  -1.887   1.268  0.00  0.00    -0.138 OA
ATOM     19  O   UNL     1      -1.111  -1.282   2.399  0.00  0.00    -0.138 OA
BRANCH  17  20
ATOM     20  N   UNL     1      -1.477  -0.686   0.029  0.00  0.00    -0.164 NA
BRANCH  20  22
ATOM     21  C   UNL     1      -0.032   1.281  -0.122  0.00  0.00    +0.022 C 
ATOM     22  C   UNL     1      -0.082  -0.246  -0.047  0.00  0.00    +0.107 C 
ENDBRANCH  20  22
BRANCH  20  23
ATOM     23  C   UNL     1      -2.257  -0.862  -1.199  0.00  0.00    +0.107 C 
ATOM     24  C   UNL     1      -2.001  -2.258  -1.771  0.00  0.00    +0.022 C 
ENDBRANCH  20  23
ENDBRANCH  17  20
ENDBRANCH  15  17
ENDBRANCH   1  15
TORSDOF 7
