REMARK  Name = ZINC08653308
REMARK  11 active torsions:
REMARK  status: ('A' for Active; 'I' for Inactive)
REMARK    1  A    between atoms: C_1  and  N_2
REMARK    2  A    between atoms: C_3  and  S_16
REMARK    3  A    between atoms: C_4  and  C_8
REMARK    4  A    between atoms: C_11  and  O_14
REMARK    5  A    between atoms: O_14  and  C_15
REMARK    6  A    between atoms: S_16  and  S_17
REMARK    7  A    between atoms: S_17  and  C_18
REMARK    8  A    between atoms: C_19  and  C_25
REMARK    9  A    between atoms: N_23  and  C_24
REMARK   10  A    between atoms: C_28  and  O_31
REMARK   11  A    between atoms: O_31  and  C_32
REMARK                            x       y       z     vdW  Elec       q    Type
REMARK                         _______ _______ _______ _____ _____    ______ ____
ROOT
ATOM      1  S   UNL     1      -0.712   3.869   0.123  0.00  0.00    -0.030 S 
ENDROOT
BRANCH   1   4
ATOM      2  C   UNL     1      -1.057   6.888  -1.125  0.00  0.00    +0.153 C 
ATOM      3  N   UNL     1      -2.134   5.897  -1.199  0.00  0.00    -0.309 N 
ATOM      4  C   UNL     1      -2.083   4.605  -0.702  0.00  0.00    +0.113 A 
ATOM      5  C   UNL     1      -3.268   4.004  -0.965  0.00  0.00    +0.080 A 
ATOM      6  N   UNL     1      -4.079   4.930  -1.639  0.00  0.00    -0.325 N 
ATOM      7  H   UNL     1      -4.984   4.776  -1.953  0.00  0.00    +0.169 HD
ATOM      8  C   UNL     1      -3.364   6.090  -1.774  0.00  0.00    +0.180 A 
ATOM      9  H   UNL     1      -4.656   7.327  -2.759  0.00  0.00    +0.159 HD
ATOM     10  N   UNL     1      -3.728   7.236  -2.345  0.00  0.00    -0.371 N 
ATOM     11  H   UNL     1      -3.075   8.027  -2.369  0.00  0.00    +0.159 HD
BRANCH   5  12
ATOM     12  C   UNL     1      -3.639   2.623  -0.607  0.00  0.00    +0.001 A 
ATOM     13  C   UNL     1      -2.756   1.570  -0.863  0.00  0.00    +0.013 A 
ATOM     14  C   UNL     1      -3.106   0.281  -0.522  0.00  0.00    +0.046 A 
ATOM     15  C   UNL     1      -4.337   0.026   0.066  0.00  0.00    +0.120 A 
ATOM     16  C   UNL     1      -5.220   1.067   0.318  0.00  0.00    +0.046 A 
ATOM     17  C   UNL     1      -4.878   2.361  -0.015  0.00  0.00    +0.013 A 
BRANCH  15  18
ATOM     18  O   UNL     1      -4.680  -1.248   0.396  0.00  0.00    -0.495 OA
ATOM     19  C   UNL     1      -3.725  -2.272   0.109  0.00  0.00    +0.277 C 
ENDBRANCH  15  18
ENDBRANCH   5  12
ENDBRANCH   1   4
BRANCH   1  20
ATOM     20  S   UNL     1      -1.256   4.196   2.083  0.00  0.00    -0.030 S 
BRANCH  20  21
ATOM     21  C   UNL     1      -0.630   5.827   2.307  0.00  0.00    +0.113 A 
ATOM     22  C   UNL     1       0.642   6.150   2.640  0.00  0.00    +0.080 A 
ATOM     23  N   UNL     1       0.724   7.549   2.715  0.00  0.00    -0.325 N 
ATOM     24  H   UNL     1       1.516   8.065   2.933  0.00  0.00    +0.169 HD
ATOM     25  C   UNL     1      -0.515   8.055   2.430  0.00  0.00    +0.180 A 
ATOM     26  N   UNL     1      -1.355   7.001   2.177  0.00  0.00    -0.309 N 
ATOM     27  C   UNL     1      -2.775   7.098   1.831  0.00  0.00    +0.153 C 
ATOM     28  H   UNL     1      -0.246  10.074   2.582  0.00  0.00    +0.159 HD
ATOM     29  N   UNL     1      -0.911   9.325   2.386  0.00  0.00    -0.371 N 
ATOM     30  H   UNL     1      -1.885   9.552   2.154  0.00  0.00    +0.159 HD
BRANCH  22  31
ATOM     31  C   UNL     1       1.745   5.200   2.880  0.00  0.00    +0.001 A 
ATOM     32  C   UNL     1       1.543   4.082   3.693  0.00  0.00    +0.013 A 
ATOM     33  C   UNL     1       2.576   3.195   3.910  0.00  0.00    +0.046 A 
ATOM     34  C   UNL     1       3.818   3.417   3.330  0.00  0.00    +0.120 A 
ATOM     35  C   UNL     1       4.025   4.529   2.526  0.00  0.00    +0.046 A 
ATOM     36  C   UNL     1       2.997   5.419   2.298  0.00  0.00    +0.013 A 
BRANCH  34  37
ATOM     37  O   UNL     1       4.835   2.542   3.551  0.00  0.00    -0.495 OA
ATOM     38  C   UNL     1       4.554   1.418   4.388  0.00  0.00    +0.277 C 
ENDBRANCH  34  37
ENDBRANCH  22  31
ENDBRANCH  20  21
ENDBRANCH   1  20
TORSDOF 7
