REMARK  Name = ZINC49118857
REMARK  5 active torsions:
REMARK  status: ('A' for Active; 'I' for Inactive)
REMARK    1  A    between atoms: C_1  and  C_2
REMARK    2  A    between atoms: C_2  and  C_3
REMARK    3  A    between atoms: C_6  and  N_9
REMARK    4  A    between atoms: N_9  and  C_10
REMARK    5  A    between atoms: C_15  and  N_16
REMARK                            x       y       z     vdW  Elec       q    Type
REMARK                         _______ _______ _______ _____ _____    ______ ____
ROOT
ATOM      1  C   UNL     1       4.019  -3.868  -3.791  0.00  0.00    +0.050 A 
ATOM      2  C   UNL     1       3.876  -4.710  -2.698  0.00  0.00    +0.051 A 
ATOM      3  C   UNL     1       4.389  -5.997  -2.748  0.00  0.00    +0.078 A 
ATOM      4  C   UNL     1       5.046  -6.444  -3.893  0.00  0.00    +0.144 A 
ATOM      5  C   UNL     1       5.189  -5.604  -4.983  0.00  0.00    +0.072 A 
ATOM      6  C   UNL     1       4.671  -4.317  -4.937  0.00  0.00    +0.049 A 
ATOM      7  O   UNL     1       5.545  -7.710  -3.925  0.00  0.00    -0.481 OA
ATOM      8  C   UNL     1       6.024  -8.245  -2.688  0.00  0.00    +0.325 C 
ATOM      9  C   UNL     1       5.018  -7.976  -1.598  0.00  0.00    +0.255 C 
ATOM     10  O   UNL     1       4.896  -8.755  -0.676  0.00  0.00    -0.272 OA
ATOM     11  N   UNL     1       4.252  -6.864  -1.652  0.00  0.00    -0.280 N 
ATOM     12  H   UNL     1       3.618  -6.668  -0.945  0.00  0.00    +0.155 HD
ENDROOT
BRANCH   6  13
ATOM     13  N   UNL     1       4.810  -3.466  -6.043  0.00  0.00    -0.356 N 
ATOM     14  H   UNL     1       4.452  -2.566  -6.010  0.00  0.00    +0.142 HD
ATOM     15  H   UNL     1       5.264  -3.779  -6.841  0.00  0.00    +0.142 HD
ENDBRANCH   6  13
BRANCH   1  16
ATOM     16  N   UNL     1       3.501  -2.565  -3.743  0.00  0.00    -0.340 N 
ATOM     17  H   UNL     1       3.597  -1.976  -4.508  0.00  0.00    +0.146 HD
BRANCH  16  21
ATOM     18  C   UNL     1       0.718  -0.497  -1.257  0.00  0.00    -0.011 C 
ATOM     19  C   UNL     1       2.187  -0.073  -1.207  0.00  0.00    +0.005 C 
ATOM     20  C   UNL     1       2.904  -0.566  -2.466  0.00  0.00    +0.022 C 
ATOM     21  C   UNL     1       2.816  -2.092  -2.538  0.00  0.00    +0.070 C 
ATOM     22  C   UNL     1       1.347  -2.517  -2.587  0.00  0.00    +0.022 C 
ATOM     23  C   UNL     1       0.630  -2.023  -1.329  0.00  0.00    +0.005 C 
BRANCH  18  25
ATOM     24  C   UNL     1      -0.019   1.526   0.010  0.00  0.00    +0.004 C 
ATOM     25  C   UNL     1       0.002  -0.004   0.002  0.00  0.00    -0.000 C 
ENDBRANCH  18  25
ENDBRANCH  16  21
ENDBRANCH   1  16
TORSDOF 4
