REMARK  Name = ZINC40802390
REMARK  4 active torsions:
REMARK  status: ('A' for Active; 'I' for Inactive)
REMARK    1  A    between atoms: C_9  and  S_11
REMARK    2  A    between atoms: S_11  and  C_12
REMARK    3  A    between atoms: C_13  and  N_23
REMARK    4  A    between atoms: C_14  and  N_18
REMARK                            x       y       z     vdW  Elec       q    Type
REMARK                         _______ _______ _______ _____ _____    ______ ____
ROOT
ATOM      1  C   UNL     1      -0.498  -2.890   0.140  0.00  0.00    +0.128 A 
ATOM      2  C   UNL     1      -0.880  -4.229   0.281  0.00  0.00    +0.101 A 
ATOM      3  C   UNL     1      -2.238  -4.515   0.406  0.00  0.00    +0.164 A 
ATOM      4  N   UNL     1      -3.113  -3.514   0.387  0.00  0.00    -0.216 NA
ATOM      5  C   UNL     1      -2.713  -2.266   0.251  0.00  0.00    +0.224 A 
ATOM      6  N   UNL     1      -1.439  -1.949   0.135  0.00  0.00    -0.227 NA
ENDROOT
BRANCH   3   7
ATOM      7  N   UNL     1      -2.674  -5.836   0.550  0.00  0.00    -0.289 N 
ATOM      8  C   UNL     1      -3.741  -6.266   1.298  0.00  0.00    +0.114 A 
ATOM      9  C   UNL     1      -3.803  -7.603   1.155  0.00  0.00    +0.130 A 
ATOM     10  N   UNL     1      -2.805  -7.985   0.344  0.00  0.00    -0.244 NA
ATOM     11  C   UNL     1      -2.125  -6.936  -0.029  0.00  0.00    +0.205 A 
ENDBRANCH   3   7
BRANCH   2  12
ATOM     12  N   UNL     1       0.077  -5.253   0.297  0.00  0.00    -0.353 N 
ATOM     13  H   UNL     1       1.019  -5.038   0.208  0.00  0.00    +0.142 HD
ATOM     14  H   UNL     1      -0.203  -6.176   0.396  0.00  0.00    +0.142 HD
ENDBRANCH   2  12
BRANCH   1  15
ATOM     15  S   UNL     1       1.202  -2.456  -0.023  0.00  0.00    -0.066 S 
BRANCH  15  24
ATOM     16  C   UNL     1       1.478   1.537   0.465  0.00  0.00    +0.002 A 
ATOM     17  C   UNL     1       1.139   2.045  -0.753  0.00  0.00    +0.010 A 
ATOM     18  C   UNL     1       0.803   1.178  -1.805  0.00  0.00    +0.001 A 
ATOM     19  C   UNL     1       0.449   1.672  -3.075  0.00  0.00    +0.011 A 
ATOM     20  C   UNL     1       0.134   0.772  -4.053  0.00  0.00    +0.020 A 
ATOM     21  C   UNL     1       0.169  -0.594  -3.777  0.00  0.00    +0.111 A 
ATOM     22  N   UNL     1       0.499  -1.049  -2.593  0.00  0.00    -0.254 NA
ATOM     23  C   UNL     1       0.818  -0.222  -1.594  0.00  0.00    +0.085 A 
ATOM     24  C   UNL     1       1.173  -0.720  -0.321  0.00  0.00    +0.040 A 
ATOM     25  C   UNL     1       1.497   0.164   0.687  0.00  0.00    +0.017 A 
ENDBRANCH  15  24
ENDBRANCH   1  15
TORSDOF 4
