REMARK  Name = ZINC00940759
REMARK  8 active torsions:
REMARK  status: ('A' for Active; 'I' for Inactive)
REMARK    1  A    between atoms: C_1  and  C_2
REMARK    2  A    between atoms: C_3  and  C_27
REMARK    3  A    between atoms: C_4  and  C_17
REMARK    4  A    between atoms: C_10  and  C_12
REMARK    5  A    between atoms: C_20  and  O_25
REMARK    6  A    between atoms: C_22  and  O_23
REMARK    7  A    between atoms: O_23  and  C_24
REMARK    8  A    between atoms: O_25  and  C_26
REMARK                            x       y       z     vdW  Elec       q    Type
REMARK                         _______ _______ _______ _____ _____    ______ ____
ROOT
ATOM      1  C   UNL     1      -0.033   1.426   0.475  0.00  0.00    +0.064 C 
ATOM      2  C   UNL     1      -0.026  -0.056   0.201  0.00  0.00    +0.026 C 
ATOM      3  C   UNL     1      -1.214  -0.691  -0.037  0.00  0.00    +0.059 C 
ATOM      4  C   UNL     1      -1.159  -2.184  -0.309  0.00  0.00    +0.167 C 
ATOM      5  N   UNL     1       0.174  -2.796  -0.287  0.00  0.00    -0.209 N 
ATOM      6  C   UNL     1       1.268  -2.002  -0.029  0.00  0.00    +0.215 C 
ATOM      7  N   UNL     1       1.129  -0.702   0.193  0.00  0.00    -0.330 N 
ATOM      8  N   UNL     1       2.353  -2.785  -0.063  0.00  0.00    -0.197 NA
ATOM      9  C   UNL     1       2.011  -4.035  -0.330  0.00  0.00    +0.153 C 
ATOM     10  N   UNL     1       0.647  -4.097  -0.480  0.00  0.00    -0.244 N 
ATOM     11  H   UNL     1       1.933  -0.187   0.367  0.00  0.00    +0.168 HD
ATOM     12  H   UNL     1       0.118  -4.885  -0.679  0.00  0.00    +0.172 HD
ENDROOT
BRANCH   4  13
ATOM     13  C   UNL     1      -1.766  -2.437  -1.665  0.00  0.00    +0.021 A 
ATOM     14  C   UNL     1      -1.876  -1.403  -2.575  0.00  0.00    +0.013 A 
ATOM     15  C   UNL     1      -2.432  -1.632  -3.819  0.00  0.00    +0.046 A 
ATOM     16  C   UNL     1      -2.880  -2.901  -4.158  0.00  0.00    +0.124 A 
ATOM     17  C   UNL     1      -2.770  -3.940  -3.246  0.00  0.00    +0.091 A 
ATOM     18  C   UNL     1      -2.207  -3.709  -2.001  0.00  0.00    +0.129 A 
BRANCH  18  19
ATOM     19  O   UNL     1      -2.092  -4.726  -1.107  0.00  0.00    -0.495 OA
ATOM     20  C   UNL     1      -2.479  -6.028  -1.553  0.00  0.00    +0.277 C 
ENDBRANCH  18  19
BRANCH  16  21
ATOM     21  O   UNL     1      -3.427  -3.125  -5.382  0.00  0.00    -0.495 OA
ATOM     22  C   UNL     1      -3.509  -2.009  -6.270  0.00  0.00    +0.277 C 
ENDBRANCH  16  21
ENDBRANCH   4  13
BRANCH   9  23
ATOM     23  C   UNL     1       2.933  -5.164  -0.446  0.00  0.00    +0.053 A 
ATOM     24  C   UNL     1       4.315  -5.185  -0.304  0.00  0.00    +0.019 A 
ATOM     25  C   UNL     1       4.913  -6.410  -0.472  0.00  0.00    +0.008 A 
ATOM     26  C   UNL     1       4.140  -7.488  -0.758  0.00  0.00    +0.046 A 
ATOM     27  S   UNL     1       2.576  -6.875  -0.799  0.00  0.00    -0.094 S 
ENDBRANCH   9  23
BRANCH   3  28
ATOM     28  C   UNL     1      -2.433   0.009  -0.030  0.00  0.00    +0.241 C 
ATOM     29  O   UNL     1      -2.439   1.222   0.082  0.00  0.00    -0.271 OA
ATOM     30  N   UNL     1      -3.596  -0.662  -0.149  0.00  0.00    -0.325 N 
ATOM     31  H   UNL     1      -3.590  -1.622  -0.293  0.00  0.00    +0.145 HD
ATOM     32  H   UNL     1      -4.439  -0.186  -0.089  0.00  0.00    +0.145 HD
ENDBRANCH   3  28
TORSDOF 5
