REMARK  Name = ZINC20467318
REMARK  11 active torsions:
REMARK  status: ('A' for Active; 'I' for Inactive)
REMARK    1  A    between atoms: C_1  and  C_2
REMARK    2  A    between atoms: C_2  and  N_3
REMARK    3  A    between atoms: N_6  and  C_7
REMARK    4  A    between atoms: C_11  and  C_37
REMARK    5  A    between atoms: C_14  and  C_24
REMARK    6  A    between atoms: C_16  and  O_23
REMARK    7  A    between atoms: C_20  and  C_22
REMARK    8  A    between atoms: C_24  and  C_26
REMARK    9  A    between atoms: C_24  and  C_27
REMARK   10  A    between atoms: N_29  and  C_30
REMARK   11  A    between atoms: C_30  and  C_31
REMARK                            x       y       z     vdW  Elec       q    Type
REMARK                         _______ _______ _______ _____ _____    ______ ____
ROOT
ATOM      1  C   UNL     1      -8.005  -5.057   2.390  0.00  0.00    +0.078 C 
ATOM      2  C   UNL     1      -8.448  -5.109   3.853  0.00  0.00    +0.023 C 
ATOM      3  C   UNL     1      -8.433  -3.696   4.441  0.00  0.00    +0.009 C 
ATOM      4  C   UNL     1      -7.016  -3.125   4.357  0.00  0.00    -0.027 C 
ATOM      5  C   UNL     1      -7.000  -1.713   4.945  0.00  0.00    +0.007 C 
ATOM      6  C   UNL     1      -5.583  -1.141   4.862  0.00  0.00    +0.007 C 
ATOM      7  C   UNL     1      -5.139  -1.090   3.399  0.00  0.00    +0.029 C 
ATOM      8  C   UNL     1      -5.155  -2.502   2.811  0.00  0.00    +0.122 C 
ATOM      9  C   UNL     1      -6.572  -3.073   2.894  0.00  0.00    +0.028 C 
ATOM     10  C   UNL     1      -6.588  -4.486   2.306  0.00  0.00    +0.012 C 
ATOM     11  C   UNL     1      -6.144  -4.434   0.843  0.00  0.00    +0.010 C 
ATOM     12  C   UNL     1      -6.058  -4.018   5.149  0.00  0.00    +0.011 C 
ENDROOT
BRANCH   1  16
ATOM     13  N   UNL     1      -9.177  -8.164   0.810  0.00  0.00    -0.300 N 
ATOM     14  C   UNL     1      -9.163  -6.919   1.327  0.00  0.00    +0.300 C 
ATOM     15  O   UNL     1     -10.182  -6.256   1.344  0.00  0.00    -0.253 OA
ATOM     16  N   UNL     1      -8.020  -6.410   1.827  0.00  0.00    -0.296 N 
ATOM     17  H   UNL     1      -8.255  -8.763   0.795  0.00  0.00    +0.150 HD
ATOM     18  H   UNL     1      -7.098  -7.010   1.812  0.00  0.00    +0.151 HD
BRANCH  13  20
ATOM     19  C   UNL     1     -10.163 -10.133  -0.254  0.00  0.00    +0.024 C 
ATOM     20  C   UNL     1     -10.420  -8.717   0.267  0.00  0.00    +0.102 C 
ENDBRANCH  13  20
ENDBRANCH   1  16
BRANCH   8  21
ATOM     21  O   UNL     1      -4.741  -2.454   1.444  0.00  0.00    -0.391 OA
ATOM     22  H   UNL     1      -4.689  -3.379   0.852  0.00  0.00    +0.210 HD
ENDBRANCH   8  21
BRANCH   7  23
ATOM     23  C   UNL     1      -3.723  -0.518   3.315  0.00  0.00    +0.077 C 
ATOM     24  C   UNL     1      -2.795  -1.318   4.232  0.00  0.00    +0.017 C 
BRANCH  23  25
ATOM     25  C   UNL     1      -3.736   0.925   3.750  0.00  0.00    +0.217 C 
ATOM     26  O   UNL     1      -4.784   1.457   4.051  0.00  0.00    -0.276 OA
ATOM     27  N   UNL     1      -2.585   1.623   3.805  0.00  0.00    -0.309 N 
ATOM     28  H   UNL     1      -1.635   1.140   3.533  0.00  0.00    +0.149 HD
BRANCH  27  29
ATOM     29  C   UNL     1      -2.598   3.026   4.228  0.00  0.00    +0.159 C 
BRANCH  29  30
ATOM     30  C   UNL     1      -1.194   3.571   4.204  0.00  0.00    +0.058 A 
ATOM     31  C   UNL     1      -0.745   4.253   3.088  0.00  0.00    +0.025 A 
ATOM     32  C   UNL     1       0.547   4.755   3.077  0.00  0.00    +0.003 A 
ATOM     33  C   UNL     1       1.345   4.548   4.192  0.00  0.00    +0.020 A 
ATOM     34  C   UNL     1       0.829   3.852   5.269  0.00  0.00    +0.111 A 
ATOM     35  N   UNL     1      -0.405   3.388   5.245  0.00  0.00    -0.258 NA
ENDBRANCH  29  30
ENDBRANCH  27  29
ENDBRANCH  23  25
ENDBRANCH   7  23
TORSDOF 7
