REMARK  Name = ZINC45782025
REMARK  8 active torsions:
REMARK  status: ('A' for Active; 'I' for Inactive)
REMARK    1  A    between atoms: C_1  and  C_2
REMARK    2  A    between atoms: C_2  and  C_4
REMARK    3  A    between atoms: C_2  and  N_14
REMARK    4  A    between atoms: C_7  and  N_10
REMARK    5  A    between atoms: C_15  and  C_17
REMARK    6  A    between atoms: C_18  and  C_19
REMARK    7  A    between atoms: C_24  and  O_25
REMARK    8  A    between atoms: O_25  and  C_26
REMARK                            x       y       z     vdW  Elec       q    Type
REMARK                         _______ _______ _______ _____ _____    ______ ____
ROOT
ATOM      1  N   UNL     1       0.826  -0.288   1.176  0.00  0.00    -0.305 N 
ATOM      2  C   UNL     1       0.241  -0.420   2.383  0.00  0.00    +0.237 C 
ATOM      3  O   UNL     1      -0.964  -0.282   2.494  0.00  0.00    -0.271 OA
ATOM      4  H   UNL     1       1.785  -0.398   1.088  0.00  0.00    +0.150 HD
ENDROOT
BRANCH   1   6
ATOM      5  C   UNL     1      -0.191   1.534  -0.099  0.00  0.00    +0.033 C 
ATOM      6  C   UNL     1       0.012   0.021  -0.002  0.00  0.00    +0.100 C 
BRANCH   6   7
ATOM      7  C   UNL     1       0.715  -0.472  -1.241  0.00  0.00    -0.027 A 
ATOM      8  C   UNL     1       2.086  -0.335  -1.357  0.00  0.00    +0.007 A 
ATOM      9  C   UNL     1       2.733  -0.785  -2.491  0.00  0.00    +0.023 A 
ATOM     10  C   UNL     1       2.005  -1.376  -3.515  0.00  0.00    +0.035 A 
ATOM     11  C   UNL     1       0.628  -1.513  -3.396  0.00  0.00    +0.023 A 
ATOM     12  C   UNL     1      -0.012  -1.065  -2.257  0.00  0.00    +0.007 A 
BRANCH  10  13
ATOM     13  N   UNL     1       2.658  -1.833  -4.666  0.00  0.00    -0.270 N 
ATOM     14  C   UNL     1       3.907  -2.331  -4.579  0.00  0.00    +0.301 C 
ATOM     15  O   UNL     1       4.431  -2.473  -3.491  0.00  0.00    -0.253 OA
ATOM     16  N   UNL     1       4.576  -2.671  -5.699  0.00  0.00    -0.313 N 
ATOM     17  H   UNL     1       2.211  -1.792  -5.526  0.00  0.00    +0.156 HD
ATOM     18  H   UNL     1       4.158  -2.558  -6.567  0.00  0.00    +0.146 HD
ATOM     19  H   UNL     1       5.475  -3.030  -5.636  0.00  0.00    +0.146 HD
ENDBRANCH  10  13
ENDBRANCH   6   7
ENDBRANCH   1   6
BRANCH   2  20
ATOM     20  C   UNL     1       1.053  -0.729   3.560  0.00  0.00    +0.068 C 
ATOM     21  C   UNL     1       0.467  -0.861   4.769  0.00  0.00    +0.016 C 
BRANCH  21  22
ATOM     22  C   UNL     1       1.283  -1.171   5.951  0.00  0.00    +0.017 A 
ATOM     23  C   UNL     1       2.668  -1.324   5.830  0.00  0.00    +0.011 A 
ATOM     24  C   UNL     1       3.427  -1.615   6.942  0.00  0.00    +0.001 A 
ATOM     25  C   UNL     1       2.824  -1.756   8.182  0.00  0.00    +0.004 A 
ATOM     26  C   UNL     1       1.458  -1.608   8.317  0.00  0.00    +0.046 A 
ATOM     27  C   UNL     1       0.678  -1.309   7.210  0.00  0.00    +0.134 A 
BRANCH  27  28
ATOM     28  O   UNL     1      -0.664  -1.156   7.343  0.00  0.00    -0.434 OA
BRANCH  28  29
ATOM     29  C   UNL     1      -1.208  -1.312   8.655  0.00  0.00    +0.541 C 
ATOM     30  F   UNL     1      -0.927  -2.598   9.127  0.00  0.00    -0.166 F 
ATOM     31  F   UNL     1      -0.636  -0.365   9.512  0.00  0.00    -0.166 F 
ENDBRANCH  28  29
ENDBRANCH  27  28
ENDBRANCH  21  22
ENDBRANCH   2  20
TORSDOF 7
