REMARK  Name = ZINC40304352
REMARK  5 active torsions:
REMARK  status: ('A' for Active; 'I' for Inactive)
REMARK    1  A    between atoms: C_6  and  N_7
REMARK    2  A    between atoms: C_9  and  C_11
REMARK    3  A    between atoms: N_13  and  C_14
REMARK    4  A    between atoms: C_14  and  C_15
REMARK    5  A    between atoms: N_17  and  C_18
REMARK                            x       y       z     vdW  Elec       q    Type
REMARK                         _______ _______ _______ _____ _____    ______ ____
ROOT
ATOM      1  C   UNL     1      -0.017   1.390   0.010  0.00  0.00    +0.026 A 
ATOM      2  C   UNL     1       1.158   2.109   0.002  0.00  0.00    +0.048 A 
ATOM      3  C   UNL     1       2.380   1.447  -0.013  0.00  0.00    +0.136 A 
ATOM      4  C   UNL     1       2.403   0.040  -0.021  0.00  0.00    +0.023 A 
ATOM      5  C   UNL     1       1.207  -0.682  -0.013  0.00  0.00    +0.034 A 
ATOM      6  C   UNL     1       0.002  -0.004   0.002  0.00  0.00    +0.025 A 
ATOM      7  C   UNL     1       3.817  -0.334  -0.038  0.00  0.00    +0.063 A 
ATOM      8  C   UNL     1       4.514   0.831  -0.039  0.00  0.00    +0.190 A 
ATOM      9  O   UNL     1       3.659   1.874  -0.024  0.00  0.00    -0.450 OA
ENDROOT
BRANCH   8  10
ATOM     10  C   UNL     1       5.980   0.939  -0.053  0.00  0.00    +0.280 C 
ATOM     11  O   UNL     1       6.664  -0.067  -0.065  0.00  0.00    -0.267 OA
ATOM     12  N   UNL     1       6.566   2.153  -0.052  0.00  0.00    -0.300 N 
ATOM     13  H   UNL     1       6.021   2.955  -0.043  0.00  0.00    +0.150 HD
BRANCH  12  14
ATOM     14  C   UNL     1       8.027   2.261  -0.066  0.00  0.00    +0.200 C 
BRANCH  14  15
ATOM     15  C   UNL     1       8.423   3.715  -0.063  0.00  0.00    +0.230 C 
ATOM     16  O   UNL     1       7.569   4.576  -0.050  0.00  0.00    -0.274 OA
ATOM     17  N   UNL     1       9.727   4.058  -0.074  0.00  0.00    -0.311 N 
ATOM     18  H   UNL     1      10.409   3.369  -0.084  0.00  0.00    +0.149 HD
BRANCH  17  19
ATOM     19  C   UNL     1      10.112   5.471  -0.070  0.00  0.00    +0.073 C 
ATOM     20  C   UNL     1      11.236   5.900  -1.016  0.00  0.00    +0.024 C 
ATOM     21  C   UNL     1      11.490   5.827   0.491  0.00  0.00    +0.024 C 
ENDBRANCH  17  19
ENDBRANCH  14  15
ENDBRANCH  12  14
ENDBRANCH   8  10
BRANCH   6  22
ATOM     22  N   UNL     1      -1.201  -0.719   0.010  0.00  0.00    -0.358 N 
ATOM     23  H   UNL     1      -2.047  -0.244   0.020  0.00  0.00    +0.142 HD
ATOM     24  H   UNL     1      -1.189  -1.688   0.004  0.00  0.00    +0.142 HD
ENDBRANCH   6  22
TORSDOF 5
