REMARK  Name = ZINC37986037
REMARK  3 active torsions:
REMARK  status: ('A' for Active; 'I' for Inactive)
REMARK    1  A    between atoms: C_9  and  N_11
REMARK    2  A    between atoms: N_11  and  C_12
REMARK    3  A    between atoms: C_12  and  C_13
REMARK                            x       y       z     vdW  Elec       q    Type
REMARK                         _______ _______ _______ _____ _____    ______ ____
ROOT
ATOM      1  N   UNL     1       4.916  -2.516  -0.060  0.00  0.00    -0.326 N 
ATOM      2  H   UNL     1       5.725  -1.981  -0.065  0.00  0.00    +0.148 HD
ENDROOT
BRANCH   1  11
ATOM      3  C   UNL     1      -0.016   1.358   0.009  0.00  0.00    +0.001 A 
ATOM      4  C   UNL     1       1.169   2.088   0.002  0.00  0.00    +0.002 A 
ATOM      5  C   UNL     1       2.379   1.463  -0.013  0.00  0.00    +0.028 A 
ATOM      6  C   UNL     1       2.438   0.059  -0.021  0.00  0.00    +0.073 A 
ATOM      7  C   UNL     1       1.231  -0.681  -0.013  0.00  0.00    +0.001 A 
ATOM      8  C   UNL     1       0.002  -0.004   0.002  0.00  0.00    +0.010 A 
ATOM      9  C   UNL     1       1.290  -2.090  -0.021  0.00  0.00    +0.013 A 
ATOM     10  C   UNL     1       2.516  -2.685  -0.037  0.00  0.00    +0.044 A 
ATOM     11  C   UNL     1       3.675  -1.896  -0.044  0.00  0.00    +0.119 A 
ATOM     12  N   UNL     1       3.613  -0.580  -0.036  0.00  0.00    -0.232 NA
ENDBRANCH   1  11
BRANCH   1  13
ATOM     13  C   UNL     1       5.004  -3.978  -0.068  0.00  0.00    +0.147 C 
BRANCH  13  14
ATOM     14  C   UNL     1       6.475  -4.400  -0.085  0.00  0.00    +0.195 C 
ATOM     15  C   UNL     1       6.602  -5.940  -0.158  0.00  0.00    +0.085 C 
ATOM     16  C   UNL     1       7.820  -6.112  -1.045  0.00  0.00    -0.002 A 
ATOM     17  C   UNL     1       8.639  -7.191  -1.293  0.00  0.00    +0.007 A 
ATOM     18  C   UNL     1       9.708  -7.064  -2.161  0.00  0.00    +0.000 A 
ATOM     19  C   UNL     1       9.950  -5.850  -2.778  0.00  0.00    +0.004 A 
ATOM     20  C   UNL     1       9.130  -4.768  -2.534  0.00  0.00    +0.046 A 
ATOM     21  C   UNL     1       8.049  -4.890  -1.664  0.00  0.00    +0.124 A 
ATOM     22  O   UNL     1       7.115  -3.966  -1.297  0.00  0.00    -0.487 OA
ENDBRANCH  13  14
ENDBRANCH   1  13
TORSDOF 3
