REMARK  Name = ZINC65452962
REMARK  5 active torsions:
REMARK  status: ('A' for Active; 'I' for Inactive)
REMARK    1  A    between atoms: C_1  and  C_2
REMARK    2  A    between atoms: C_2  and  C_4
REMARK    3  A    between atoms: C_2  and  N_11
REMARK    4  A    between atoms: C_4  and  C_5
REMARK    5  A    between atoms: C_15  and  C_23
REMARK                            x       y       z     vdW  Elec       q    Type
REMARK                         _______ _______ _______ _____ _____    ______ ____
ROOT
ATOM      1  N   UNL     1       0.711  -0.489   1.189  0.00  0.00    -0.326 N 
ATOM      2  C   UNL     1       2.083  -0.602   1.173  0.00  0.00    +0.132 A 
ATOM      3  C   UNL     1       2.816  -1.089   2.342  0.00  0.00    +0.039 A 
ATOM      4  C   UNL     1       2.170  -1.461   3.518  0.00  0.00    +0.028 A 
ATOM      5  C   UNL     1       2.926  -1.917   4.594  0.00  0.00    +0.064 A 
ATOM      6  C   UNL     1       4.327  -2.002   4.494  0.00  0.00    +0.017 A 
ATOM      7  C   UNL     1       4.967  -1.641   3.351  0.00  0.00    +0.027 A 
ATOM      8  C   UNL     1       4.229  -1.178   2.250  0.00  0.00    +0.052 A 
ATOM      9  N   UNL     1       4.820  -0.814   1.106  0.00  0.00    -0.327 N 
ATOM     10  C   UNL     1       4.112  -0.381   0.082  0.00  0.00    +0.192 A 
ATOM     11  N   UNL     1       2.786  -0.278   0.096  0.00  0.00    -0.201 NA
ATOM     12  N   UNL     1       4.782  -0.019  -1.071  0.00  0.00    -0.329 N 
ATOM     13  H   UNL     1       0.213  -0.731   1.986  0.00  0.00    +0.148 HD
ATOM     14  H   UNL     1       5.749  -0.088  -1.111  0.00  0.00    +0.145 HD
ATOM     15  H   UNL     1       4.286   0.303  -1.839  0.00  0.00    +0.145 HD
ATOM     16  H   UNL     1       5.785  -0.869   1.029  0.00  0.00    +0.169 HD
ENDROOT
BRANCH   5  17
ATOM     17  C   UNL     1       2.257  -2.313   5.844  0.00  0.00    +0.387 C 
ATOM     18  O   UNL     1       1.039  -2.241   5.935  0.00  0.00    -0.241 OA
ATOM     19  O   UNL     1       2.918  -2.715   6.792  0.00  0.00    -0.241 OA
ENDBRANCH   5  17
BRANCH   1  21
ATOM     20  C   UNL     1      -0.019   1.526   0.010  0.00  0.00    +0.028 C 
ATOM     21  C   UNL     1       0.002  -0.004   0.002  0.00  0.00    +0.074 C 
BRANCH  21  22
ATOM     22  C   UNL     1      -1.433  -0.534   0.013  0.00  0.00    +0.079 C 
BRANCH  22  23
ATOM     23  C   UNL     1      -1.416  -2.035  -0.119  0.00  0.00    +0.061 A 
ATOM     24  C   UNL     1      -2.061  -2.820   0.821  0.00  0.00    +0.134 A 
ATOM     25  N   UNL     1      -2.046  -4.136   0.705  0.00  0.00    -0.260 NA
ATOM     26  C   UNL     1      -1.415  -4.702  -0.309  0.00  0.00    +0.130 A 
ATOM     27  C   UNL     1      -0.771  -3.918  -1.249  0.00  0.00    +0.130 A 
ATOM     28  N   UNL     1      -0.790  -2.601  -1.135  0.00  0.00    -0.257 NA
ENDBRANCH  22  23
ENDBRANCH  21  22
ENDBRANCH   1  21
TORSDOF 4
