REMARK  Name = ZINC06352485
REMARK  7 active torsions:
REMARK  status: ('A' for Active; 'I' for Inactive)
REMARK    1  A    between atoms: C_4  and  O_27
REMARK    2  A    between atoms: C_5  and  C_7
REMARK    3  A    between atoms: N_8  and  N_9
REMARK    4  A    between atoms: C_10  and  C_12
REMARK    5  A    between atoms: C_17  and  N_18
REMARK    6  A    between atoms: N_18  and  S_19
REMARK    7  A    between atoms: S_19  and  C_22
REMARK                            x       y       z     vdW  Elec       q    Type
REMARK                         _______ _______ _______ _____ _____    ______ ____
ROOT
ATOM      1  C   UNL     1       4.660   7.977  -0.270  0.00  0.00    +0.061 A 
ATOM      2  C   UNL     1       5.817   7.215  -0.455  0.00  0.00    +0.015 A 
ATOM      3  C   UNL     1       7.044   7.837  -0.533  0.00  0.00    +0.001 A 
ATOM      4  C   UNL     1       7.138   9.216  -0.429  0.00  0.00    +0.002 A 
ATOM      5  C   UNL     1       6.005   9.982  -0.246  0.00  0.00    +0.025 A 
ATOM      6  C   UNL     1       4.758   9.373  -0.170  0.00  0.00    +0.060 A 
ENDROOT
BRANCH   1   8
ATOM      7  N   UNL     1       3.255   5.977  -0.287  0.00  0.00    -0.203 N 
ATOM      8  C   UNL     1       3.345   7.318  -0.185  0.00  0.00    +0.265 C 
ATOM      9  O   UNL     1       2.340   7.984  -0.024  0.00  0.00    -0.268 OA
ATOM     10  H   UNL     1       4.056   5.446  -0.416  0.00  0.00    +0.178 HD
BRANCH   7  12
ATOM     11  C   UNL     1       1.918   4.059  -0.305  0.00  0.00    +0.142 C 
ATOM     12  N   UNL     1       2.004   5.351  -0.207  0.00  0.00    -0.187 NA
BRANCH  11  17
ATOM     13  C   UNL     1      -0.730   1.400  -0.246  0.00  0.00    +0.001 A 
ATOM     14  C   UNL     1      -1.873   2.160  -0.067  0.00  0.00    +0.004 A 
ATOM     15  C   UNL     1      -1.790   3.535   0.044  0.00  0.00    +0.046 A 
ATOM     16  C   UNL     1      -0.558   4.164  -0.034  0.00  0.00    +0.125 A 
ATOM     17  C   UNL     1       0.602   3.400  -0.221  0.00  0.00    +0.036 A 
ATOM     18  C   UNL     1       0.504   2.011  -0.326  0.00  0.00    +0.013 A 
BRANCH  16  19
ATOM     19  O   UNL     1      -0.475   5.516   0.070  0.00  0.00    -0.506 OA
ATOM     20  H   UNL     1      -0.544   5.980  -0.775  0.00  0.00    +0.292 HD
ENDBRANCH  16  19
ENDBRANCH  11  17
ENDBRANCH   7  12
ENDBRANCH   1   8
BRANCH   6  21
ATOM     21  N   UNL     1       3.616  10.143   0.009  0.00  0.00    -0.215 N 
ATOM     22  H   UNL     1       2.884   9.806   0.549  0.00  0.00    +0.174 HD
BRANCH  21  23
ATOM     23  S   UNL     1       3.503  11.634  -0.701  0.00  0.00    +0.079 S 
ATOM     24  O   UNL     1       2.185  12.105  -0.451  0.00  0.00    -0.149 OA
ATOM     25  O   UNL     1       4.659  12.361  -0.307  0.00  0.00    -0.149 OA
BRANCH  23  26
ATOM     26  C   UNL     1       3.629  11.394  -2.442  0.00  0.00    +0.146 A 
ATOM     27  C   UNL     1       2.644  11.169  -3.346  0.00  0.00    +0.036 A 
ATOM     28  C   UNL     1       2.980  11.008  -4.678  0.00  0.00    +0.010 A 
ATOM     29  C   UNL     1       4.285  11.081  -5.040  0.00  0.00    +0.047 A 
ATOM     30  S   UNL     1       5.085  11.391  -3.474  0.00  0.00    -0.077 S 
ENDBRANCH  23  26
ENDBRANCH  21  23
ENDBRANCH   6  21
TORSDOF 7
