REMARK  Name = ZINC67495479
REMARK  10 active torsions:
REMARK  status: ('A' for Active; 'I' for Inactive)
REMARK    1  A    between atoms: C_1  and  C_2
REMARK    2  A    between atoms: C_5  and  N_11
REMARK    3  A    between atoms: C_7  and  C_8
REMARK    4  A    between atoms: C_12  and  C_14
REMARK    5  A    between atoms: N_16  and  C_17
REMARK    6  A    between atoms: C_17  and  C_18
REMARK    7  A    between atoms: C_18  and  C_20
REMARK    8  A    between atoms: C_18  and  N_23
REMARK    9  A    between atoms: C_20  and  C_21
REMARK   10  A    between atoms: C_20  and  C_22
REMARK                            x       y       z     vdW  Elec       q    Type
REMARK                         _______ _______ _______ _____ _____    ______ ____
ROOT
ATOM      1  C   UNL     1       0.395  -6.800  -1.900  0.00  0.00    +0.299 C 
ATOM      2  O   UNL     1       0.735  -7.703  -1.164  0.00  0.00    -0.265 OA
ATOM      3  N   UNL     1       0.264  -7.021  -3.223  0.00  0.00    -0.309 N 
ATOM      4  H   UNL     1      -0.008  -6.300  -3.812  0.00  0.00    +0.149 HD
ENDROOT
BRANCH   1   6
ATOM      5  N   UNL     1       0.252  -5.220  -0.017  0.00  0.00    -0.278 N 
ATOM      6  C   UNL     1       0.121  -5.442  -1.340  0.00  0.00    +0.303 C 
ATOM      7  O   UNL     1      -0.219  -4.539  -2.076  0.00  0.00    -0.265 OA
ATOM      8  H   UNL     1       0.451  -5.958   0.581  0.00  0.00    +0.155 HD
BRANCH   5  13
ATOM      9  C   UNL     1      -0.370   0.021   2.083  0.00  0.00    +0.044 C 
ATOM     10  C   UNL     1      -0.204  -1.368   1.523  0.00  0.00    -0.038 A 
ATOM     11  C   UNL     1      -0.557  -2.465   2.283  0.00  0.00    +0.006 A 
ATOM     12  C   UNL     1      -0.406  -3.741   1.774  0.00  0.00    +0.023 A 
ATOM     13  C   UNL     1       0.101  -3.928   0.493  0.00  0.00    +0.035 A 
ATOM     14  C   UNL     1       0.458  -2.832  -0.278  0.00  0.00    +0.036 A 
ATOM     15  C   UNL     1       0.301  -1.544   0.234  0.00  0.00    +0.041 A 
BRANCH  15  16
ATOM     16  C   UNL     1       0.674  -0.370  -0.584  0.00  0.00    +0.242 C 
ATOM     17  O   UNL     1       0.586   0.748  -0.117  0.00  0.00    -0.270 OA
ATOM     18  N   UNL     1       1.111  -0.541  -1.848  0.00  0.00    -0.325 N 
ATOM     19  H   UNL     1       1.181  -1.434  -2.221  0.00  0.00    +0.145 HD
ATOM     20  H   UNL     1       1.356   0.229  -2.384  0.00  0.00    +0.145 HD
ENDBRANCH  15  16
ENDBRANCH   5  13
ENDBRANCH   1   6
BRANCH   3  21
ATOM     21  C   UNL     1       0.532  -8.353  -3.773  0.00  0.00    +0.089 C 
BRANCH  21  22
ATOM     22  C   UNL     1       0.453  -8.300  -5.300  0.00  0.00    -0.049 C 
BRANCH  22  23
ATOM     23  N   UNL     1       1.625  -7.588  -5.827  0.00  0.00    +0.383 N 
ATOM     24  C   UNL     1       2.845  -8.261  -5.340  0.00  0.00    -0.078 C 
ATOM     25  C   UNL     1       3.967  -7.960  -6.301  0.00  0.00    -0.019 C 
ATOM     26  C   UNL     1       4.817  -6.769  -5.821  0.00  0.00    -0.002 C 
ATOM     27  C   UNL     1       3.943  -5.642  -5.234  0.00  0.00    -0.002 C 
ATOM     28  C   UNL     1       2.692  -5.407  -6.041  0.00  0.00    -0.019 C 
ATOM     29  C   UNL     1       1.543  -6.247  -5.446  0.00  0.00    -0.078 C 
ATOM     30  H   UNL     1       1.609  -7.641  -6.834  0.00  0.00    -0.081 HD
ENDBRANCH  22  23
BRANCH  22  31
ATOM     31  C   UNL     1       0.427  -9.724  -5.859  0.00  0.00    -0.029 C 
ATOM     32  C   UNL     1      -0.874 -10.413  -5.439  0.00  0.00    +0.005 C 
ATOM     33  C   UNL     1       0.507  -9.674  -7.386  0.00  0.00    +0.005 C 
ENDBRANCH  22  31
ENDBRANCH  21  22
ENDBRANCH   3  21
TORSDOF 7
