REMARK  Name = ZINC66803271
REMARK  4 active torsions:
REMARK  status: ('A' for Active; 'I' for Inactive)
REMARK    1  A    between atoms: C_1  and  C_2
REMARK    2  A    between atoms: C_5  and  C_7
REMARK    3  A    between atoms: N_9  and  C_10
REMARK    4  A    between atoms: C_13  and  C_16
REMARK                            x       y       z     vdW  Elec       q    Type
REMARK                         _______ _______ _______ _____ _____    ______ ____
ROOT
ATOM      1  C   UNL     1       3.006  -5.369   0.046  0.00  0.00    +0.034 A 
ATOM      2  C   UNL     1       2.219  -6.513  -0.031  0.00  0.00    +0.024 A 
ATOM      3  C   UNL     1       2.801  -7.759   0.048  0.00  0.00    +0.013 A 
ATOM      4  C   UNL     1       4.184  -7.873   0.205  0.00  0.00    +0.019 A 
ATOM      5  C   UNL     1       4.972  -6.723   0.281  0.00  0.00    +0.013 A 
ATOM      6  C   UNL     1       4.384  -5.480   0.197  0.00  0.00    +0.024 A 
ENDROOT
BRANCH   4   7
ATOM      7  C   UNL     1       4.812  -9.209   0.290  0.00  0.00    +0.164 A 
ATOM      8  N   UNL     1       6.018  -9.483   0.746  0.00  0.00    -0.129 NA
ATOM      9  N   UNL     1       6.234 -10.752   0.673  0.00  0.00    -0.134 NA
ATOM     10  C   UNL     1       5.194 -11.349   0.175  0.00  0.00    +0.134 A 
ATOM     11  N   UNL     1       4.255 -10.393  -0.081  0.00  0.00    -0.311 N 
ATOM     12  C   UNL     1       2.933 -10.651  -0.648  0.00  0.00    +0.125 C 
ATOM     13  C   UNL     1       2.933 -12.047  -1.282  0.00  0.00    +0.022 C 
ATOM     14  C   UNL     1       3.486 -13.066  -0.282  0.00  0.00    +0.009 C 
ATOM     15  C   UNL     1       4.991 -12.820  -0.091  0.00  0.00    +0.076 C 
ENDBRANCH   4   7
BRANCH   1  18
ATOM     16  C   UNL     1       1.199  -3.898   0.512  0.00  0.00    +0.255 C 
ATOM     17  O   UNL     1       0.583  -4.827   1.001  0.00  0.00    -0.269 OA
ATOM     18  N   UNL     1       2.413  -4.108  -0.034  0.00  0.00    -0.281 N 
ATOM     19  H   UNL     1       2.875  -3.382  -0.482  0.00  0.00    +0.155 HD
BRANCH  16  24
ATOM     20  C   UNL     1      -0.047   1.490   0.010  0.00  0.00    +0.051 C 
ATOM     21  C   UNL     1       0.043   0.009   0.271  0.00  0.00    -0.013 A 
ATOM     22  C   UNL     1      -0.872  -0.787   0.877  0.00  0.00    +0.011 A 
ATOM     23  C   UNL     1      -0.601  -2.127   1.021  0.00  0.00    +0.021 A 
ATOM     24  C   UNL     1       0.620  -2.552   0.516  0.00  0.00    +0.074 A 
ATOM     25  S   UNL     1       1.297  -1.035  -0.130  0.00  0.00    -0.089 S 
ENDBRANCH  16  24
ENDBRANCH   1  18
TORSDOF 3
