REMARK  Name = ZINC03659349
REMARK  9 active torsions:
REMARK  status: ('A' for Active; 'I' for Inactive)
REMARK    1  A    between atoms: C_1  and  C_2
REMARK    2  A    between atoms: C_4  and  C_18
REMARK    3  A    between atoms: C_5  and  C_17
REMARK    4  A    between atoms: N_6  and  C_7
REMARK    5  A    between atoms: C_12  and  C_13
REMARK    6  A    between atoms: C_13  and  O_15
REMARK    7  A    between atoms: O_15  and  C_16
REMARK    8  A    between atoms: N_22  and  C_26
REMARK    9  A    between atoms: C_26  and  C_27
REMARK                            x       y       z     vdW  Elec       q    Type
REMARK                         _______ _______ _______ _____ _____    ______ ____
ROOT
ATOM      1  C   UNL     1       2.652  -0.078   2.739  0.00  0.00    +0.064 C 
ATOM      2  C   UNL     1       3.070   0.000   1.293  0.00  0.00    +0.022 A 
ATOM      3  C   UNL     1       4.225  -0.467   0.790  0.00  0.00    +0.031 A 
ATOM      4  C   UNL     1       4.207  -0.169  -0.648  0.00  0.00    -0.002 A 
ATOM      5  C   UNL     1       3.004   0.464  -0.892  0.00  0.00    +0.028 A 
ATOM      6  N   UNL     1       2.332   0.555   0.285  0.00  0.00    -0.316 N 
ATOM      7  C   UNL     1       2.522   0.966  -2.228  0.00  0.00    +0.064 C 
ENDROOT
BRANCH   4   8
ATOM      8  C   UNL     1       5.253  -0.482  -1.627  0.00  0.00    +0.038 C 
ATOM      9  C   UNL     1       6.561  -0.438  -1.261  0.00  0.00    +0.098 C 
ATOM     10  C   UNL     1       7.115   0.051   0.006  0.00  0.00    +0.269 C 
ATOM     11  O   UNL     1       6.493   0.503   0.950  0.00  0.00    -0.268 OA
ATOM     12  N   UNL     1       8.452  -0.102  -0.083  0.00  0.00    -0.216 N 
ATOM     13  C   UNL     1       8.772  -0.627  -1.275  0.00  0.00    +0.313 C 
ATOM     14  O   UNL     1       9.907  -0.872  -1.638  0.00  0.00    -0.252 OA
ATOM     15  N   UNL     1       7.671  -0.845  -2.017  0.00  0.00    -0.265 N 
ATOM     16  H   UNL     1       7.649  -1.218  -2.912  0.00  0.00    +0.157 HD
BRANCH  12  17
ATOM     17  C   UNL     1       9.412   0.256   0.965  0.00  0.00    +0.156 C 
BRANCH  17  18
ATOM     18  C   UNL     1       9.850   1.685   0.777  0.00  0.00    +0.006 A 
ATOM     19  C   UNL     1      11.062   1.964   0.175  0.00  0.00    +0.008 A 
ATOM     20  C   UNL     1      11.461   3.276  -0.002  0.00  0.00    +0.000 A 
ATOM     21  C   UNL     1      10.653   4.310   0.434  0.00  0.00    +0.003 A 
ATOM     22  C   UNL     1       9.444   4.034   1.042  0.00  0.00    +0.038 A 
ATOM     23  C   UNL     1       9.040   2.720   1.214  0.00  0.00    +0.128 A 
ATOM     24  F   UNL     1       7.857   2.449   1.808  0.00  0.00    -0.205 F 
ENDBRANCH  17  18
ENDBRANCH  12  17
ENDBRANCH   4   8
BRANCH   6  25
ATOM     25  C   UNL     1       1.072   1.136   0.442  0.00  0.00    +0.061 A 
ATOM     26  C   UNL     1      -0.073   0.364   0.308  0.00  0.00    +0.027 A 
ATOM     27  C   UNL     1      -1.318   0.941   0.458  0.00  0.00    +0.002 A 
ATOM     28  C   UNL     1      -1.435   2.290   0.754  0.00  0.00    +0.001 A 
ATOM     29  C   UNL     1      -0.308   3.072   0.891  0.00  0.00    +0.017 A 
ATOM     30  C   UNL     1       0.958   2.502   0.737  0.00  0.00    +0.083 A 
BRANCH  30  31
ATOM     31  C   UNL     1       2.168   3.333   0.882  0.00  0.00    +0.341 C 
ATOM     32  O   UNL     1       3.267   2.834   0.746  0.00  0.00    -0.245 OA
BRANCH  31  33
ATOM     33  O   UNL     1       2.054   4.646   1.165  0.00  0.00    -0.464 OA
ATOM     34  C   UNL     1       3.286   5.402   1.293  0.00  0.00    +0.280 C 
ENDBRANCH  31  33
ENDBRANCH  30  31
ENDBRANCH   6  25
TORSDOF 6
