REMARK  Name = ZINC00622042
REMARK  8 active torsions:
REMARK  status: ('A' for Active; 'I' for Inactive)
REMARK    1  A    between atoms: C_13  and  C_14
REMARK    2  A    between atoms: C_14  and  O_15
REMARK    3  A    between atoms: O_15  and  C_16
REMARK    4  A    between atoms: N_18  and  CA_19
REMARK    5  A    between atoms: CA_19  and  CB_21
REMARK    6  A    between atoms: CA_19  and  C_29
REMARK    7  A    between atoms: CB_21  and  CG_22
REMARK    8  A    between atoms: CZ_25  and  OH_28
REMARK                            x       y       z     vdW  Elec       q    Type
REMARK                         _______ _______ _______ _____ _____    ______ ____
ROOT
ATOM      1  C   UNK A   0      -2.458   6.475   2.278  0.00  0.00    +0.401 C 
ATOM      2  O   UNK A   0      -1.842   6.950   3.211  0.00  0.00    -0.226 OA
ATOM      3  N   TYR A   1      -3.806   6.482   2.287  0.00  0.00    -0.267 N 
ATOM      4  H   TYR A   1      -4.299   6.103   1.543  0.00  0.00    +0.153 HD
ENDROOT
BRANCH   1   5
ATOM      5  O   UNK A   0      -1.796   5.942   1.234  0.00  0.00    -0.449 OA
BRANCH   5   6
ATOM      6  C   UNK A   0      -0.345   5.969   1.292  0.00  0.00    +0.246 C 
BRANCH   6  19
ATOM      7  C   UNK A   0      -0.013   1.076   0.008  0.00  0.00    +0.001 A 
ATOM      8  C   UNK A   0      -1.221   1.748   0.017  0.00  0.00    +0.000 A 
ATOM      9  C   UNK A   0      -1.246   3.132   0.030  0.00  0.00    +0.005 A 
ATOM     10  C   UNK A   0      -0.064   3.843   0.023  0.00  0.00    -0.029 A 
ATOM     11  C   UNK A   0       1.157   3.175   0.008  0.00  0.00    -0.014 A 
ATOM     12  C   UNK A   0       1.174   1.779   0.000  0.00  0.00    +0.009 A 
ATOM     13  C   UNK A   0       2.262   4.166   0.002  0.00  0.00    -0.014 A 
ATOM     14  C   UNK A   0       3.648   3.998  -0.013  0.00  0.00    +0.009 A 
ATOM     15  C   UNK A   0       4.476   5.101  -0.015  0.00  0.00    +0.001 A 
ATOM     16  C   UNK A   0       3.938   6.376  -0.003  0.00  0.00    +0.000 A 
ATOM     17  C   UNK A   0       2.566   6.550   0.011  0.00  0.00    +0.005 A 
ATOM     18  C   UNK A   0       1.731   5.452   0.014  0.00  0.00    -0.029 A 
ATOM     19  C   UNK A   0       0.227   5.323   0.028  0.00  0.00    +0.088 C 
ENDBRANCH   6  19
ENDBRANCH   5   6
ENDBRANCH   1   5
BRANCH   3  20
ATOM     20  CA  TYR A   1      -4.528   7.063   3.423  0.00  0.00    +0.193 C 
BRANCH  20  21
ATOM     21  C   TYR A   1      -4.665   8.550   3.223  0.00  0.00    +0.376 C 
ATOM     22  O   TYR A   1      -4.207   9.072   2.234  0.00  0.00    -0.244 OA
ATOM     23  OXT TYR A   1      -5.296   9.296   4.144  0.00  0.00    -0.244 OA
ENDBRANCH  20  21
BRANCH  20  24
ATOM     24  CB  TYR A   1      -5.918   6.431   3.521  0.00  0.00    +0.069 C 
BRANCH  24  25
ATOM     25  CG  TYR A   1      -5.781   4.965   3.842  0.00  0.00    -0.045 A 
ATOM     26  CD2 TYR A   1      -5.692   4.039   2.819  0.00  0.00    +0.007 A 
ATOM     27  CE2 TYR A   1      -5.561   2.695   3.111  0.00  0.00    +0.045 A 
ATOM     28  CZ  TYR A   1      -5.530   2.274   4.433  0.00  0.00    +0.117 A 
ATOM     29  CE1 TYR A   1      -5.626   3.204   5.458  0.00  0.00    +0.045 A 
ATOM     30  CD1 TYR A   1      -5.751   4.547   5.160  0.00  0.00    +0.007 A 
BRANCH  28  31
ATOM     31  OH  TYR A   1      -5.407   0.952   4.723  0.00  0.00    -0.507 OA
ATOM     32  HH  TYR A   1      -6.251   0.486   4.800  0.00  0.00    +0.292 HD
ENDBRANCH  28  31
ENDBRANCH  24  25
ENDBRANCH  20  24
ENDBRANCH   3  20
TORSDOF 8
