REMARK  Name = ZINC26949972
REMARK  6 active torsions:
REMARK  status: ('A' for Active; 'I' for Inactive)
REMARK    1  A    between atoms: C_1  and  C_2
REMARK    2  A    between atoms: N_8  and  N_9
REMARK    3  A    between atoms: C_12  and  C_17
REMARK    4  A    between atoms: N_19  and  C_20
REMARK    5  A    between atoms: C_20  and  C_22
REMARK    6  A    between atoms: C_20  and  O_26
REMARK                            x       y       z     vdW  Elec       q    Type
REMARK                         _______ _______ _______ _____ _____    ______ ____
ROOT
ATOM      1  C   UNL     1      -0.417   7.213   1.199  0.00  0.00    +0.088 C 
ATOM      2  C   UNL     1      -0.501   6.322   2.412  0.00  0.00    +0.133 A 
ATOM      3  N   UNL     1      -0.859   6.830   3.579  0.00  0.00    -0.200 NA
ATOM      4  C   UNL     1      -0.934   6.047   4.652  0.00  0.00    +0.222 A 
ATOM      5  N   UNL     1      -0.654   4.753   4.549  0.00  0.00    -0.180 NA
ATOM      6  C   UNL     1      -0.290   4.247   3.376  0.00  0.00    +0.237 A 
ATOM      7  N   UNL     1      -0.217   5.036   2.306  0.00  0.00    -0.199 NA
ATOM      8  N   UNL     1       0.006   2.904   3.264  0.00  0.00    -0.225 N 
ATOM      9  N   UNL     1      -1.308   6.578   5.870  0.00  0.00    -0.285 N 
ATOM     10  H   UNL     1      -0.054   2.252   4.148  0.00  0.00    +0.174 HD
ATOM     11  H   UNL     1      -1.370   5.931   6.757  0.00  0.00    +0.151 HD
ENDROOT
BRANCH   8  12
ATOM     12  N   UNL     1       0.385   2.370   2.025  0.00  0.00    -0.191 N 
ATOM     13  C   UNL     1      -0.509   1.624   1.341  0.00  0.00    +0.126 C 
ATOM     14  N   UNL     1      -1.699   1.384   1.787  0.00  0.00    -0.287 NA
ATOM     15  C   UNL     1      -0.013   1.086   0.008  0.00  0.00    +0.132 C 
ATOM     16  S   UNL     1       1.689   1.775  -0.004  0.00  0.00    -0.089 S 
ATOM     17  C   UNL     1       1.624   2.622   1.566  0.00  0.00    +0.132 C 
ATOM     18  S   UNL     1       2.856   3.543   2.317  0.00  0.00    -0.026 S 
ATOM     19  H   UNL     1      -2.015   1.794   2.757  0.00  0.00    +0.188 HD
BRANCH  15  20
ATOM     20  C   UNL     1      -0.842   1.632  -1.156  0.00  0.00    +0.130 C 
ATOM     21 CL   UNL     1      -0.141   1.057  -2.715  0.00  0.00    -0.124 Cl
ENDBRANCH  15  20
ENDBRANCH   8  12
BRANCH   9  22
ATOM     22  C   UNL     1      -1.622   8.005   5.981  0.00  0.00    +0.254 C 
BRANCH  22  23
ATOM     23  C   UNL     1      -2.748   8.201   6.999  0.00  0.00    +0.232 C 
ATOM     24 CL   UNL     1      -3.134   9.957   7.136  0.00  0.00    -0.079 Cl
ATOM     25 CL   UNL     1      -4.213   7.304   6.454  0.00  0.00    -0.079 Cl
ATOM     26 CL   UNL     1      -2.221   7.574   8.605  0.00  0.00    -0.079 Cl
ENDBRANCH  22  23
BRANCH  22  27
ATOM     27  O   UNL     1      -0.460   8.716   6.413  0.00  0.00    -0.370 OA
ATOM     28  H   UNL     1      -0.503   9.806   6.554  0.00  0.00    +0.212 HD
ENDBRANCH  22  27
ENDBRANCH   9  22
TORSDOF 5
