REMARK  Name = ZINC08962084
REMARK  5 active torsions:
REMARK  status: ('A' for Active; 'I' for Inactive)
REMARK    1  A    between atoms: C_1  and  C_2
REMARK    2  A    between atoms: C_2  and  C_3
REMARK    3  A    between atoms: C_10  and  N_16
REMARK    4  A    between atoms: N_16  and  S_17
REMARK    5  A    between atoms: S_17  and  C_20
REMARK                            x       y       z     vdW  Elec       q    Type
REMARK                         _______ _______ _______ _____ _____    ______ ____
ROOT
ATOM      1  C   UNL     1      -0.318  -3.923   4.431  0.00  0.00    +0.110 C 
ATOM      2  C   UNL     1      -1.197  -4.036   3.193  0.00  0.00    +0.251 C 
ATOM      3  O   UNL     1      -0.436  -3.920   1.997  0.00  0.00    -0.489 OA
ATOM      4  C   UNL     1       0.495  -2.933   1.948  0.00  0.00    +0.133 A 
ATOM      5  C   UNL     1       0.284  -1.793   1.190  0.00  0.00    +0.048 A 
ATOM      6  C   UNL     1       1.237  -0.794   1.165  0.00  0.00    +0.028 A 
ATOM      7  C   UNL     1       2.417  -0.927   1.889  0.00  0.00    +0.049 A 
ATOM      8  C   UNL     1       2.643  -2.063   2.650  0.00  0.00    +0.041 A 
ATOM      9  C   UNL     1       1.683  -3.072   2.683  0.00  0.00    +0.080 A 
ATOM     10  C   UNL     1       1.892  -4.298   3.477  0.00  0.00    +0.248 C 
ATOM     11  O   UNL     1       2.942  -4.908   3.409  0.00  0.00    -0.270 OA
ATOM     12  N   UNL     1       0.894  -4.731   4.284  0.00  0.00    -0.305 N 
ATOM     13  H   UNL     1       0.981  -5.571   4.760  0.00  0.00    +0.149 HD
ENDROOT
BRANCH   1  15
ATOM     14  C   UNL     1       1.002  -2.345   5.849  0.00  0.00    +0.006 C 
ATOM     15  C   UNL     1       0.076  -2.459   4.636  0.00  0.00    +0.022 C 
ENDBRANCH   1  15
BRANCH   7  16
ATOM     16  N   UNL     1       3.378   0.090   1.853  0.00  0.00    -0.216 N 
ATOM     17  H   UNL     1       3.789   0.399   2.675  0.00  0.00    +0.174 HD
BRANCH  16  18
ATOM     18  S   UNL     1       3.811   0.768   0.405  0.00  0.00    +0.075 S 
ATOM     19  O   UNL     1       4.865   1.679   0.683  0.00  0.00    -0.150 OA
ATOM     20  O   UNL     1       2.607   1.168  -0.233  0.00  0.00    -0.150 OA
BRANCH  18  21
ATOM     21  C   UNL     1       4.503  -0.516  -0.584  0.00  0.00    +0.143 A 
ATOM     22  C   UNL     1       3.863  -0.918  -1.741  0.00  0.00    +0.032 A 
ATOM     23  C   UNL     1       4.406  -1.924  -2.518  0.00  0.00    +0.002 A 
ATOM     24  C   UNL     1       5.590  -2.530  -2.139  0.00  0.00    +0.003 A 
ATOM     25  C   UNL     1       6.234  -2.126  -0.985  0.00  0.00    +0.040 A 
ATOM     26  C   UNL     1       5.688  -1.121  -0.203  0.00  0.00    +0.150 A 
ATOM     27  F   UNL     1       6.315  -0.729   0.927  0.00  0.00    -0.203 F 
ENDBRANCH  18  21
ENDBRANCH  16  18
ENDBRANCH   7  16
TORSDOF 4
