REMARK  Name = ZINC50032839
REMARK  6 active torsions:
REMARK  status: ('A' for Active; 'I' for Inactive)
REMARK    1  A    between atoms: C_1  and  C_2
REMARK    2  A    between atoms: C_8  and  N_10
REMARK    3  A    between atoms: N_10  and  C_11
REMARK    4  A    between atoms: N_10  and  C_12
REMARK    5  A    between atoms: C_14  and  C_20
REMARK    6  A    between atoms: C_15  and  N_19
REMARK                            x       y       z     vdW  Elec       q    Type
REMARK                         _______ _______ _______ _____ _____    ______ ____
ROOT
ATOM      1  C   UNL     1       2.607   0.730   2.579  0.00  0.00    +0.066 A 
ATOM      2  C   UNL     1       3.178  -0.009   3.599  0.00  0.00    +0.041 A 
ATOM      3  C   UNL     1       3.595   0.629   4.771  0.00  0.00    +0.059 A 
ATOM      4  C   UNL     1       3.430   2.016   4.905  0.00  0.00    +0.040 A 
ATOM      5  C   UNL     1       2.855   2.745   3.873  0.00  0.00    +0.063 A 
ATOM      6  C   UNL     1       2.451   2.108   2.715  0.00  0.00    +0.146 A 
ATOM      7  F   UNL     1       1.898   2.824   1.712  0.00  0.00    -0.203 F 
ENDROOT
BRANCH   3   8
ATOM      8  C   UNL     1       4.203  -0.152   5.862  0.00  0.00    +0.243 C 
ATOM      9  O   UNL     1       4.649   0.415   6.841  0.00  0.00    -0.270 OA
ATOM     10  N   UNL     1       4.265  -1.496   5.775  0.00  0.00    -0.325 N 
ATOM     11  H   UNL     1       3.909  -1.949   4.995  0.00  0.00    +0.145 HD
ATOM     12  H   UNL     1       4.666  -2.010   6.494  0.00  0.00    +0.145 HD
ENDBRANCH   3   8
BRANCH   4  13
ATOM     13  N   UNL     1       3.841   2.659   6.068  0.00  0.00    -0.357 N 
ATOM     14  H   UNL     1       4.359   2.177   6.732  0.00  0.00    +0.142 HD
ATOM     15  H   UNL     1       3.610   3.589   6.216  0.00  0.00    +0.142 HD
ENDBRANCH   4  13
BRANCH   1  16
ATOM     16  N   UNL     1       2.190   0.092   1.403  0.00  0.00    -0.327 N 
ATOM     17  C   UNL     1       3.129  -0.086   0.293  0.00  0.00    +0.129 C 
BRANCH  16  24
ATOM     18  C   UNL     1       1.563  -2.676   1.984  0.00  0.00    +0.009 C 
ATOM     19  C   UNL     1       0.589  -1.534   2.282  0.00  0.00    +0.006 C 
ATOM     20  C   UNL     1      -0.848  -2.045   2.158  0.00  0.00    +0.005 C 
ATOM     21  C   UNL     1      -1.823  -0.904   2.456  0.00  0.00    +0.000 C 
ATOM     22  C   UNL     1      -1.597   0.233   1.457  0.00  0.00    +0.002 C 
ATOM     23  C   UNL     1      -0.160   0.744   1.582  0.00  0.00    +0.023 C 
ATOM     24  C   UNL     1       0.814  -0.397   1.284  0.00  0.00    +0.076 C 
ENDBRANCH  16  24
ENDBRANCH   1  16
TORSDOF 4
