REMARK  Name = ZINC09167178
REMARK  9 active torsions:
REMARK  status: ('A' for Active; 'I' for Inactive)
REMARK    1  A    between atoms: C_1  and  C_2
REMARK    2  A    between atoms: N_4  and  C_5
REMARK    3  A    between atoms: C_8  and  S_12
REMARK    4  A    between atoms: S_12  and  N_15
REMARK    5  A    between atoms: N_15  and  C_16
REMARK    6  A    between atoms: C_24  and  C_31
REMARK    7  A    between atoms: C_24  and  C_32
REMARK    8  A    between atoms: N_27  and  C_28
REMARK    9  A    between atoms: C_28  and  C_29
REMARK                            x       y       z     vdW  Elec       q    Type
REMARK                         _______ _______ _______ _____ _____    ______ ____
ROOT
ATOM      1  N   UNL     1      -0.904  -1.211  -0.433  0.00  0.00    -0.216 N 
ATOM      2  H   UNL     1      -0.881  -2.040   0.071  0.00  0.00    +0.174 HD
ENDROOT
BRANCH   1   3
ATOM      3  C   UNL     1       0.196  -0.348  -0.410  0.00  0.00    +0.052 A 
ATOM      4  C   UNL     1       0.002   1.018  -0.243  0.00  0.00    +0.026 A 
ATOM      5  C   UNL     1       1.087   1.874  -0.218  0.00  0.00    +0.029 A 
ATOM      6  C   UNL     1       2.369   1.369  -0.359  0.00  0.00    +0.079 A 
ATOM      7  C   UNL     1       2.568   0.000  -0.530  0.00  0.00    +0.144 A 
ATOM      8  C   UNL     1       1.480  -0.856  -0.553  0.00  0.00    +0.072 A 
ATOM      9  O   UNL     1       3.829  -0.485  -0.679  0.00  0.00    -0.489 OA
ATOM     10  C   UNL     1       4.462  -0.277  -1.939  0.00  0.00    +0.244 C 
ATOM     11  C   UNL     1       4.226   1.151  -2.427  0.00  0.00    +0.076 C 
ATOM     12  C   UNL     1       4.422   2.124  -1.293  0.00  0.00    +0.229 C 
ATOM     13  O   UNL     1       5.421   2.811  -1.246  0.00  0.00    -0.275 OA
ATOM     14  N   UNL     1       3.481   2.227  -0.329  0.00  0.00    -0.264 N 
ATOM     15  C   UNL     1       2.797   1.275  -2.960  0.00  0.00    +0.024 C 
ATOM     16  C   UNL     1       5.216   1.471  -3.548  0.00  0.00    +0.024 C 
BRANCH  14  17
ATOM     17  C   UNL     1       3.619   3.222   0.737  0.00  0.00    +0.140 C 
BRANCH  17  18
ATOM     18  C   UNL     1       4.373   2.619   1.894  0.00  0.00    -0.015 C 
ATOM     19  C   UNL     1       5.452   3.206   2.349  0.00  0.00    +0.005 C 
ENDBRANCH  17  18
ENDBRANCH  14  17
ENDBRANCH   1   3
BRANCH   1  20
ATOM     20  S   UNL     1      -2.245  -0.820  -1.323  0.00  0.00    +0.072 S 
ATOM     21  O   UNL     1      -3.163  -1.893  -1.167  0.00  0.00    -0.150 OA
ATOM     22  O   UNL     1      -2.576   0.521  -0.989  0.00  0.00    -0.150 OA
BRANCH  20  26
ATOM     23  C   UNL     1      -1.002  -0.798  -5.679  0.00  0.00    +0.069 A 
ATOM     24  C   UNL     1      -0.911   0.363  -4.923  0.00  0.00    +0.028 A 
ATOM     25  C   UNL     1      -1.296   0.354  -3.597  0.00  0.00    +0.031 A 
ATOM     26  C   UNL     1      -1.762  -0.812  -3.018  0.00  0.00    +0.111 A 
ATOM     27  C   UNL     1      -1.855  -1.971  -3.766  0.00  0.00    +0.069 A 
ATOM     28  C   UNL     1      -1.476  -1.968  -5.097  0.00  0.00    +0.146 A 
ATOM     29  F   UNL     1      -1.567  -3.100  -5.829  0.00  0.00    -0.203 F 
BRANCH  23  33
ATOM     30  C   UNL     1      -0.386   0.332  -9.218  0.00  0.00    +0.109 C 
ATOM     31  C   UNL     1      -0.702   0.347  -7.745  0.00  0.00    +0.214 C 
ATOM     32  O   UNL     1      -1.032   1.382  -7.205  0.00  0.00    -0.276 OA
ATOM     33  N   UNL     1      -0.618  -0.790  -7.026  0.00  0.00    -0.283 N 
ATOM     34  H   UNL     1      -0.291  -1.603  -7.442  0.00  0.00    +0.155 HD
ENDBRANCH  23  33
ENDBRANCH  20  26
ENDBRANCH   1  20
TORSDOF 6
