REMARK  Name = ZINC08791194
REMARK  6 active torsions:
REMARK  status: ('A' for Active; 'I' for Inactive)
REMARK    1  A    between atoms: C_1  and  C_2
REMARK    2  A    between atoms: C_16  and  C_18
REMARK    3  A    between atoms: C_18  and  C_19
REMARK    4  A    between atoms: N_24  and  C_27
REMARK    5  A    between atoms: C_27  and  C_28
REMARK    6  A    between atoms: C_28  and  C_29
REMARK                            x       y       z     vdW  Elec       q    Type
REMARK                         _______ _______ _______ _____ _____    ______ ____
ROOT
ATOM      1  C   UNL     1       2.502  -7.598  -2.251  0.00  0.00    +0.046 C 
ATOM      2  C   UNL     1       1.888  -6.668  -1.238  0.00  0.00    -0.028 A 
ATOM      3  C   UNL     1       2.323  -6.694   0.072  0.00  0.00    +0.025 A 
ATOM      4  C   UNL     1       1.765  -5.843   1.010  0.00  0.00    +0.042 A 
ATOM      5  C   UNL     1       0.765  -4.962   0.632  0.00  0.00    +0.024 A 
ATOM      6  C   UNL     1       0.329  -4.934  -0.673  0.00  0.00    -0.026 A 
ATOM      7  C   UNL     1       0.884  -5.784  -1.625  0.00  0.00    +0.039 A 
ATOM      8  N   UNL     1       0.286  -5.572  -2.870  0.00  0.00    -0.286 N 
ATOM      9  C   UNL     1      -0.658  -4.612  -2.822  0.00  0.00    +0.211 C 
ATOM     10  O   UNL     1      -1.336  -4.217  -3.747  0.00  0.00    -0.277 OA
ATOM     11  C   UNL     1      -0.708  -4.125  -1.400  0.00  0.00    +0.050 C 
ATOM     12  C   UNL     1      -2.102  -4.319  -0.791  0.00  0.00    +0.088 C 
ATOM     13  C   UNL     1      -2.300  -3.085   0.134  0.00  0.00    +0.073 C 
ATOM     14  C   UNL     1      -0.993  -2.276  -0.001  0.00  0.00    -0.049 C 
ATOM     15  C   UNL     1      -3.431  -2.321  -0.515  0.00  0.00    +0.224 C 
ATOM     16  O   UNL     1      -3.897  -1.279  -0.106  0.00  0.00    -0.275 OA
ATOM     17  N   UNL     1      -3.837  -2.972  -1.611  0.00  0.00    -0.241 N 
ATOM     18  C   UNL     1      -3.167  -4.102  -1.866  0.00  0.00    +0.225 C 
ATOM     19  O   UNL     1      -3.375  -4.843  -2.802  0.00  0.00    -0.275 OA
ATOM     20 CL   UNL     1       2.317  -5.879   2.655  0.00  0.00    -0.084 Cl
ATOM     21  H   UNL     1       0.522  -6.060  -3.674  0.00  0.00    +0.155 HD
ATOM     22  N   UNL     1      -0.443  -2.701  -1.290  0.00  0.00    +0.394 N 
ATOM     23  H   UNL     1      -0.902  -2.195  -2.056  0.00  0.00    -0.083 HD
ATOM     24  H   UNL     1       0.568  -2.525  -1.320  0.00  0.00    -0.083 HD
ENDROOT
BRANCH  14  25
ATOM     25  C   UNL     1      -1.293  -0.775   0.010  0.00  0.00    +0.080 C 
BRANCH  25  26
ATOM     26  C   UNL     1       0.002  -0.004   0.002  0.00  0.00    +0.209 C 
ATOM     27  O   UNL     1       1.060  -0.596  -0.011  0.00  0.00    -0.276 OA
ATOM     28  N   UNL     1      -0.016   1.344   0.009  0.00  0.00    -0.329 N 
ATOM     29  H   UNL     1       0.817   1.840   0.004  0.00  0.00    +0.145 HD
ATOM     30  H   UNL     1      -0.863   1.817   0.016  0.00  0.00    +0.145 HD
ENDBRANCH  25  26
ENDBRANCH  14  25
BRANCH  17  31
ATOM     31  C   UNL     1      -4.926  -2.488  -2.463  0.00  0.00    +0.121 C 
BRANCH  31  32
ATOM     32  C   UNL     1      -4.355  -1.577  -3.552  0.00  0.00    +0.054 C 
BRANCH  32  33
ATOM     33  C   UNL     1      -5.476  -1.078  -4.428  0.00  0.00    -0.046 A 
ATOM     34  C   UNL     1      -5.845  -1.794  -5.551  0.00  0.00    +0.004 A 
ATOM     35  C   UNL     1      -6.876  -1.339  -6.352  0.00  0.00    +0.000 A 
ATOM     36  C   UNL     1      -7.530  -0.164  -6.035  0.00  0.00    +0.000 A 
ATOM     37  C   UNL     1      -7.158   0.554  -4.914  0.00  0.00    +0.000 A 
ATOM     38  C   UNL     1      -6.130   0.097  -4.111  0.00  0.00    +0.004 A 
ENDBRANCH  32  33
ENDBRANCH  31  32
ENDBRANCH  17  31
TORSDOF 5
