REMARK  Name = ZINC35719738
REMARK  3 active torsions:
REMARK  status: ('A' for Active; 'I' for Inactive)
REMARK    1  A    between atoms: C_5  and  N_7
REMARK    2  A    between atoms: C_14  and  C_19
REMARK    3  A    between atoms: C_19  and  N_20
REMARK                            x       y       z     vdW  Elec       q    Type
REMARK                         _______ _______ _______ _____ _____    ______ ____
ROOT
ATOM      1  N   UNL     1       1.188  -2.082  -0.454  0.00  0.00    -0.326 N 
ATOM      2  C   UNL     1       1.255  -2.739   0.858  0.00  0.00    +0.124 C 
ATOM      3  C   UNL     1       0.086  -3.726   0.971  0.00  0.00    +0.125 C 
ATOM      4  N   UNL     1       0.057  -4.560  -0.238  0.00  0.00    -0.312 N 
ATOM      5  C   UNL     1      -0.009  -3.903  -1.551  0.00  0.00    +0.125 C 
ATOM      6  C   UNL     1       1.154  -2.916  -1.664  0.00  0.00    +0.124 C 
ATOM      7  C   UNL     1       0.092  -5.947  -0.143  0.00  0.00    +0.123 A 
ATOM      8  C   UNL     1      -1.087  -6.653   0.069  0.00  0.00    -0.025 A 
ATOM      9  C   UNL     1      -1.038  -8.032   0.162  0.00  0.00    +0.006 A 
ATOM     10  C   UNL     1       0.195  -8.661   0.040  0.00  0.00    +0.020 A 
ATOM     11  C   UNL     1       1.325  -7.898  -0.169  0.00  0.00    +0.113 A 
ATOM     12  N   UNL     1       1.248  -6.583  -0.259  0.00  0.00    -0.240 NA
ENDROOT
BRANCH   1  17
ATOM     13  C   UNL     1      -0.097   1.357  -0.642  0.00  0.00    +0.002 A 
ATOM     14  C   UNL     1       1.082   2.072  -0.742  0.00  0.00    +0.002 A 
ATOM     15  C   UNL     1       2.297   1.412  -0.747  0.00  0.00    +0.022 A 
ATOM     16  C   UNL     1       2.336   0.034  -0.651  0.00  0.00    +0.062 A 
ATOM     17  C   UNL     1       1.153  -0.688  -0.550  0.00  0.00    +0.048 A 
ATOM     18  C   UNL     1      -0.065  -0.021  -0.546  0.00  0.00    +0.024 A 
ATOM     19 CL   UNL     1       3.862  -0.795  -0.658  0.00  0.00    -0.082 Cl
ENDBRANCH   1  17
BRANCH   8  20
ATOM     20  C   UNL     1      -2.401  -5.926   0.195  0.00  0.00    -0.047 C 
BRANCH  20  21
ATOM     21  N   UNL     1      -2.898  -5.577  -1.142  0.00  0.00    +0.381 N 
ATOM     22  H   UNL     1      -2.193  -5.052  -1.637  0.00  0.00    -0.090 HD
ATOM     23  H   UNL     1      -3.109  -6.421  -1.654  0.00  0.00    -0.090 HD
ATOM     24  H   UNL     1      -3.734  -5.019  -1.055  0.00  0.00    -0.090 HD
ENDBRANCH  20  21
ENDBRANCH   8  20
TORSDOF 3
