REMARK  Name = ZINC39361617
REMARK  6 active torsions:
REMARK  status: ('A' for Active; 'I' for Inactive)
REMARK    1  A    between atoms: C_4  and  N_7
REMARK    2  A    between atoms: C_8  and  C_22
REMARK    3  A    between atoms: C_12  and  S_13
REMARK    4  A    between atoms: S_13  and  C_14
REMARK    5  A    between atoms: C_14  and  C_15
REMARK    6  A    between atoms: C_22  and  C_23
REMARK                            x       y       z     vdW  Elec       q    Type
REMARK                         _______ _______ _______ _____ _____    ______ ____
ROOT
ATOM      1  N   UNL     1       3.620  -0.649  -0.037  0.00  0.00    -0.258 N 
ATOM      2  C   UNL     1       3.817  -2.106   0.050  0.00  0.00    +0.187 C 
ATOM      3  N   UNL     1       5.280  -2.270  -0.013  0.00  0.00    -0.246 N 
ATOM      4  N   UNL     1       5.812  -0.980  -0.127  0.00  0.00    -0.162 NA
ATOM      5  C   UNL     1       4.883  -0.085  -0.145  0.00  0.00    +0.180 C 
ATOM      6  H   UNL     1       5.774  -3.104   0.018  0.00  0.00    +0.170 HD
ENDROOT
BRANCH   1  10
ATOM      7  C   UNL     1      -0.017   1.378   0.012  0.00  0.00    +0.000 A 
ATOM      8  C   UNL     1       0.298   0.551  -1.051  0.00  0.00    +0.002 A 
ATOM      9  C   UNL     1       1.503  -0.123  -1.071  0.00  0.00    +0.023 A 
ATOM     10  C   UNL     1       2.400   0.031  -0.021  0.00  0.00    +0.037 A 
ATOM     11  C   UNL     1       2.081   0.863   1.045  0.00  0.00    +0.023 A 
ATOM     12  C   UNL     1       0.873   1.533   1.058  0.00  0.00    +0.002 A 
ENDBRANCH   1  10
BRANCH   5  13
ATOM     13  S   UNL     1       5.183   1.646  -0.284  0.00  0.00    -0.084 S 
BRANCH  13  14
ATOM     14  C   UNL     1       6.989   1.772  -0.389  0.00  0.00    +0.112 C 
BRANCH  14  15
ATOM     15  C   UNL     1       7.386   3.220  -0.513  0.00  0.00    -0.037 A 
ATOM     16  C   UNL     1       7.498   3.801  -1.762  0.00  0.00    +0.005 A 
ATOM     17  C   UNL     1       7.861   5.130  -1.877  0.00  0.00    +0.015 A 
ATOM     18  C   UNL     1       8.112   5.878  -0.741  0.00  0.00    +0.018 A 
ATOM     19  C   UNL     1       7.999   5.297   0.509  0.00  0.00    +0.015 A 
ATOM     20  C   UNL     1       7.631   3.969   0.623  0.00  0.00    +0.005 A 
ATOM     21 BR   UNL     1       8.609   7.696  -0.897  0.00  0.00    -0.050 Br
ENDBRANCH  14  15
ENDBRANCH  13  14
ENDBRANCH   5  13
BRANCH   2  22
ATOM     22  C   UNL     1       3.271  -2.643   1.374  0.00  0.00    +0.097 C 
BRANCH  22  23
ATOM     23  C   UNL     1       3.484  -4.134   1.438  0.00  0.00    +0.029 A 
ATOM     24  N   UNL     1       2.577  -4.984   0.865  0.00  0.00    -0.311 N 
ATOM     25  C   UNL     1       2.759  -6.316   0.916  0.00  0.00    +0.327 A 
ATOM     26  O   UNL     1       1.941  -7.052   0.400  0.00  0.00    -0.247 OA
ATOM     27  N   UNL     1       3.834  -6.844   1.530  0.00  0.00    -0.275 N 
ATOM     28  C   UNL     1       4.751  -6.041   2.106  0.00  0.00    +0.254 A 
ATOM     29  O   UNL     1       5.724  -6.518   2.662  0.00  0.00    -0.268 OA
ATOM     30  C   UNL     1       4.574  -4.637   2.056  0.00  0.00    +0.091 A 
ATOM     31  H   UNL     1       3.950  -7.807   1.557  0.00  0.00    +0.173 HD
ATOM     32  H   UNL     1       1.796  -4.622   0.418  0.00  0.00    +0.170 HD
ENDBRANCH  22  23
ENDBRANCH   2  22
TORSDOF 6
