REMARK  Name = ZINC36001867
REMARK  9 active torsions:
REMARK  status: ('A' for Active; 'I' for Inactive)
REMARK    1  A    between atoms: C_1  and  C_2
REMARK    2  A    between atoms: C_2  and  C_3
REMARK    3  A    between atoms: C_3  and  N_4
REMARK    4  A    between atoms: N_7  and  C_8
REMARK    5  A    between atoms: N_7  and  C_22
REMARK    6  A    between atoms: C_8  and  C_9
REMARK    7  A    between atoms: C_11  and  C_14
REMARK    8  A    between atoms: C_17  and  C_21
REMARK    9  A    between atoms: C_18  and  C_20
REMARK                            x       y       z     vdW  Elec       q    Type
REMARK                         _______ _______ _______ _____ _____    ______ ____
ROOT
ATOM      1  C   UNL     1      -4.046  -4.629  -1.917  0.00  0.00    +0.101 A 
ATOM      2  C   UNL     1      -3.684  -5.583  -2.880  0.00  0.00    +0.077 A 
ATOM      3  C   UNL     1      -4.081  -5.123  -4.097  0.00  0.00    +0.168 A 
ATOM      4  O   UNL     1      -4.669  -3.926  -3.911  0.00  0.00    -0.354 OA
ATOM      5  N   UNL     1      -4.639  -3.640  -2.525  0.00  0.00    -0.081 NA
ENDROOT
BRANCH   3   6
ATOM      6  C   UNL     1      -3.899  -5.813  -5.392  0.00  0.00    +0.020 A 
ATOM      7  C   UNL     1      -3.273  -7.060  -5.440  0.00  0.00    +0.012 A 
ATOM      8  C   UNL     1      -3.106  -7.698  -6.651  0.00  0.00    +0.004 A 
ATOM      9  C   UNL     1      -3.557  -7.105  -7.817  0.00  0.00    -0.047 A 
ATOM     10  C   UNL     1      -4.178  -5.869  -7.777  0.00  0.00    -0.047 A 
ATOM     11  C   UNL     1      -4.356  -5.223  -6.571  0.00  0.00    +0.015 A 
ATOM     12  C   UNL     1      -4.665  -5.231  -9.052  0.00  0.00    +0.044 C 
ATOM     13  C   UNL     1      -3.370  -7.808  -9.137  0.00  0.00    +0.044 C 
ENDBRANCH   3   6
BRANCH   1  14
ATOM     14  C   UNL     1      -3.797  -4.733  -0.434  0.00  0.00    +0.168 C 
BRANCH  14  18
ATOM     15  N   UNL     1      -1.439  -2.055   0.446  0.00  0.00    -0.299 N 
ATOM     16  C   UNL     1      -2.589  -2.724   0.229  0.00  0.00    +0.303 C 
ATOM     17  O   UNL     1      -3.655  -2.148   0.326  0.00  0.00    -0.253 OA
ATOM     18  N   UNL     1      -2.556  -4.031  -0.097  0.00  0.00    -0.277 N 
ATOM     19  H   UNL     1      -0.594  -2.530   0.446  0.00  0.00    +0.150 HD
BRANCH  18  20
ATOM     20  C   UNL     1      -1.280  -4.751  -0.113  0.00  0.00    +0.078 C 
ATOM     21  C   UNL     1      -1.301  -6.216  -0.554  0.00  0.00    +0.024 C 
ATOM     22  C   UNL     1      -1.083  -5.863   0.919  0.00  0.00    +0.024 C 
ENDBRANCH  18  20
BRANCH  15  23
ATOM     23  C   UNL     1      -1.466  -0.609   0.682  0.00  0.00    +0.105 C 
BRANCH  23  25
ATOM     24  C   UNL     1      -0.068   1.409   1.146  0.00  0.00    +0.005 C 
ATOM     25  C   UNL     1      -0.040  -0.101   0.899  0.00  0.00    +0.015 C 
ENDBRANCH  23  25
ENDBRANCH  15  23
ENDBRANCH  14  18
ENDBRANCH   1  14
TORSDOF 6
