REMARK  Name = ZINC50635350
REMARK  6 active torsions:
REMARK  status: ('A' for Active; 'I' for Inactive)
REMARK    1  A    between atoms: C_2  and  N_20
REMARK    2  A    between atoms: C_5  and  S_8
REMARK    3  A    between atoms: C_6  and  N_7
REMARK    4  A    between atoms: S_8  and  N_11
REMARK    5  A    between atoms: N_11  and  C_12
REMARK    6  A    between atoms: C_12  and  C_13
REMARK                            x       y       z     vdW  Elec       q    Type
REMARK                         _______ _______ _______ _____ _____    ______ ____
ROOT
ATOM      1  C   UNL     1       2.316   1.404   0.415  0.00  0.00    +0.057 A 
ATOM      2  C   UNL     1       1.094   2.045   0.338  0.00  0.00    +0.131 A 
ATOM      3  C   UNL     1      -0.027   1.353  -0.080  0.00  0.00    +0.073 A 
ATOM      4  C   UNL     1       0.070   0.014  -0.423  0.00  0.00    +0.154 A 
ATOM      5  C   UNL     1       1.290  -0.633  -0.347  0.00  0.00    +0.161 A 
ATOM      6  C   UNL     1       2.418   0.062   0.072  0.00  0.00    +0.056 A 
ATOM      7  F   UNL     1      -1.027  -0.660  -0.831  0.00  0.00    -0.203 F 
ENDROOT
BRANCH   6   8
ATOM      8  N   UNL     1       3.651  -0.588   0.149  0.00  0.00    -0.356 N 
ATOM      9  H   UNL     1       4.464  -0.073   0.277  0.00  0.00    +0.142 HD
ATOM     10  H   UNL     1       3.696  -1.554   0.074  0.00  0.00    +0.142 HD
ENDBRANCH   6   8
BRANCH   5  11
ATOM     11  S   UNL     1       1.414  -2.336  -0.781  0.00  0.00    +0.063 S 
ATOM     12  O   UNL     1       0.220  -2.666  -1.478  0.00  0.00    -0.153 OA
ATOM     13  O   UNL     1       2.703  -2.517  -1.351  0.00  0.00    -0.153 OA
BRANCH  11  14
ATOM     14  N   UNL     1       1.394  -3.204   0.629  0.00  0.00    -0.187 NA
ATOM     15  H   UNL     1       2.175  -3.714   0.895  0.00  0.00    +0.148 HD
BRANCH  14  16
ATOM     16  C   UNL     1       0.198  -3.201   1.474  0.00  0.00    +0.137 C 
BRANCH  16  17
ATOM     17  C   UNL     1       0.288  -4.341   2.490  0.00  0.00    +0.134 C 
ATOM     18  C   UNL     1      -0.986  -4.378   3.372  0.00  0.00    +0.035 C 
ATOM     19  C   UNL     1      -0.997  -5.867   3.813  0.00  0.00    +0.031 C 
ATOM     20  C   UNL     1      -0.420  -6.580   2.571  0.00  0.00    +0.160 C 
ATOM     21  O   UNL     1       0.315  -5.609   1.815  0.00  0.00    -0.375 OA
ENDBRANCH  16  17
ENDBRANCH  14  16
ENDBRANCH  11  14
ENDBRANCH   5  11
BRANCH   2  22
ATOM     22  N   UNL     1       0.986   3.475   0.704  0.00  0.00    +0.057 N 
ATOM     23  O   UNL     1       1.966   4.081   1.070  0.00  0.00    -0.126 OA
ATOM     24  O   UNL     1      -0.082   4.037   0.637  0.00  0.00    -0.126 OA
ENDBRANCH   2  22
TORSDOF 6
