REMARK  Name = ZINC43187869
REMARK  6 active torsions:
REMARK  status: ('A' for Active; 'I' for Inactive)
REMARK    1  A    between atoms: C_1  and  C_2
REMARK    2  A    between atoms: C_5  and  N_9
REMARK    3  A    between atoms: N_12  and  C_13
REMARK    4  A    between atoms: N_12  and  C_14
REMARK    5  A    between atoms: C_14  and  C_15
REMARK    6  A    between atoms: C_18  and  C_21
REMARK                            x       y       z     vdW  Elec       q    Type
REMARK                         _______ _______ _______ _____ _____    ______ ____
ROOT
ATOM      1  N   UNL     1       0.059  -4.171  -0.023  0.00  0.00    -0.268 N 
ATOM      2  C   UNL     1      -0.040  -4.839  -1.190  0.00  0.00    +0.307 C 
ATOM      3  O   UNL     1      -0.054  -4.229  -2.241  0.00  0.00    -0.252 OA
ATOM      4  N   UNL     1      -0.124  -6.184  -1.190  0.00  0.00    -0.284 N 
ATOM      5  C   UNL     1      -0.107  -6.920   0.076  0.00  0.00    +0.134 C 
ATOM      6  H   UNL     1       0.135  -4.660   0.811  0.00  0.00    +0.156 HD
ENDROOT
BRANCH   1  11
ATOM      7  C   UNL     1       0.029   1.503   0.005  0.00  0.00    +0.044 C 
ATOM      8  C   UNL     1       0.036  -0.004  -0.002  0.00  0.00    -0.049 A 
ATOM      9  C   UNL     1       0.634  -0.686  -1.046  0.00  0.00    +0.005 A 
ATOM     10  C   UNL     1       0.643  -2.067  -1.056  0.00  0.00    +0.025 A 
ATOM     11  C   UNL     1       0.051  -2.771  -0.016  0.00  0.00    +0.053 A 
ATOM     12  C   UNL     1      -0.548  -2.084   1.033  0.00  0.00    +0.062 A 
ATOM     13  C   UNL     1      -0.549  -0.701   1.039  0.00  0.00    +0.025 A 
ATOM     14 CL   UNL     1      -1.289  -2.959   2.336  0.00  0.00    -0.082 Cl
ENDBRANCH   1  11
BRANCH   4  15
ATOM     15  C   UNL     1      -0.232  -6.911  -2.458  0.00  0.00    +0.144 C 
BRANCH  15  16
ATOM     16  C   UNL     1       1.148  -7.248  -2.963  0.00  0.00    -0.030 A 
ATOM     17  C   UNL     1       1.816  -6.360  -3.787  0.00  0.00    +0.006 A 
ATOM     18  C   UNL     1       3.079  -6.662  -4.253  0.00  0.00    +0.019 A 
ATOM     19  C   UNL     1       3.683  -7.867  -3.889  0.00  0.00    +0.052 A 
ATOM     20  C   UNL     1       3.003  -8.759  -3.057  0.00  0.00    +0.019 A 
ATOM     21  C   UNL     1       1.743  -8.442  -2.595  0.00  0.00    +0.006 A 
BRANCH  19  22
ATOM     22  C   UNL     1       4.994  -8.188  -4.369  0.00  0.00    +0.099 C 
ATOM     23  N   UNL     1       6.033  -8.442  -4.750  0.00  0.00    -0.191 NA
ENDBRANCH  19  22
ENDBRANCH  15  16
ENDBRANCH   4  15
TORSDOF 4
