REMARK  Name = ZINC58893170
REMARK  10 active torsions:
REMARK  status: ('A' for Active; 'I' for Inactive)
REMARK    1  A    between atoms: C_1  and  C_2
REMARK    2  A    between atoms: C_3  and  C_23
REMARK    3  A    between atoms: C_7  and  N_8
REMARK    4  A    between atoms: N_11  and  C_12
REMARK    5  A    between atoms: C_12  and  C_13
REMARK    6  A    between atoms: C_13  and  C_15
REMARK    7  A    between atoms: C_13  and  N_20
REMARK    8  A    between atoms: N_20  and  C_21
REMARK    9  A    between atoms: N_20  and  C_22
REMARK   10  A    between atoms: N_25  and  C_26
REMARK                            x       y       z     vdW  Elec       q    Type
REMARK                         _______ _______ _______ _____ _____    ______ ____
ROOT
ATOM      1  N   UNL     1      -0.136  -0.126   2.331  0.00  0.00    -0.269 N 
ATOM      2  C   UNL     1       0.193  -0.659   3.524  0.00  0.00    +0.304 C 
ATOM      3  O   UNL     1       0.334  -1.862   3.634  0.00  0.00    -0.253 OA
ATOM      4  N   UNL     1       0.365   0.140   4.595  0.00  0.00    -0.300 N 
ATOM      5  H   UNL     1      -0.320   0.824   2.258  0.00  0.00    +0.156 HD
ATOM      6  H   UNL     1       0.253   1.100   4.507  0.00  0.00    +0.150 HD
ENDROOT
BRANCH   1  13
ATOM      7  C   UNL     1      -1.747   0.745   0.156  0.00  0.00    +0.046 C 
ATOM      8  C   UNL     1      -0.986  -0.555   0.114  0.00  0.00    -0.017 A 
ATOM      9  C   UNL     1      -1.054  -1.369  -1.017  0.00  0.00    +0.041 A 
ATOM     10  C   UNL     1      -0.346  -2.572  -1.048  0.00  0.00    +0.013 A 
ATOM     11  C   UNL     1       0.418  -2.952   0.037  0.00  0.00    +0.003 A 
ATOM     12  C   UNL     1       0.484  -2.145   1.157  0.00  0.00    +0.023 A 
ATOM     13  C   UNL     1      -0.212  -0.943   1.196  0.00  0.00    +0.038 A 
BRANCH   9  14
ATOM     14  C   UNL     1      -1.873  -0.960  -2.178  0.00  0.00    +0.244 C 
ATOM     15  O   UNL     1      -2.410   0.130  -2.188  0.00  0.00    -0.270 OA
ATOM     16  N   UNL     1      -2.023  -1.795  -3.225  0.00  0.00    -0.314 N 
ATOM     17  C   UNL     1      -2.834  -1.389  -4.375  0.00  0.00    +0.128 C 
ATOM     18  H   UNL     1      -1.594  -2.665  -3.216  0.00  0.00    +0.149 HD
ENDBRANCH   9  14
ENDBRANCH   1  13
BRANCH   4  19
ATOM     19  C   UNL     1       0.723  -0.440   5.892  0.00  0.00    +0.098 C 
BRANCH  19  20
ATOM     20  C   UNL     1       0.734   0.660   6.956  0.00  0.00    +0.016 C 
BRANCH  20  21
ATOM     21  C   UNL     1       1.852   1.628   6.667  0.00  0.00    +0.093 A 
ATOM     22  C   UNL     1       3.056   1.641   7.266  0.00  0.00    +0.043 A 
ATOM     23  C   UNL     1       3.787   2.708   6.694  0.00  0.00    +0.041 A 
ATOM     24  C   UNL     1       2.986   3.281   5.778  0.00  0.00    +0.195 A 
ATOM     25  O   UNL     1       1.817   2.620   5.762  0.00  0.00    -0.469 OA
ENDBRANCH  20  21
BRANCH  20  26
ATOM     26  N   UNL     1      -0.550   1.374   6.936  0.00  0.00    +0.384 N 
ATOM     27  C   UNL     1      -1.629   0.451   7.313  0.00  0.00    -0.096 C 
ATOM     28  C   UNL     1      -0.504   2.490   7.890  0.00  0.00    -0.096 C 
ATOM     29  H   UNL     1      -0.722   1.731   6.008  0.00  0.00    -0.082 HD
ENDBRANCH  20  26
ENDBRANCH  19  20
ENDBRANCH   4  19
TORSDOF 6
