REMARK  Name = ZINC67240171
REMARK  6 active torsions:
REMARK  status: ('A' for Active; 'I' for Inactive)
REMARK    1  A    between atoms: C_1  and  C_2
REMARK    2  A    between atoms: C_3  and  C_9
REMARK    3  A    between atoms: C_5  and  C_7
REMARK    4  A    between atoms: N_11  and  C_12
REMARK    5  A    between atoms: C_15  and  C_18
REMARK    6  A    between atoms: C_18  and  N_19
REMARK                            x       y       z     vdW  Elec       q    Type
REMARK                         _______ _______ _______ _____ _____    ______ ____
ROOT
ATOM      1  C   UNL     1      -4.514   0.080   1.137  0.00  0.00    +0.034 A 
ATOM      2  C   UNL     1      -5.166   0.170  -0.086  0.00  0.00    +0.023 A 
ATOM      3  C   UNL     1      -6.513   0.469  -0.129  0.00  0.00    +0.007 A 
ATOM      4  C   UNL     1      -7.214   0.680   1.045  0.00  0.00    -0.030 A 
ATOM      5  C   UNL     1      -6.568   0.592   2.264  0.00  0.00    +0.007 A 
ATOM      6  C   UNL     1      -5.221   0.287   2.314  0.00  0.00    +0.023 A 
ENDROOT
BRANCH   1   9
ATOM      7  C   UNL     1      -2.661  -0.980   2.186  0.00  0.00    +0.253 C 
ATOM      8  O   UNL     1      -3.390  -1.328   3.096  0.00  0.00    -0.270 OA
ATOM      9  N   UNL     1      -3.150  -0.223   1.183  0.00  0.00    -0.281 N 
ATOM     10  H   UNL     1      -2.555   0.110   0.493  0.00  0.00    +0.155 HD
BRANCH   7  13
ATOM     11  C   UNL     1      -1.478  -3.583   0.896  0.00  0.00    +0.087 C 
ATOM     12  C   UNL     1      -0.711  -2.511   1.627  0.00  0.00    +0.115 A 
ATOM     13  C   UNL     1      -1.245  -1.384   2.181  0.00  0.00    +0.092 A 
ATOM     14  C   UNL     1      -0.111  -0.658   2.773  0.00  0.00    +0.071 A 
ATOM     15  C   UNL     1       0.977  -1.405   2.521  0.00  0.00    +0.117 A 
ATOM     16  O   UNL     1       0.608  -2.505   1.845  0.00  0.00    -0.463 OA
ATOM     17  C   UNL     1       2.385  -1.065   2.936  0.00  0.00    +0.087 C 
ATOM     18 BR   UNL     1      -0.171   0.990   3.698  0.00  0.00    -0.046 Br
ENDBRANCH   7  13
ENDBRANCH   1   9
BRANCH   4  19
ATOM     19  C   UNL     1      -8.684   1.007   0.995  0.00  0.00    +0.141 C 
BRANCH  19  20
ATOM     20  N   UNL     1      -9.462  -0.233   1.041  0.00  0.00    -0.295 N 
ATOM     21  C   UNL     1     -10.809  -0.186   1.008  0.00  0.00    +0.297 C 
ATOM     22  O   UNL     1     -11.377   0.887   0.940  0.00  0.00    -0.253 OA
ATOM     23  N   UNL     1     -11.524  -1.327   1.050  0.00  0.00    -0.313 N 
ATOM     24  H   UNL     1      -9.008  -1.089   1.095  0.00  0.00    +0.151 HD
ATOM     25  H   UNL     1     -11.070  -2.182   1.105  0.00  0.00    +0.146 HD
ATOM     26  H   UNL     1     -12.493  -1.293   1.027  0.00  0.00    +0.146 HD
ENDBRANCH  19  20
ENDBRANCH   4  19
TORSDOF 4
