REMARK  Name = ZINC36970886
REMARK  7 active torsions:
REMARK  status: ('A' for Active; 'I' for Inactive)
REMARK    1  A    between atoms: C_1  and  C_2
REMARK    2  A    between atoms: C_4  and  C_8
REMARK    3  A    between atoms: C_5  and  C_7
REMARK    4  A    between atoms: C_8  and  C_10
REMARK    5  A    between atoms: C_8  and  N_11
REMARK    6  A    between atoms: N_11  and  C_12
REMARK    7  A    between atoms: C_17  and  N_18
REMARK                            x       y       z     vdW  Elec       q    Type
REMARK                         _______ _______ _______ _____ _____    ______ ____
ROOT
ATOM      1  N   UNL     1      -3.059  -3.183   0.039  0.00  0.00    -0.335 N 
ATOM      2  H   UNL     1      -3.430  -2.291  -0.051  0.00  0.00    +0.147 HD
ENDROOT
BRANCH   1   3
ATOM      3  C   UNL     1      -3.705  -4.132   0.835  0.00  0.00    +0.060 A 
ATOM      4  C   UNL     1      -3.246  -5.442   0.867  0.00  0.00    +0.045 A 
ATOM      5  C   UNL     1      -3.888  -6.378   1.656  0.00  0.00    +0.043 A 
ATOM      6  C   UNL     1      -4.987  -6.010   2.412  0.00  0.00    +0.022 A 
ATOM      7  C   UNL     1      -5.447  -4.707   2.381  0.00  0.00    +0.036 A 
ATOM      8  C   UNL     1      -4.806  -3.765   1.599  0.00  0.00    +0.147 A 
ATOM      9 CL   UNL     1      -3.315  -8.016   1.698  0.00  0.00    -0.083 Cl
BRANCH   8  10
ATOM     10  N   UNL     1      -5.295  -2.368   1.572  0.00  0.00    +0.058 N 
ATOM     11  O   UNL     1      -4.507  -1.453   1.513  0.00  0.00    -0.126 OA
ATOM     12  O   UNL     1      -6.482  -2.143   1.608  0.00  0.00    -0.126 OA
ENDBRANCH   8  10
ENDBRANCH   1   3
BRANCH   1  13
ATOM     13  C   UNL     1      -1.821  -3.535  -0.661  0.00  0.00    +0.101 C 
ATOM     14  C   UNL     1      -2.162  -4.206  -1.993  0.00  0.00    +0.033 C 
BRANCH  13  18
ATOM     15  C   UNL     1      -0.492   1.340  -1.307  0.00  0.00    +0.086 C 
ATOM     16  C   UNL     1      -0.453  -0.162  -1.197  0.00  0.00    +0.103 A 
ATOM     17  C   UNL     1      -1.502  -0.959  -0.927  0.00  0.00    +0.050 A 
ATOM     18  C   UNL     1      -1.017  -2.287  -0.918  0.00  0.00    +0.013 A 
ATOM     19  C   UNL     1       0.300  -2.222  -1.184  0.00  0.00    +0.107 A 
ATOM     20  O   UNL     1       0.635  -0.933  -1.357  0.00  0.00    -0.465 OA
ATOM     21  C   UNL     1       1.239  -3.397  -1.276  0.00  0.00    +0.086 C 
ENDBRANCH  13  18
ENDBRANCH   1  13
TORSDOF 4
