REMARK  Name = ZINC39162212
REMARK  2 active torsions:
REMARK  status: ('A' for Active; 'I' for Inactive)
REMARK    1  A    between atoms: C_13  and  N_15
REMARK    2  A    between atoms: C_18  and  C_21
REMARK                            x       y       z     vdW  Elec       q    Type
REMARK                         _______ _______ _______ _____ _____    ______ ____
ROOT
ATOM      1  N   UNL     1       4.787   0.138   0.462  0.00  0.00    +0.396 N 
ATOM      2  C   UNL     1       4.458   0.440   1.861  0.00  0.00    -0.075 C 
ATOM      3  C   UNL     1       5.517   1.376   2.447  0.00  0.00    -0.007 C 
ATOM      4  C   UNL     1       6.887   0.694   2.379  0.00  0.00    +0.052 C 
ATOM      5  C   UNL     1       7.187   0.317   0.925  0.00  0.00    -0.007 C 
ATOM      6  C   UNL     1       6.066  -0.580   0.395  0.00  0.00    -0.075 C 
ATOM      7  H   UNL     1       4.858   1.000  -0.058  0.00  0.00    -0.079 HD
ENDROOT
BRANCH   1  20
ATOM      8  C   UNL     1       0.037   1.475  -0.227  0.00  0.00    +0.001 A 
ATOM      9  C   UNL     1       1.244   2.152  -0.223  0.00  0.00    +0.000 A 
ATOM     10  C   UNL     1       2.443   1.461  -0.177  0.00  0.00    +0.004 A 
ATOM     11  C   UNL     1       2.443   0.084  -0.127  0.00  0.00    -0.032 A 
ATOM     12  C   UNL     1       1.218  -0.598  -0.105  0.00  0.00    +0.024 A 
ATOM     13  C   UNL     1       0.020   0.093  -0.170  0.00  0.00    +0.012 A 
ATOM     14  C   UNL     1       1.304  -2.065   0.035  0.00  0.00    +0.181 A 
ATOM     15  N   UNL     1       0.430  -3.013  -0.103  0.00  0.00    -0.128 NA
ATOM     16  N   UNL     1       1.003  -4.154   0.091  0.00  0.00    -0.136 NA
ATOM     17  C   UNL     1       2.271  -3.981   0.374  0.00  0.00    +0.244 A 
ATOM     18  N   UNL     1       2.506  -2.653   0.370  0.00  0.00    -0.235 N 
ATOM     19  N   UNL     1       3.628  -1.939   0.651  0.00  0.00    -0.291 N 
ATOM     20  C   UNL     1       3.727  -0.697  -0.119  0.00  0.00    +0.066 C 
ATOM     21  H   UNL     1       3.703  -1.758   1.641  0.00  0.00    +0.165 HD
ENDBRANCH   1  20
BRANCH   4  22
ATOM     22  C   UNL     1       7.946   1.640   2.882  0.00  0.00    +0.111 A 
ATOM     23  N   UNL     1       8.399   1.671   4.102  0.00  0.00    -0.232 NA
ATOM     24  C   UNL     1       9.344   2.640   4.213  0.00  0.00    +0.089 A 
ATOM     25  C   UNL     1      10.137   3.095   5.269  0.00  0.00    +0.030 A 
ATOM     26  C   UNL     1      11.021   4.117   5.066  0.00  0.00    +0.002 A 
ATOM     27  C   UNL     1      11.141   4.711   3.817  0.00  0.00    +0.002 A 
ATOM     28  C   UNL     1      10.368   4.278   2.761  0.00  0.00    +0.028 A 
ATOM     29  C   UNL     1       9.465   3.241   2.949  0.00  0.00    +0.066 A 
ATOM     30  N   UNL     1       8.572   2.583   2.127  0.00  0.00    -0.342 N 
ATOM     31  H   UNL     1       8.418   2.761   1.186  0.00  0.00    +0.167 HD
ENDBRANCH   4  22
TORSDOF 2
