REMARK  Name = ZINC19112309
REMARK  5 active torsions:
REMARK  status: ('A' for Active; 'I' for Inactive)
REMARK    1  A    between atoms: C_1  and  C_2
REMARK    2  A    between atoms: C_2  and  C_4
REMARK    3  A    between atoms: C_2  and  N_9
REMARK    4  A    between atoms: N_9  and  S_10
REMARK    5  A    between atoms: S_10  and  C_13
REMARK                            x       y       z     vdW  Elec       q    Type
REMARK                         _______ _______ _______ _____ _____    ______ ____
ROOT
ATOM      1  S   UNL     1      -0.017   1.417   0.010  0.00  0.00    +0.061 S 
ATOM      2  O   UNL     1       0.002  -0.004   0.002  0.00  0.00    -0.153 OA
ATOM      3  O   UNL     1       1.172   2.195   0.003  0.00  0.00    -0.153 OA
ENDROOT
BRANCH   1   4
ATOM      4  C   UNL     1      -0.954   1.915  -1.397  0.00  0.00    +0.133 A 
ATOM      5  C   UNL     1      -0.465   2.860  -2.236  0.00  0.00    +0.031 A 
ATOM      6  C   UNL     1      -1.179   3.279  -3.358  0.00  0.00    +0.004 A 
ATOM      7  C   UNL     1      -2.393   2.760  -3.660  0.00  0.00    +0.031 A 
ATOM      8  C   UNL     1      -2.967   1.765  -2.826  0.00  0.00    +0.102 A 
ATOM      9  C   UNL     1      -2.218   1.323  -1.654  0.00  0.00    +0.126 A 
ATOM     10  N   UNL     1      -2.874   0.394  -0.962  0.00  0.00    -0.189 NA
ATOM     11  S   UNL     1      -4.220   0.148  -1.726  0.00  0.00    +0.117 S 
ATOM     12  N   UNL     1      -4.133   1.133  -2.942  0.00  0.00    -0.191 NA
ENDBRANCH   1   4
BRANCH   1  13
ATOM     13  N   UNL     1      -0.872   1.871   1.353  0.00  0.00    -0.182 NA
ATOM     14  H   UNL     1      -0.510   2.541   1.955  0.00  0.00    +0.149 HD
BRANCH  13  16
ATOM     15  C   UNL     1      -3.285   2.152   1.074  0.00  0.00    +0.031 C 
ATOM     16  C   UNL     1      -2.174   1.261   1.634  0.00  0.00    +0.110 C 
BRANCH  16  17
ATOM     17  C   UNL     1      -2.350   1.115   3.123  0.00  0.00    +0.008 A 
ATOM     18  C   UNL     1      -2.895   0.089   3.822  0.00  0.00    +0.013 A 
ATOM     19  C   UNL     1      -2.951   0.172   5.201  0.00  0.00    +0.008 A 
ATOM     20  C   UNL     1      -2.460   1.277   5.813  0.00  0.00    +0.045 A 
ATOM     21  S   UNL     1      -1.887   2.245   4.426  0.00  0.00    -0.100 S 
ENDBRANCH  16  17
ENDBRANCH  13  16
ENDBRANCH   1  13
TORSDOF 4
