REMARK  Name = ZINC08643715
REMARK  12 active torsions:
REMARK  status: ('A' for Active; 'I' for Inactive)
REMARK    1  A    between atoms: C_1  and  N_55
REMARK    2  A    between atoms: C_2  and  C_3
REMARK    3  A    between atoms: C_2  and  N_55
REMARK    4  A    between atoms: N_5  and  C_8
REMARK    5  A    between atoms: C_8  and  C_9
REMARK    6  A    between atoms: C_11  and  O_31
REMARK    7  A    between atoms: C_13  and  O_30
REMARK    8  A    between atoms: C_15  and  C_18
REMARK    9  A    between atoms: C_18  and  C_19
REMARK   10  A    between atoms: C_25  and  C_27
REMARK   11  A    between atoms: C_27  and  O_28
REMARK   12  A    between atoms: O_28  and  C_29
REMARK                            x       y       z     vdW  Elec       q    Type
REMARK                         _______ _______ _______ _____ _____    ______ ____
ROOT
ATOM      1  C   UNL     1      -0.483  -1.346  -1.972  0.00  0.00    +0.171 C 
ATOM      2  C   UNL     1       0.647  -0.530  -1.300  0.00  0.00    +0.176 C 
ATOM      3  C   UNL     1       0.002  -0.004   0.002  0.00  0.00    +0.175 C 
ATOM      4  C   UNL     1      -1.437  -0.565  -0.035  0.00  0.00    +0.159 C 
ATOM      5  O   UNL     1      -1.358  -1.728  -0.888  0.00  0.00    -0.366 OA
ENDROOT
BRANCH   3   6
ATOM      6  O   UNL     1      -0.017   1.425   0.010  0.00  0.00    -0.387 OA
ATOM      7  H   UNL     1       0.861   1.830   0.004  0.00  0.00    +0.210 HD
ENDBRANCH   3   6
BRANCH   2   8
ATOM      8  O   UNL     1       1.046   0.559  -2.136  0.00  0.00    -0.387 OA
ATOM      9  H   UNL     1       1.708   1.139  -1.737  0.00  0.00    +0.210 HD
ENDBRANCH   2   8
BRANCH   1  10
ATOM     10  C   UNL     1       0.090  -2.588  -2.657  0.00  0.00    +0.179 C 
BRANCH  10  13
ATOM     11  C   UNL     1      -2.190  -4.328  -4.816  0.00  0.00    +0.066 A 
ATOM     12  C   UNL     1      -1.021  -3.671  -4.630  0.00  0.00    +0.131 A 
ATOM     13  N   UNL     1      -0.990  -3.321  -3.323  0.00  0.00    -0.249 N 
ATOM     14  N   UNL     1      -2.068  -3.747  -2.765  0.00  0.00    -0.065 NA
ATOM     15  N   UNL     1      -2.808  -4.346  -3.629  0.00  0.00    -0.136 NA
BRANCH  11  16
ATOM     16  C   UNL     1      -2.696  -4.920  -6.106  0.00  0.00    -0.023 C 
BRANCH  16  18
ATOM     17  C   UNL     1      -2.817  -6.956  -7.410  0.00  0.00    -0.100 C 
ATOM     18  N   UNL     1      -2.333  -6.349  -6.156  0.00  0.00    +0.381 N 
ATOM     19  H   UNL     1      -1.312  -6.441  -6.107  0.00  0.00    -0.086 HD
ATOM     20  H   UNL     1      -2.759  -6.835  -5.358  0.00  0.00    -0.086 HD
ENDBRANCH  16  18
ENDBRANCH  11  16
ENDBRANCH  10  13
ENDBRANCH   1  10
BRANCH   4  21
ATOM     21  C   UNL     1      -1.889  -0.965   1.370  0.00  0.00    +0.130 C 
BRANCH  21  22
ATOM     22  C   UNL     1      -3.334  -1.393   1.331  0.00  0.00    +0.218 C 
ATOM     23  O   UNL     1      -3.942  -1.379   0.281  0.00  0.00    -0.276 OA
ATOM     24  N   UNL     1      -3.950  -1.791   2.461  0.00  0.00    -0.296 N 
ATOM     25  C   UNL     1      -3.332  -1.862   3.797  0.00  0.00    +0.108 C 
ATOM     26  C   UNL     1      -4.520  -1.751   4.788  0.00  0.00    +0.021 C 
ATOM     27  C   UNL     1      -5.616  -2.563   4.048  0.00  0.00    +0.026 C 
ATOM     28  C   UNL     1      -5.349  -2.232   2.565  0.00  0.00    +0.102 C 
BRANCH  28  29
ATOM     29  C   UNL     1      -5.567  -3.477   1.703  0.00  0.00    +0.181 C 
BRANCH  29  30
ATOM     30  O   UNL     1      -4.794  -4.559   2.226  0.00  0.00    -0.381 OA
ATOM     31  C   UNL     1      -4.927  -5.777   1.490  0.00  0.00    +0.194 C 
ENDBRANCH  29  30
ENDBRANCH  28  29
ENDBRANCH  21  22
ENDBRANCH   4  21
TORSDOF 10
