REMARK  Name = ZINC49963464
REMARK  6 active torsions:
REMARK  status: ('A' for Active; 'I' for Inactive)
REMARK    1  A    between atoms: C_3  and  C_20
REMARK    2  A    between atoms: C_6  and  C_7
REMARK    3  A    between atoms: C_7  and  N_8
REMARK    4  A    between atoms: N_8  and  C_9
REMARK    5  A    between atoms: C_9  and  C_10
REMARK    6  A    between atoms: C_13  and  N_17
REMARK                            x       y       z     vdW  Elec       q    Type
REMARK                         _______ _______ _______ _____ _____    ______ ____
ROOT
ATOM      1  N   UNL     1      -1.730  -1.014  -1.371  0.00  0.00    -0.308 NA
ATOM      2  H   UNL     1      -1.810  -0.147  -1.882  0.00  0.00    +0.123 HD
ENDROOT
BRANCH   1   3
ATOM      3  C   UNL     1      -1.295  -0.772   0.011  0.00  0.00    +0.116 C 
BRANCH   3   9
ATOM      4  C   UNL     1      -0.017   1.379   0.010  0.00  0.00    +0.006 A 
ATOM      5  C   UNL     1       1.167   2.088   0.002  0.00  0.00    +0.019 A 
ATOM      6  C   UNL     1       2.385   1.407  -0.013  0.00  0.00    +0.052 A 
ATOM      7  C   UNL     1       2.397   0.011  -0.021  0.00  0.00    +0.019 A 
ATOM      8  C   UNL     1       1.206  -0.686  -0.013  0.00  0.00    +0.006 A 
ATOM      9  C   UNL     1       0.002  -0.004   0.002  0.00  0.00    -0.033 A 
BRANCH   6  10
ATOM     10  C   UNL     1       3.617   2.136  -0.021  0.00  0.00    +0.099 C 
ATOM     11  N   UNL     1       4.595   2.715  -0.028  0.00  0.00    -0.191 NA
ENDBRANCH   6  10
ENDBRANCH   3   9
ENDBRANCH   1   3
BRANCH   1  12
ATOM     12  C   UNL     1      -2.994  -1.762  -1.402  0.00  0.00    +0.118 C 
BRANCH  12  13
ATOM     13  C   UNL     1      -3.408  -1.991  -2.833  0.00  0.00    -0.015 A 
ATOM     14  C   UNL     1      -4.363  -1.179  -3.414  0.00  0.00    +0.008 A 
ATOM     15  C   UNL     1      -4.743  -1.389  -4.727  0.00  0.00    +0.033 A 
ATOM     16  C   UNL     1      -4.168  -2.411  -5.458  0.00  0.00    +0.128 A 
ATOM     17  C   UNL     1      -3.212  -3.223  -4.878  0.00  0.00    +0.053 A 
ATOM     18  C   UNL     1      -2.827  -3.010  -3.566  0.00  0.00    +0.048 A 
ATOM     19 CL   UNL     1      -1.621  -4.025  -2.839  0.00  0.00    -0.083 Cl
BRANCH  16  20
ATOM     20  N   UNL     1      -4.576  -2.636  -6.863  0.00  0.00    +0.056 N 
ATOM     21  O   UNL     1      -5.412  -1.926  -7.371  0.00  0.00    -0.126 OA
ATOM     22  O   UNL     1      -4.073  -3.530  -7.503  0.00  0.00    -0.126 OA
ENDBRANCH  16  20
ENDBRANCH  12  13
ENDBRANCH   1  12
TORSDOF 6
