REMARK  Name = ZINC43405365
REMARK  12 active torsions:
REMARK  status: ('A' for Active; 'I' for Inactive)
REMARK    1  A    between atoms: C_1  and  C_2
REMARK    2  A    between atoms: C_4  and  O_25
REMARK    3  A    between atoms: C_5  and  O_23
REMARK    4  A    between atoms: C_7  and  N_8
REMARK    5  A    between atoms: N_11  and  C_12
REMARK    6  A    between atoms: C_12  and  C_13
REMARK    7  A    between atoms: C_13  and  C_15
REMARK    8  A    between atoms: C_13  and  N_20
REMARK    9  A    between atoms: N_20  and  C_21
REMARK   10  A    between atoms: N_20  and  C_22
REMARK   11  A    between atoms: O_23  and  C_24
REMARK   12  A    between atoms: O_25  and  C_26
REMARK                            x       y       z     vdW  Elec       q    Type
REMARK                         _______ _______ _______ _____ _____    ______ ____
ROOT
ATOM      1  N   UNL     1       0.240  -0.078   2.463  0.00  0.00    -0.269 N 
ATOM      2  C   UNL     1       0.056  -0.738   3.623  0.00  0.00    +0.304 C 
ATOM      3  O   UNL     1      -0.011  -1.952   3.628  0.00  0.00    -0.253 OA
ATOM      4  N   UNL     1      -0.054  -0.053   4.778  0.00  0.00    -0.300 N 
ATOM      5  H   UNL     1       0.367   0.884   2.467  0.00  0.00    +0.156 HD
ATOM      6  H   UNL     1      -0.000   0.916   4.775  0.00  0.00    +0.150 HD
ENDROOT
BRANCH   1  13
ATOM      7  C   UNL     1      -0.825   1.206   0.161  0.00  0.00    +0.046 C 
ATOM      8  C   UNL     1      -0.261  -0.191   0.102  0.00  0.00    -0.026 A 
ATOM      9  C   UNL     1      -0.247  -0.880  -1.096  0.00  0.00    +0.054 A 
ATOM     10  C   UNL     1       0.270  -2.164  -1.152  0.00  0.00    +0.162 A 
ATOM     11  C   UNL     1       0.777  -2.760  -0.001  0.00  0.00    +0.163 A 
ATOM     12  C   UNL     1       0.764  -2.069   1.199  0.00  0.00    +0.073 A 
ATOM     13  C   UNL     1       0.249  -0.781   1.250  0.00  0.00    +0.041 A 
BRANCH  11  14
ATOM     14  O   UNL     1       1.285  -4.021  -0.055  0.00  0.00    -0.491 OA
ATOM     15  C   UNL     1       1.788  -4.570   1.165  0.00  0.00    +0.277 C 
ENDBRANCH  11  14
BRANCH  10  16
ATOM     16  O   UNL     1       0.282  -2.842  -2.331  0.00  0.00    -0.491 OA
ATOM     17  C   UNL     1      -0.255  -2.169  -3.472  0.00  0.00    +0.277 C 
ENDBRANCH  10  16
ENDBRANCH   1  13
BRANCH   4  18
ATOM     18  C   UNL     1      -0.254  -0.770   6.040  0.00  0.00    +0.098 C 
BRANCH  18  19
ATOM     19  C   UNL     1      -0.474   0.237   7.170  0.00  0.00    +0.016 C 
BRANCH  19  20
ATOM     20  C   UNL     1       0.780   1.047   7.373  0.00  0.00    +0.093 A 
ATOM     21  C   UNL     1       1.705   0.839   8.328  0.00  0.00    +0.043 A 
ATOM     22  C   UNL     1       2.705   1.823   8.151  0.00  0.00    +0.041 A 
ATOM     23  C   UNL     1       2.332   2.572   7.098  0.00  0.00    +0.195 A 
ATOM     24  O   UNL     1       1.168   2.094   6.628  0.00  0.00    -0.469 OA
ENDBRANCH  19  20
BRANCH  19  25
ATOM     25  N   UNL     1      -1.584   1.133   6.818  0.00  0.00    +0.384 N 
ATOM     26  C   UNL     1      -2.827   0.357   6.719  0.00  0.00    -0.096 C 
ATOM     27  C   UNL     1      -1.730   2.162   7.856  0.00  0.00    -0.096 C 
ATOM     28  H   UNL     1      -1.391   1.575   5.932  0.00  0.00    -0.082 HD
ENDBRANCH  19  25
ENDBRANCH  18  19
ENDBRANCH   4  18
TORSDOF 7
