REMARK  Name = ZINC39315458
REMARK  6 active torsions:
REMARK  status: ('A' for Active; 'I' for Inactive)
REMARK    1  A    between atoms: C_1  and  C_2
REMARK    2  A    between atoms: C_2  and  C_3
REMARK    3  A    between atoms: C_5  and  C_17
REMARK    4  A    between atoms: C_7  and  C_15
REMARK    5  A    between atoms: C_8  and  N_14
REMARK    6  A    between atoms: C_22  and  C_23
REMARK                            x       y       z     vdW  Elec       q    Type
REMARK                         _______ _______ _______ _____ _____    ______ ____
ROOT
ATOM      1  C   UNL     1      -1.412  -0.526   0.013  0.00  0.00    +0.069 C 
ATOM      2  C   UNL     1      -2.091  -0.872  -1.054  0.00  0.00    +0.030 C 
ATOM      3  C   UNL     1      -1.734  -1.014  -2.509  0.00  0.00    +0.098 C 
ATOM      4  C   UNL     1      -2.408  -2.293  -2.970  0.00  0.00    +0.097 C 
ATOM      5  C   UNL     1      -3.287  -2.953  -2.188  0.00  0.00    +0.195 C 
ATOM      6  O   UNL     1      -3.663  -2.618  -0.940  0.00  0.00    -0.448 OA
ATOM      7  C   UNL     1      -3.476  -1.259  -0.537  0.00  0.00    +0.343 C 
ATOM      8  N   UNL     1      -3.307  -1.130   0.914  0.00  0.00    -0.138 NA
ATOM      9  N   UNL     1      -2.163  -0.710   1.129  0.00  0.00    -0.155 NA
ENDROOT
BRANCH   3  10
ATOM     10  C   UNL     1      -2.257   0.164  -3.290  0.00  0.00    -0.023 A 
ATOM     11  C   UNL     1      -3.612   0.435  -3.310  0.00  0.00    +0.005 A 
ATOM     12  C   UNL     1      -4.091   1.515  -4.026  0.00  0.00    +0.000 A 
ATOM     13  C   UNL     1      -3.215   2.326  -4.723  0.00  0.00    +0.001 A 
ATOM     14  C   UNL     1      -1.859   2.056  -4.703  0.00  0.00    +0.012 A 
ATOM     15  C   UNL     1      -1.380   0.978  -3.982  0.00  0.00    +0.059 A 
BRANCH  15  16
ATOM     16  C   UNL     1       0.099   0.687  -3.956  0.00  0.00    +0.418 C 
ATOM     17  F   UNL     1       0.775   1.640  -4.724  0.00  0.00    -0.166 F 
ATOM     18  F   UNL     1       0.560   0.738  -2.636  0.00  0.00    -0.166 F 
ATOM     19  F   UNL     1       0.333  -0.588  -4.483  0.00  0.00    -0.166 F 
ENDBRANCH  15  16
ENDBRANCH   3  10
BRANCH   5  20
ATOM     20  N   UNL     1      -3.858  -4.082  -2.720  0.00  0.00    -0.329 N 
ATOM     21  H   UNL     1      -3.622  -4.368  -3.616  0.00  0.00    +0.145 HD
ATOM     22  H   UNL     1      -4.497  -4.594  -2.200  0.00  0.00    +0.145 HD
ENDBRANCH   5  20
BRANCH   1  24
ATOM     23  C   UNL     1      -0.019   1.526   0.010  0.00  0.00    +0.010 C 
ATOM     24  C   UNL     1       0.002  -0.004   0.002  0.00  0.00    +0.054 C 
ENDBRANCH   1  24
BRANCH   4  25
ATOM     25  C   UNL     1      -2.103  -2.812  -4.269  0.00  0.00    +0.101 C 
ATOM     26  N   UNL     1      -1.861  -3.225  -5.300  0.00  0.00    -0.191 NA
ENDBRANCH   4  25
TORSDOF 5
