REMARK  Name = ZINC40826240
REMARK  10 active torsions:
REMARK  status: ('A' for Active; 'I' for Inactive)
REMARK    1  A    between atoms: C_1  and  C_2
REMARK    2  A    between atoms: C_6  and  C_7
REMARK    3  A    between atoms: N_9  and  C_10
REMARK    4  A    between atoms: C_12  and  C_18
REMARK    5  A    between atoms: C_12  and  C_19
REMARK    6  A    between atoms: C_14  and  C_16
REMARK    7  A    between atoms: C_14  and  C_17
REMARK    8  A    between atoms: N_24  and  N_25
REMARK    9  A    between atoms: N_25  and  S_26
REMARK   10  A    between atoms: S_26  and  C_29
REMARK                            x       y       z     vdW  Elec       q    Type
REMARK                         _______ _______ _______ _____ _____    ______ ____
ROOT
ATOM      1  C   UNL     1       0.425   1.686   0.010  0.00  0.00    +0.048 C 
ATOM      2  C   UNL     1       0.339   0.181   0.012  0.00  0.00    +0.009 A 
ATOM      3  C   UNL     1       0.279  -0.658  -1.106  0.00  0.00    +0.042 A 
ATOM      4  C   UNL     1       0.208  -1.952  -0.648  0.00  0.00    +0.115 A 
ATOM      5  O   UNL     1       0.227  -1.919   0.683  0.00  0.00    -0.454 OA
ATOM      6  C   UNL     1       0.310  -0.637   1.107  0.00  0.00    +0.193 A 
ATOM      7  C   UNL     1       0.124  -3.144  -1.566  0.00  0.00    +0.075 C 
ATOM      8  C   UNL     1      -0.379  -2.694  -2.940  0.00  0.00    +0.014 C 
ATOM      9  C   UNL     1       0.472  -1.537  -3.475  0.00  0.00    +0.058 C 
ATOM     10  C   UNL     1       0.284  -0.342  -2.553  0.00  0.00    +0.071 C 
ATOM     11  N   UNL     1       0.139   0.867  -3.001  0.00  0.00    -0.170 NA
ENDROOT
BRANCH   6  12
ATOM     12  C   UNL     1       0.357  -0.198   2.506  0.00  0.00    +0.280 C 
ATOM     13  O   UNL     1       0.428   0.988   2.770  0.00  0.00    -0.267 OA
ATOM     14  N   UNL     1       0.322  -1.109   3.500  0.00  0.00    -0.306 N 
ATOM     15  H   UNL     1       0.265  -2.054   3.289  0.00  0.00    +0.149 HD
BRANCH  14  16
ATOM     16  C   UNL     1       0.369  -0.670   4.900  0.00  0.00    +0.071 C 
ATOM     17  C   UNL     1       1.829  -0.523   5.332  0.00  0.00    +0.009 C 
ATOM     18  C   UNL     1       1.895  -0.078   6.792  0.00  0.00    -0.072 C 
ATOM     19  N   UNL     1       1.140  -0.961   7.669  0.00  0.00    +0.386 N 
ATOM     20  C   UNL     1      -0.201  -1.339   7.255  0.00  0.00    -0.072 C 
ATOM     21  C   UNL     1      -0.288  -1.730   5.783  0.00  0.00    +0.009 C 
ATOM     22  C   UNL     1      -1.221  -0.239   7.563  0.00  0.00    -0.010 C 
ATOM     23  C   UNL     1      -0.611  -2.579   8.084  0.00  0.00    -0.010 C 
ATOM     24  C   UNL     1       1.452   1.379   6.922  0.00  0.00    -0.010 C 
ATOM     25  C   UNL     1       3.378  -0.146   7.225  0.00  0.00    -0.010 C 
ATOM     26  H   UNL     1       1.686  -1.815   7.811  0.00  0.00    -0.084 HD
ATOM     27  H   UNL     1       1.081  -0.523   8.592  0.00  0.00    -0.084 HD
ENDBRANCH  14  16
ENDBRANCH   6  12
BRANCH  11  28
ATOM     28  N   UNL     1       0.151   1.108  -4.381  0.00  0.00    -0.136 N 
ATOM     29  H   UNL     1       0.269   0.372  -5.001  0.00  0.00    +0.197 HD
BRANCH  28  30
ATOM     30  S   UNL     1      -0.034   2.651  -4.953  0.00  0.00    +0.086 S 
ATOM     31  O   UNL     1       0.167   2.590  -6.359  0.00  0.00    -0.149 OA
ATOM     32  O   UNL     1      -1.229   3.158  -4.376  0.00  0.00    -0.149 OA
BRANCH  30  33
ATOM     33  C   UNL     1       1.289   3.612  -4.297  0.00  0.00    +0.110 A 
ATOM     34  C   UNL     1       1.138   4.258  -3.084  0.00  0.00    +0.031 A 
ATOM     35  C   UNL     1       2.175   5.012  -2.568  0.00  0.00    +0.040 A 
ATOM     36  C   UNL     1       3.365   5.121  -3.267  0.00  0.00    +0.124 A 
ATOM     37  C   UNL     1       3.515   4.474  -4.482  0.00  0.00    +0.040 A 
ATOM     38  C   UNL     1       2.479   3.716  -4.993  0.00  0.00    +0.031 A 
ATOM     39  F   UNL     1       4.380   5.858  -2.763  0.00  0.00    -0.205 F 
ENDBRANCH  30  33
ENDBRANCH  28  30
ENDBRANCH  11  28
TORSDOF 5
