REMARK  Name = ZINC02435549
REMARK  5 active torsions:
REMARK  status: ('A' for Active; 'I' for Inactive)
REMARK    1  A    between atoms: C_1  and  C_2
REMARK    2  A    between atoms: N_8  and  O_9
REMARK    3  A    between atoms: C_10  and  C_18
REMARK    4  A    between atoms: C_12  and  C_16
REMARK    5  A    between atoms: C_13  and  N_15
REMARK                            x       y       z     vdW  Elec       q    Type
REMARK                         _______ _______ _______ _____ _____    ______ ____
ROOT
ATOM      1  C   UNL     1      -0.018   1.503   0.010  0.00  0.00    +0.067 C 
ATOM      2  C   UNL     1       0.002  -0.004   0.002  0.00  0.00    +0.062 A 
ATOM      3  C   UNL     1       0.022  -0.676   1.173  0.00  0.00    +0.071 A 
ATOM      4  C   UNL     1       0.041  -2.086   1.171  0.00  0.00    +0.141 A 
ATOM      5  C   UNL     1       0.038  -2.752  -0.036  0.00  0.00    +0.075 A 
ATOM      6  C   UNL     1       0.017  -2.013  -1.226  0.00  0.00    +0.291 A 
ATOM      7  O   UNL     1       0.014  -2.590  -2.303  0.00  0.00    -0.264 OA
ATOM      8  N   UNL     1      -0.006  -0.668  -1.184  0.00  0.00    -0.151 N 
ATOM      9  C   UNL     1       0.058  -4.255  -0.085  0.00  0.00    +0.103 C 
ATOM     10  C   UNL     1       0.476  -4.811   1.248  0.00  0.00    +0.098 C 
ATOM     11  C   UNL     1       0.455  -4.047   2.365  0.00  0.00    +0.199 C 
ATOM     12  O   UNL     1       0.062  -2.761   2.340  0.00  0.00    -0.441 OA
ENDROOT
BRANCH   9  13
ATOM     13  C   UNL     1      -1.319  -4.762  -0.428  0.00  0.00    -0.034 A 
ATOM     14  C   UNL     1      -2.385  -4.484   0.407  0.00  0.00    +0.006 A 
ATOM     15  C   UNL     1      -3.650  -4.943   0.090  0.00  0.00    +0.020 A 
ATOM     16  C   UNL     1      -3.846  -5.692  -1.057  0.00  0.00    +0.041 A 
ATOM     17  C   UNL     1      -2.777  -5.975  -1.889  0.00  0.00    +0.020 A 
ATOM     18  C   UNL     1      -1.514  -5.510  -1.574  0.00  0.00    +0.006 A 
ATOM     19 CL   UNL     1      -5.432  -6.276  -1.451  0.00  0.00    -0.084 Cl
ENDBRANCH   9  13
BRANCH  11  20
ATOM     20  N   UNL     1       0.846  -4.600   3.559  0.00  0.00    -0.328 N 
ATOM     21  H   UNL     1       0.837  -4.065   4.368  0.00  0.00    +0.145 HD
ATOM     22  H   UNL     1       1.132  -5.526   3.593  0.00  0.00    +0.145 HD
ENDBRANCH  11  20
BRANCH   8  23
ATOM     23  O   UNL     1      -0.033   0.067  -2.394  0.00  0.00    -0.423 OA
ATOM     24  H   UNL     1      -0.036  -0.484  -3.188  0.00  0.00    +0.326 HD
ENDBRANCH   8  23
BRANCH  10  25
ATOM     25  C   UNL     1       0.906  -6.174   1.337  0.00  0.00    +0.101 C 
ATOM     26  N   UNL     1       1.247  -7.255   1.408  0.00  0.00    -0.191 NA
ENDBRANCH  10  25
TORSDOF 4
