REMARK  Name = ZINC04279578
REMARK  8 active torsions:
REMARK  status: ('A' for Active; 'I' for Inactive)
REMARK    1  A    between atoms: C_1  and  C_2
REMARK    2  A    between atoms: C_3  and  C_29
REMARK    3  A    between atoms: C_4  and  C_19
REMARK    4  A    between atoms: C_10  and  C_12
REMARK    5  A    between atoms: C_22  and  O_27
REMARK    6  A    between atoms: C_23  and  O_25
REMARK    7  A    between atoms: O_25  and  C_26
REMARK    8  A    between atoms: O_27  and  C_28
REMARK                            x       y       z     vdW  Elec       q    Type
REMARK                         _______ _______ _______ _____ _____    ______ ____
ROOT
ATOM      1  C   UNL     1       0.640   1.236   0.150  0.00  0.00    +0.066 C 
ATOM      2  C   UNL     1       0.388  -0.247   0.057  0.00  0.00    +0.052 C 
ATOM      3  C   UNL     1      -0.883  -0.690  -0.181  0.00  0.00    +0.061 C 
ATOM      4  C   UNL     1      -1.089  -2.192  -0.268  0.00  0.00    +0.164 C 
ATOM      5  N   UNL     1       0.109  -3.020  -0.084  0.00  0.00    -0.207 N 
ATOM      6  C   UNL     1       1.315  -2.402   0.149  0.00  0.00    +0.237 C 
ATOM      7  N   UNL     1       1.406  -1.082   0.203  0.00  0.00    -0.218 NA
ATOM      8  N   UNL     1       2.241  -3.365   0.280  0.00  0.00    -0.196 NA
ATOM      9  C   UNL     1       1.688  -4.554   0.143  0.00  0.00    +0.146 C 
ATOM     10  N   UNL     1       0.347  -4.396  -0.088  0.00  0.00    -0.244 N 
ATOM     11  H   UNL     1      -0.306  -5.100  -0.226  0.00  0.00    +0.172 HD
ENDROOT
BRANCH   9  12
ATOM     12  C   UNL     1       2.398  -5.844   0.225  0.00  0.00    +0.016 A 
ATOM     13  C   UNL     1       1.698  -7.042   0.056  0.00  0.00    +0.014 A 
ATOM     14  C   UNL     1       2.367  -8.244   0.134  0.00  0.00    +0.039 A 
ATOM     15  C   UNL     1       3.732  -8.267   0.380  0.00  0.00    +0.123 A 
ATOM     16  C   UNL     1       4.432  -7.082   0.549  0.00  0.00    +0.039 A 
ATOM     17  C   UNL     1       3.775  -5.873   0.467  0.00  0.00    +0.014 A 
ATOM     18  F   UNL     1       4.383  -9.449   0.455  0.00  0.00    -0.205 F 
ENDBRANCH   9  12
BRANCH   4  19
ATOM     19  C   UNL     1      -1.671  -2.509  -1.621  0.00  0.00    -0.017 A 
ATOM     20  C   UNL     1      -0.886  -2.396  -2.753  0.00  0.00    +0.009 A 
ATOM     21  C   UNL     1      -1.416  -2.686  -3.997  0.00  0.00    +0.050 A 
ATOM     22  C   UNL     1      -2.736  -3.091  -4.111  0.00  0.00    +0.162 A 
ATOM     23  C   UNL     1      -3.526  -3.205  -2.971  0.00  0.00    +0.162 A 
ATOM     24  C   UNL     1      -2.988  -2.918  -1.727  0.00  0.00    +0.055 A 
BRANCH  23  25
ATOM     25  O   UNL     1      -4.822  -3.602  -3.077  0.00  0.00    -0.491 OA
ATOM     26  C   UNL     1      -5.573  -3.697  -1.865  0.00  0.00    +0.277 C 
ENDBRANCH  23  25
BRANCH  22  27
ATOM     27  O   UNL     1      -3.259  -3.376  -5.333  0.00  0.00    -0.491 OA
ATOM     28  C   UNL     1      -2.389  -3.236  -6.459  0.00  0.00    +0.277 C 
ENDBRANCH  22  27
ENDBRANCH   4  19
BRANCH   3  29
ATOM     29  C   UNL     1      -1.954   0.208  -0.339  0.00  0.00    +0.241 C 
ATOM     30  O   UNL     1      -1.743   1.407  -0.380  0.00  0.00    -0.271 OA
ATOM     31  N   UNL     1      -3.214  -0.259  -0.446  0.00  0.00    -0.325 N 
ATOM     32  H   UNL     1      -3.391  -1.206  -0.337  0.00  0.00    +0.145 HD
ATOM     33  H   UNL     1      -3.944   0.352  -0.632  0.00  0.00    +0.145 HD
ENDBRANCH   3  29
TORSDOF 5
