REMARK  Name = ZINC50139685
REMARK  11 active torsions:
REMARK  status: ('A' for Active; 'I' for Inactive)
REMARK    1  A    between atoms: C_1  and  C_2
REMARK    2  A    between atoms: C_2  and  C_3
REMARK    3  A    between atoms: C_2  and  C_4
REMARK    4  A    between atoms: C_2  and  N_22
REMARK    5  A    between atoms: C_4  and  N_5
REMARK    6  A    between atoms: N_8  and  C_9
REMARK    7  A    between atoms: C_9  and  C_10
REMARK    8  A    between atoms: C_14  and  C_16
REMARK    9  A    between atoms: C_16  and  S_17
REMARK   10  A    between atoms: S_17  and  N_20
REMARK   11  A    between atoms: N_20  and  C_21
REMARK                            x       y       z     vdW  Elec       q    Type
REMARK                         _______ _______ _______ _____ _____    ______ ____
ROOT
ATOM      1  N   UNL     1      -1.390  -1.964  -0.383  0.00  0.00    -0.301 N 
ATOM      2  C   UNL     1      -2.527  -2.627  -0.672  0.00  0.00    +0.300 C 
ATOM      3  O   UNL     1      -3.577  -2.021  -0.769  0.00  0.00    -0.253 OA
ATOM      4  N   UNL     1      -2.501  -3.962  -0.854  0.00  0.00    -0.295 N 
ATOM      5  H   UNL     1      -0.553  -2.447  -0.306  0.00  0.00    +0.150 HD
ATOM      6  H   UNL     1      -1.663  -4.446  -0.777  0.00  0.00    +0.151 HD
ENDROOT
BRANCH   1   7
ATOM      7  C   UNL     1      -1.419  -0.512  -0.186  0.00  0.00    +0.093 C 
BRANCH   7   9
ATOM      8  C   UNL     1       0.812  -0.206  -1.269  0.00  0.00    -0.008 C 
ATOM      9  C   UNL     1       0.008   0.003   0.015  0.00  0.00    -0.055 C 
ATOM     10  C   UNL     1      -0.032   1.495   0.354  0.00  0.00    -0.008 C 
BRANCH   9  11
ATOM     11  N   UNL     1       0.643  -0.732   1.117  0.00  0.00    +0.384 N 
ATOM     12  C   UNL     1      -0.155  -0.569   2.337  0.00  0.00    -0.078 C 
ATOM     13  C   UNL     1       0.459  -1.399   3.467  0.00  0.00    -0.019 C 
ATOM     14  C   UNL     1       1.891  -0.922   3.724  0.00  0.00    -0.004 C 
ATOM     15  C   UNL     1       2.694  -1.027   2.425  0.00  0.00    -0.019 C 
ATOM     16  C   UNL     1       1.998  -0.211   1.333  0.00  0.00    -0.078 C 
ATOM     17  H   UNL     1       0.695  -1.712   0.880  0.00  0.00    -0.081 HD
ENDBRANCH   9  11
ENDBRANCH   7   9
ENDBRANCH   1   7
BRANCH   4  18
ATOM     18  C   UNL     1      -3.737  -4.684  -1.168  0.00  0.00    +0.141 C 
BRANCH  18  19
ATOM     19  C   UNL     1      -3.436  -6.152  -1.321  0.00  0.00    -0.030 A 
ATOM     20  C   UNL     1      -3.091  -6.662  -2.559  0.00  0.00    +0.005 A 
ATOM     21  C   UNL     1      -2.816  -8.009  -2.699  0.00  0.00    +0.001 A 
ATOM     22  C   UNL     1      -2.885  -8.847  -1.602  0.00  0.00    +0.005 A 
ATOM     23  C   UNL     1      -3.229  -8.337  -0.364  0.00  0.00    -0.025 A 
ATOM     24  C   UNL     1      -3.500  -6.989  -0.223  0.00  0.00    +0.010 A 
BRANCH  23  25
ATOM     25  C   UNL     1      -3.304  -9.251   0.832  0.00  0.00    +0.220 C 
BRANCH  25  26
ATOM     26  S   UNL     1      -1.685  -9.315   1.647  0.00  0.00    +0.033 S 
ATOM     27  O   UNL     1      -0.742  -9.972   0.810  0.00  0.00    -0.158 OA
ATOM     28  O   UNL     1      -1.380  -8.057   2.232  0.00  0.00    -0.158 OA
BRANCH  26  29
ATOM     29  N   UNL     1      -1.895 -10.339   2.931  0.00  0.00    -0.197 NA
ATOM     30  C   UNL     1      -2.204 -11.752   2.699  0.00  0.00    +0.127 C 
ATOM     31  H   UNL     1      -1.813 -10.003   3.838  0.00  0.00    +0.147 HD
ENDBRANCH  26  29
ENDBRANCH  25  26
ENDBRANCH  23  25
ENDBRANCH  18  19
ENDBRANCH   4  18
TORSDOF 8
