REMARK  Name = ZINC13720936
REMARK  6 active torsions:
REMARK  status: ('A' for Active; 'I' for Inactive)
REMARK    1  A    between atoms: C_1  and  C_2
REMARK    2  A    between atoms: C_6  and  C_12
REMARK    3  A    between atoms: C_7  and  C_11
REMARK    4  A    between atoms: C_13  and  O_28
REMARK    5  A    between atoms: C_14  and  C_15
REMARK    6  A    between atoms: C_18  and  C_21
REMARK                            x       y       z     vdW  Elec       q    Type
REMARK                         _______ _______ _______ _____ _____    ______ ____
ROOT
ATOM      1  C   UNL     1      -0.033   1.502   0.010  0.00  0.00    +0.044 C 
ATOM      2  C   UNL     1      -0.009  -0.004   0.002  0.00  0.00    -0.035 A 
ATOM      3  C   UNL     1      -0.002  -0.680  -1.198  0.00  0.00    +0.051 A 
ATOM      4  C   UNL     1       0.021  -2.069  -1.221  0.00  0.00    +0.143 A 
ATOM      5  C   UNL     1       0.037  -2.787  -0.011  0.00  0.00    +0.063 A 
ATOM      6  C   UNL     1       0.061  -4.250  -0.053  0.00  0.00    -0.027 A 
ATOM      7  C   UNL     1       0.067  -4.857  -1.268  0.00  0.00    +0.038 A 
ATOM      8  C   UNL     1       0.050  -4.076  -2.442  0.00  0.00    +0.340 A 
ATOM      9  O   UNL     1       0.055  -4.633  -3.525  0.00  0.00    -0.245 OA
ATOM     10  O   UNL     1       0.028  -2.735  -2.396  0.00  0.00    -0.422 OA
ATOM     11  C   UNL     1       0.091  -6.361  -1.362  0.00  0.00    +0.051 C 
ATOM     12  C   UNL     1       0.079  -5.061   1.217  0.00  0.00    +0.045 C 
ATOM     13  C   UNL     1       0.029  -2.102   1.212  0.00  0.00    +0.137 A 
ATOM     14  C   UNL     1       0.012  -0.704   1.214  0.00  0.00    +0.043 A 
ENDROOT
BRANCH  14  15
ATOM     15  C   UNL     1       0.010   0.033   2.491  0.00  0.00    +0.072 C 
ATOM     16  N   UNL     1      -1.043   0.381   3.146  0.00  0.00    -0.190 NA
ATOM     17  N   UNL     1      -0.777   1.069   4.328  0.00  0.00    -0.261 N 
ATOM     18  C   UNL     1       0.681   1.198   4.485  0.00  0.00    +0.125 C 
ATOM     19  C   UNL     1       1.243   0.488   3.237  0.00  0.00    +0.086 C 
ATOM     20  H   UNL     1      -1.443   1.407   4.946  0.00  0.00    +0.169 HD
BRANCH  18  21
ATOM     21  C   UNL     1       1.085   2.650   4.506  0.00  0.00    -0.025 A 
ATOM     22  C   UNL     1       0.452   3.556   3.677  0.00  0.00    +0.006 A 
ATOM     23  C   UNL     1       0.822   4.888   3.696  0.00  0.00    +0.015 A 
ATOM     24  C   UNL     1       1.827   5.313   4.546  0.00  0.00    +0.018 A 
ATOM     25  C   UNL     1       2.461   4.406   5.376  0.00  0.00    +0.015 A 
ATOM     26  C   UNL     1       2.086   3.076   5.359  0.00  0.00    +0.006 A 
ATOM     27 BR   UNL     1       2.334   7.135   4.573  0.00  0.00    -0.050 Br
ENDBRANCH  18  21
ENDBRANCH  14  15
BRANCH  13  28
ATOM     28  O   UNL     1       0.044  -2.788   2.381  0.00  0.00    -0.505 OA
ATOM     29  H   UNL     1       0.932  -2.972   2.718  0.00  0.00    +0.292 HD
ENDBRANCH  13  28
TORSDOF 3
