REMARK  Name = ZINC00661022
REMARK  10 active torsions:
REMARK  status: ('A' for Active; 'I' for Inactive)
REMARK    1  A    between atoms: C_1  and  C_2
REMARK    2  A    between atoms: C_2  and  O_3
REMARK    3  A    between atoms: O_3  and  C_4
REMARK    4  A    between atoms: C_6  and  C_19
REMARK    5  A    between atoms: C_9  and  O_10
REMARK    6  A    between atoms: O_10  and  C_11
REMARK    7  A    between atoms: C_11  and  C_12
REMARK    8  A    between atoms: C_22  and  C_33
REMARK    9  A    between atoms: C_28  and  N_32
REMARK   10  A    between atoms: C_29  and  C_30
REMARK                            x       y       z     vdW  Elec       q    Type
REMARK                         _______ _______ _______ _____ _____    ______ ____
ROOT
ATOM      1  C   UNL     1      -0.016   1.356   0.009  0.00  0.00    +0.162 A 
ATOM      2  C   UNL     1      -1.225   2.034   0.019  0.00  0.00    +0.055 A 
ATOM      3  C   UNL     1      -1.242   3.416   0.033  0.00  0.00    -0.017 A 
ATOM      4  C   UNL     1      -0.055   4.125   0.025  0.00  0.00    +0.026 A 
ATOM      5  C   UNL     1       1.155   3.455   0.010  0.00  0.00    +0.065 A 
ATOM      6  C   UNL     1       1.178   2.069   0.002  0.00  0.00    +0.163 A 
ATOM      7 BR   UNL     1      -0.085   6.016   0.035  0.00  0.00    -0.050 Br
ENDROOT
BRANCH   3   8
ATOM      8  C   UNL     1      -2.558   4.151   0.050  0.00  0.00    +0.102 C 
ATOM      9  C   UNL     1      -3.373   3.763  -1.157  0.00  0.00    +0.049 A 
ATOM     10  C   UNL     1      -3.187   4.105  -2.490  0.00  0.00    +0.068 A 
ATOM     11  N   UNL     1      -4.140   3.538  -3.192  0.00  0.00    -0.176 NA
ATOM     12  N   UNL     1      -4.965   2.815  -2.317  0.00  0.00    -0.246 N 
ATOM     13  H   UNL     1      -5.771   2.282  -2.573  0.00  0.00    +0.192 HD
ATOM     14  C   UNL     1      -4.479   2.965  -1.074  0.00  0.00    +0.222 A 
ATOM     15  O   UNL     1      -4.932   2.461   0.101  0.00  0.00    -0.423 OA
ATOM     16  C   UNL     1      -4.430   2.981   1.239  0.00  0.00    +0.200 C 
ATOM     17  C   UNL     1      -3.336   3.773   1.285  0.00  0.00    +0.098 C 
ATOM     18  C   UNL     1      -2.083   4.974  -3.035  0.00  0.00    +0.068 C 
BRANCH  16  19
ATOM     19  N   UNL     1      -5.068   2.690   2.419  0.00  0.00    -0.328 N 
ATOM     20  H   UNL     1      -4.731   3.050   3.254  0.00  0.00    +0.145 HD
ATOM     21  H   UNL     1      -5.856   2.124   2.418  0.00  0.00    +0.145 HD
ENDBRANCH  16  19
BRANCH  17  22
ATOM     22  C   UNL     1      -2.899   4.272   2.555  0.00  0.00    +0.101 C 
ATOM     23  N   UNL     1      -2.553   4.667   3.562  0.00  0.00    -0.191 NA
ENDBRANCH  17  22
ENDBRANCH   3   8
BRANCH   1  24
ATOM     24  O   UNL     1       0.002  -0.004   0.002  0.00  0.00    -0.489 OA
BRANCH  24  26
ATOM     25  C   UNL     1      -1.041  -2.184   0.000  0.00  0.00    +0.048 C 
ATOM     26  C   UNL     1      -1.262  -0.670   0.011  0.00  0.00    +0.226 C 
ENDBRANCH  24  26
ENDBRANCH   1  24
BRANCH   6  27
ATOM     27  O   UNL     1       2.367   1.408  -0.013  0.00  0.00    -0.484 OA
BRANCH  27  28
ATOM     28  C   UNL     1       3.553   2.205  -0.020  0.00  0.00    +0.264 C 
BRANCH  28  29
ATOM     29  C   UNL     1       4.762   1.306  -0.035  0.00  0.00    -0.010 A 
ATOM     30  C   UNL     1       5.331   0.893   1.154  0.00  0.00    +0.007 A 
ATOM     31  C   UNL     1       6.438   0.064   1.140  0.00  0.00    +0.000 A 
ATOM     32  C   UNL     1       6.981  -0.342  -0.065  0.00  0.00    +0.000 A 
ATOM     33  C   UNL     1       6.415   0.076  -1.254  0.00  0.00    +0.000 A 
ATOM     34  C   UNL     1       5.306   0.900  -1.240  0.00  0.00    +0.007 A 
ENDBRANCH  28  29
ENDBRANCH  27  28
ENDBRANCH   6  27
TORSDOF 8
