REMARK  Name = ZINC37104421
REMARK  7 active torsions:
REMARK  status: ('A' for Active; 'I' for Inactive)
REMARK    1  A    between atoms: C_1  and  C_2
REMARK    2  A    between atoms: C_2  and  C_3
REMARK    3  A    between atoms: C_6  and  N_12
REMARK    4  A    between atoms: C_8  and  N_9
REMARK    5  A    between atoms: N_12  and  C_13
REMARK    6  A    between atoms: C_13  and  C_15
REMARK    7  A    between atoms: C_13  and  C_16
REMARK                            x       y       z     vdW  Elec       q    Type
REMARK                         _______ _______ _______ _____ _____    ______ ____
ROOT
ATOM      1  C   UNL     1       0.735  -0.491   1.226  0.00  0.00    -0.017 A 
ATOM      2  C   UNL     1       2.054  -0.894   1.125  0.00  0.00    +0.007 A 
ATOM      3  C   UNL     1       2.721  -1.363   2.239  0.00  0.00    +0.023 A 
ATOM      4  C   UNL     1       2.066  -1.431   3.462  0.00  0.00    +0.030 A 
ATOM      5  C   UNL     1       0.741  -1.026   3.559  0.00  0.00    +0.056 A 
ATOM      6  C   UNL     1       0.081  -0.552   2.442  0.00  0.00    +0.131 A 
ENDROOT
BRANCH   6   7
ATOM      7  N   UNL     1      -1.329  -0.115   2.546  0.00  0.00    +0.057 N 
ATOM      8  O   UNL     1      -1.872  -0.076   3.626  0.00  0.00    -0.126 OA
ATOM      9  O   UNL     1      -1.938   0.203   1.552  0.00  0.00    -0.126 OA
ENDBRANCH   6   7
BRANCH   1  11
ATOM     10  C   UNL     1      -0.059   1.549   0.060  0.00  0.00    +0.009 C 
ATOM     11  C   UNL     1       0.010   0.021   0.008  0.00  0.00    +0.034 C 
ENDBRANCH   1  11
BRANCH   4  12
ATOM     12  N   UNL     1       2.737  -1.906   4.591  0.00  0.00    -0.337 N 
ATOM     13  H   UNL     1       2.278  -1.953   5.444  0.00  0.00    +0.147 HD
BRANCH  12  14
ATOM     14  C   UNL     1       4.135  -2.333   4.486  0.00  0.00    +0.098 C 
ATOM     15  C   UNL     1       4.189  -3.790   4.022  0.00  0.00    +0.033 C 
BRANCH  14  16
ATOM     16  C   UNL     1       4.800  -2.210   5.833  0.00  0.00    -0.027 A 
ATOM     17  C   UNL     1       4.114  -2.570   6.978  0.00  0.00    +0.007 A 
ATOM     18  C   UNL     1       4.723  -2.458   8.213  0.00  0.00    +0.020 A 
ATOM     19  C   UNL     1       6.020  -1.984   8.304  0.00  0.00    +0.041 A 
ATOM     20  C   UNL     1       6.706  -1.624   7.158  0.00  0.00    +0.020 A 
ATOM     21  C   UNL     1       6.098  -1.742   5.922  0.00  0.00    +0.007 A 
ATOM     22 CL   UNL     1       6.786  -1.842   9.855  0.00  0.00    -0.084 Cl
ENDBRANCH  14  16
ENDBRANCH  12  14
ENDBRANCH   4  12
TORSDOF 5
