REMARK  Name = ZINC36552816
REMARK  14 active torsions:
REMARK  status: ('A' for Active; 'I' for Inactive)
REMARK    1  A    between atoms: C_1  and  C_2
REMARK    2  A    between atoms: C_2  and  C_3
REMARK    3  A    between atoms: C_2  and  C_4
REMARK    4  A    between atoms: C_2  and  C_5
REMARK    5  A    between atoms: C_5  and  C_6
REMARK    6  A    between atoms: C_6  and  C_7
REMARK    7  A    between atoms: C_6  and  C_8
REMARK    8  A    between atoms: C_6  and  N_9
REMARK    9  A    between atoms: C_10  and  C_12
REMARK   10  A    between atoms: C_12  and  C_14
REMARK   11  A    between atoms: C_12  and  N_21
REMARK   12  A    between atoms: C_18  and  O_20
REMARK   13  A    between atoms: N_21  and  C_22
REMARK   14  A    between atoms: C_29  and  C_31
REMARK                            x       y       z     vdW  Elec       q    Type
REMARK                         _______ _______ _______ _____ _____    ______ ____
ROOT
ATOM      1  C   UNL     1       5.272  -0.455  -4.221  0.00  0.00    +0.197 C 
ENDROOT
BRANCH   1   2
ATOM      2  C   UNL     1       5.165  -1.904  -4.619  0.00  0.00    -0.014 A 
ATOM      3  C   UNL     1       6.000  -2.843  -4.042  0.00  0.00    +0.006 A 
ATOM      4  C   UNL     1       5.904  -4.173  -4.406  0.00  0.00    +0.004 A 
ATOM      5  C   UNL     1       4.973  -4.568  -5.347  0.00  0.00    +0.045 A 
ATOM      6  C   UNL     1       4.133  -3.628  -5.927  0.00  0.00    +0.117 A 
ATOM      7  C   UNL     1       4.228  -2.294  -5.556  0.00  0.00    +0.051 A 
BRANCH   6   8
ATOM      8  O   UNL     1       3.217  -4.014  -6.853  0.00  0.00    -0.507 OA
ATOM      9  H   UNL     1       2.359  -4.258  -6.480  0.00  0.00    +0.292 HD
ENDBRANCH   6   8
ENDBRANCH   1   2
BRANCH   1  11
ATOM     10  N   UNL     1       3.619  -0.651  -2.392  0.00  0.00    -0.308 N 
ATOM     11  C   UNL     1       4.861  -0.298  -2.780  0.00  0.00    +0.239 C 
ATOM     12  O   UNL     1       5.646   0.146  -1.970  0.00  0.00    -0.273 OA
ATOM     13  H   UNL     1       2.991  -1.006  -3.040  0.00  0.00    +0.149 HD
BRANCH  10  14
ATOM     14  C   UNL     1       3.219  -0.498  -0.991  0.00  0.00    +0.030 C 
ATOM     15  C   UNL     1       3.471   0.942  -0.542  0.00  0.00    +0.031 C 
ATOM     16  C   UNL     1       4.036  -1.455  -0.120  0.00  0.00    +0.031 C 
BRANCH  14  17
ATOM     17  C   UNL     1       1.731  -0.824  -0.847  0.00  0.00    +0.031 C 
BRANCH  17  19
ATOM     18  C   UNL     1       1.059  -1.041  -3.244  0.00  0.00    +0.010 C 
ATOM     19  C   UNL     1       0.953  -0.169  -1.991  0.00  0.00    -0.036 C 
ATOM     20  C   UNL     1       1.540   1.214  -2.281  0.00  0.00    +0.010 C 
ATOM     21  C   UNL     1      -0.517  -0.026  -1.592  0.00  0.00    +0.010 C 
ENDBRANCH  17  19
ENDBRANCH  14  17
ENDBRANCH  10  14
ENDBRANCH   1  11
BRANCH   1  22
ATOM     22  N   UNL     1       6.657  -0.005  -4.385  0.00  0.00    -0.254 N 
ATOM     23  C   UNL     1       6.977   1.285  -4.160  0.00  0.00    +0.241 C 
ATOM     24  O   UNL     1       6.140   2.053  -3.735  0.00  0.00    -0.273 OA
BRANCH  22  25
ATOM     25  C   UNL     1       7.646  -0.914  -4.775  0.00  0.00    +0.039 A 
ATOM     26  C   UNL     1       8.626  -1.306  -3.871  0.00  0.00    +0.023 A 
ATOM     27  C   UNL     1       9.601  -2.204  -4.258  0.00  0.00    +0.003 A 
ATOM     28  C   UNL     1       9.605  -2.712  -5.545  0.00  0.00    +0.020 A 
ATOM     29  C   UNL     1       8.631  -2.323  -6.448  0.00  0.00    +0.043 A 
ATOM     30  C   UNL     1       7.648  -1.430  -6.064  0.00  0.00    +0.043 A 
ATOM     31 CL   UNL     1       8.640  -2.962  -8.062  0.00  0.00    -0.083 Cl
ENDBRANCH  22  25
BRANCH  23  32
ATOM     32  C   UNL     1       8.376   1.773  -4.438  0.00  0.00    +0.160 C 
ATOM     33  C   UNL     1       9.243   1.662  -3.164  0.00  0.00    +0.041 C 
ATOM     34  C   UNL     1       9.085   3.073  -2.552  0.00  0.00    +0.098 C 
ATOM     35  C   UNL     1       8.746   3.955  -3.733  0.00  0.00    +0.214 C 
ATOM     36  O   UNL     1       8.815   5.166  -3.739  0.00  0.00    -0.276 OA
ATOM     37  N   UNL     1       8.357   3.201  -4.778  0.00  0.00    -0.304 N 
ATOM     38  H   UNL     1       8.098   3.554  -5.644  0.00  0.00    +0.149 HD
ENDBRANCH  23  32
ENDBRANCH   1  22
TORSDOF 9
