REMARK  Name = ZINC00713670
REMARK  3 active torsions:
REMARK  status: ('A' for Active; 'I' for Inactive)
REMARK    1  A    between atoms: N_9  and  C_22
REMARK    2  A    between atoms: C_10  and  C_13
REMARK    3  A    between atoms: C_17  and  N_19
REMARK                            x       y       z     vdW  Elec       q    Type
REMARK                         _______ _______ _______ _____ _____    ______ ____
ROOT
ATOM      1  C   UNL     1       3.762   3.316  -0.160  0.00  0.00    +0.001 A 
ATOM      2  C   UNL     1       2.639   3.997  -0.604  0.00  0.00    +0.002 A 
ATOM      3  C   UNL     1       1.386   3.422  -0.510  0.00  0.00    +0.024 A 
ATOM      4  C   UNL     1       1.252   2.155   0.032  0.00  0.00    +0.041 A 
ATOM      5  C   UNL     1       2.390   1.458   0.475  0.00  0.00    +0.058 A 
ATOM      6  C   UNL     1       3.647   2.051   0.378  0.00  0.00    +0.015 A 
ATOM      7  C   UNL     1       2.215   0.106   1.034  0.00  0.00    +0.254 C 
ATOM      8  O   UNL     1       3.144  -0.456   1.582  0.00  0.00    -0.270 OA
ATOM      9  N   UNL     1       1.017  -0.503   0.930  0.00  0.00    -0.244 N 
ATOM     10  C   UNL     1      -0.058   0.074   0.122  0.00  0.00    +0.198 C 
ATOM     11  N   UNL     1       0.012   1.540   0.156  0.00  0.00    -0.321 N 
ATOM     12  H   UNL     1      -0.794   2.070   0.259  0.00  0.00    +0.148 HD
ENDROOT
BRANCH   9  13
ATOM     13  C   UNL     1       0.797  -1.707   1.607  0.00  0.00    +0.039 A 
ATOM     14  C   UNL     1      -0.236  -1.808   2.531  0.00  0.00    +0.024 A 
ATOM     15  C   UNL     1      -0.454  -3.000   3.193  0.00  0.00    +0.017 A 
ATOM     16  C   UNL     1       0.361  -4.090   2.946  0.00  0.00    +0.018 A 
ATOM     17  C   UNL     1       1.395  -3.991   2.031  0.00  0.00    +0.017 A 
ATOM     18  C   UNL     1       1.614  -2.803   1.361  0.00  0.00    +0.024 A 
ATOM     19 BR   UNL     1       0.064  -5.718   3.860  0.00  0.00    -0.050 Br
ENDBRANCH   9  13
BRANCH  10  20
ATOM     20  C   UNL     1       0.080  -0.399  -1.302  0.00  0.00    -0.007 A 
ATOM     21  C   UNL     1       0.657  -1.626  -1.570  0.00  0.00    +0.007 A 
ATOM     22  C   UNL     1       0.780  -2.062  -2.876  0.00  0.00    +0.003 A 
ATOM     23  C   UNL     1       0.333  -1.267  -3.914  0.00  0.00    +0.033 A 
ATOM     24  C   UNL     1      -0.240  -0.038  -3.647  0.00  0.00    +0.127 A 
ATOM     25  C   UNL     1      -0.366   0.396  -2.340  0.00  0.00    +0.039 A 
BRANCH  24  26
ATOM     26  N   UNL     1      -0.719   0.814  -4.759  0.00  0.00    +0.056 N 
ATOM     27  O   UNL     1      -1.223   1.897  -4.524  0.00  0.00    -0.126 OA
ATOM     28  O   UNL     1      -0.608   0.431  -5.910  0.00  0.00    -0.126 OA
ENDBRANCH  24  26
ENDBRANCH  10  20
TORSDOF 3
