REMARK  Name = ZINC02618335
REMARK  5 active torsions:
REMARK  status: ('A' for Active; 'I' for Inactive)
REMARK    1  A    between atoms: C_1  and  C_2
REMARK    2  A    between atoms: C_5  and  N_8
REMARK    3  A    between atoms: C_18  and  N_19
REMARK    4  A    between atoms: N_19  and  N_20
REMARK    5  A    between atoms: C_21  and  C_23
REMARK                            x       y       z     vdW  Elec       q    Type
REMARK                         _______ _______ _______ _____ _____    ______ ____
ROOT
ATOM      1  N   UNL     1      -6.009   1.686   0.326  0.00  0.00    -0.202 N 
ATOM      2  C   UNL     1      -6.039   3.029   0.338  0.00  0.00    +0.258 C 
ATOM      3  O   UNL     1      -7.108   3.602   0.435  0.00  0.00    -0.269 OA
ATOM      4  C   UNL     1      -4.805   3.817   0.235  0.00  0.00    +0.046 A 
ATOM      5  C   UNL     1      -4.830   5.212   0.247  0.00  0.00    +0.014 A 
ATOM      6  C   UNL     1      -3.649   5.916   0.148  0.00  0.00    +0.001 A 
ATOM      7  C   UNL     1      -2.435   5.253   0.037  0.00  0.00    +0.001 A 
ATOM      8  C   UNL     1      -2.389   3.873   0.023  0.00  0.00    +0.009 A 
ATOM      9  C   UNL     1      -3.569   3.146   0.121  0.00  0.00    +0.000 A 
ATOM     10  C   UNL     1      -3.575   1.668   0.112  0.00  0.00    +0.060 C 
ATOM     11  C   UNL     1      -2.402   0.955   0.003  0.00  0.00    +0.101 C 
ATOM     12  C   UNL     1      -4.869   0.984   0.214  0.00  0.00    +0.259 C 
ATOM     13  O   UNL     1      -4.910  -0.233   0.204  0.00  0.00    -0.269 OA
ENDROOT
BRANCH   1  18
ATOM     14  C   UNL     1     -10.911  -1.142   0.738  0.00  0.00    +0.044 C 
ATOM     15  C   UNL     1      -9.609  -0.391   0.629  0.00  0.00    -0.050 A 
ATOM     16  C   UNL     1      -8.669  -0.488   1.639  0.00  0.00    +0.005 A 
ATOM     17  C   UNL     1      -7.475   0.199   1.541  0.00  0.00    +0.024 A 
ATOM     18  C   UNL     1      -7.219   0.988   0.427  0.00  0.00    +0.045 A 
ATOM     19  C   UNL     1      -8.166   1.087  -0.583  0.00  0.00    +0.024 A 
ATOM     20  C   UNL     1      -9.356   0.393  -0.482  0.00  0.00    +0.005 A 
ENDBRANCH   1  18
BRANCH  11  21
ATOM     21  N   UNL     1      -1.331   1.501  -0.628  0.00  0.00    -0.271 N 
ATOM     22  H   UNL     1      -1.421   2.348  -1.092  0.00  0.00    +0.169 HD
BRANCH  21  23
ATOM     23  N   UNL     1      -0.095   0.841  -0.608  0.00  0.00    -0.234 N 
ATOM     24  C   UNL     1       0.967   1.381  -1.239  0.00  0.00    +0.273 C 
ATOM     25  O   UNL     1       0.854   2.440  -1.819  0.00  0.00    -0.270 OA
ATOM     26  H   UNL     1      -0.004  -0.005  -0.144  0.00  0.00    +0.173 HD
BRANCH  24  27
ATOM     27  C   UNL     1       2.295   0.668  -1.223  0.00  0.00    +0.297 C 
ATOM     28  C   UNL     1       2.182  -0.654  -1.993  0.00  0.00    +0.283 C 
ATOM     29  O   UNL     1       3.461  -1.297  -1.971  0.00  0.00    -0.484 OA
ATOM     30  C   UNL     1       4.541  -0.520  -2.254  0.00  0.00    +0.162 A 
ATOM     31  C   UNL     1       5.742  -1.122  -2.600  0.00  0.00    +0.049 A 
ATOM     32  C   UNL     1       6.849  -0.346  -2.887  0.00  0.00    +0.004 A 
ATOM     33  C   UNL     1       6.763   1.032  -2.830  0.00  0.00    +0.004 A 
ATOM     34  C   UNL     1       5.570   1.639  -2.487  0.00  0.00    +0.049 A 
ATOM     35  C   UNL     1       4.455   0.866  -2.199  0.00  0.00    +0.163 A 
ATOM     36  O   UNL     1       3.285   1.478  -1.865  0.00  0.00    -0.472 OA
ENDBRANCH  24  27
ENDBRANCH  21  23
ENDBRANCH  11  21
TORSDOF 4
