REMARK  Name = ZINC48888779
REMARK  7 active torsions:
REMARK  status: ('A' for Active; 'I' for Inactive)
REMARK    1  A    between atoms: C_1  and  C_2
REMARK    2  A    between atoms: C_7  and  C_10
REMARK    3  A    between atoms: C_11  and  C_13
REMARK    4  A    between atoms: C_13  and  C_14
REMARK    5  A    between atoms: C_13  and  C_15
REMARK    6  A    between atoms: C_13  and  N_16
REMARK    7  A    between atoms: N_19  and  C_20
REMARK                            x       y       z     vdW  Elec       q    Type
REMARK                         _______ _______ _______ _____ _____    ______ ____
ROOT
ATOM      1  C   UNL     1      -0.542  -2.548   4.062  0.00  0.00    +0.039 C 
ATOM      2  C   UNL     1      -1.247  -2.016   2.812  0.00  0.00    +0.133 C 
ATOM      3  C   UNL     1      -0.713  -2.744   1.574  0.00  0.00    +0.139 C 
ATOM      4  N   UNL     1      -1.264  -2.090   0.377  0.00  0.00    -0.295 N 
ATOM      5  C   UNL     1      -1.141  -0.628   0.269  0.00  0.00    +0.139 C 
ATOM      6  C   UNL     1      -1.655  -0.003   1.571  0.00  0.00    +0.133 C 
ATOM      7  O   UNL     1      -0.994  -0.615   2.682  0.00  0.00    -0.371 OA
ATOM      8  C   UNL     1      -3.163  -0.228   1.686  0.00  0.00    +0.039 C 
ATOM      9  C   UNL     1      -1.863  -2.809  -0.593  0.00  0.00    +0.239 C 
ATOM     10  O   UNL     1      -2.358  -2.247  -1.547  0.00  0.00    -0.273 OA
ENDROOT
BRANCH   9  11
ATOM     11  C   UNL     1      -1.917  -4.312  -0.493  0.00  0.00    +0.107 C 
ATOM     12  C   UNL     1      -2.817  -4.864  -1.600  0.00  0.00    +0.041 C 
ATOM     13  C   UNL     1      -0.507  -4.884  -0.648  0.00  0.00    +0.041 C 
BRANCH  11  14
ATOM     14  N   UNL     1      -2.458  -4.695   0.813  0.00  0.00    -0.286 N 
ATOM     15  C   UNL     1      -2.531  -5.996   1.158  0.00  0.00    +0.300 C 
ATOM     16  O   UNL     1      -2.146  -6.851   0.384  0.00  0.00    -0.253 OA
ATOM     17  N   UNL     1      -3.029  -6.348   2.360  0.00  0.00    -0.302 N 
ATOM     18  C   UNL     1      -3.107  -7.762   2.734  0.00  0.00    +0.129 C 
ATOM     19  H   UNL     1      -2.765  -4.012   1.431  0.00  0.00    +0.151 HD
ATOM     20  H   UNL     1      -3.335  -5.665   2.977  0.00  0.00    +0.150 HD
ENDBRANCH  11  14
ENDBRANCH   9  11
TORSDOF 2
