REMARK  Name = ZINC40371081
REMARK  8 active torsions:
REMARK  status: ('A' for Active; 'I' for Inactive)
REMARK    1  A    between atoms: C_1  and  C_2
REMARK    2  A    between atoms: C_6  and  C_9
REMARK    3  A    between atoms: C_7  and  C_8
REMARK    4  A    between atoms: N_11  and  C_12
REMARK    5  A    between atoms: C_12  and  C_13
REMARK    6  A    between atoms: C_12  and  C_14
REMARK    7  A    between atoms: C_12  and  C_15
REMARK    8  A    between atoms: N_16  and  O_17
REMARK                            x       y       z     vdW  Elec       q    Type
REMARK                         _______ _______ _______ _____ _____    ______ ____
ROOT
ATOM      1  C   UNL     1      -0.026  -2.770   2.500  0.00  0.00    +0.245 C 
ATOM      2  O   UNL     1       0.059  -2.145   3.539  0.00  0.00    -0.270 OA
ATOM      3  N   UNL     1      -0.144  -4.113   2.529  0.00  0.00    -0.299 N 
ATOM      4  H   UNL     1      -0.213  -4.611   1.700  0.00  0.00    +0.150 HD
ENDROOT
BRANCH   1  10
ATOM      5  C   UNL     1       0.539   1.455  -0.093  0.00  0.00    +0.044 C 
ATOM      6  C   UNL     1       0.269  -0.027  -0.047  0.00  0.00    -0.047 A 
ATOM      7  C   UNL     1       0.043  -0.724  -1.221  0.00  0.00    +0.003 A 
ATOM      8  C   UNL     1      -0.205  -2.084  -1.188  0.00  0.00    +0.001 A 
ATOM      9  C   UNL     1      -0.229  -2.755   0.017  0.00  0.00    +0.013 A 
ATOM     10  C   UNL     1      -0.002  -2.058   1.205  0.00  0.00    +0.040 A 
ATOM     11  C   UNL     1       0.254  -0.686   1.164  0.00  0.00    -0.035 A 
ATOM     12  C   UNL     1       0.506   0.073   2.441  0.00  0.00    +0.045 C 
ENDBRANCH   1  10
BRANCH   3  13
ATOM     13  C   UNL     1      -0.169  -4.819   3.812  0.00  0.00    +0.087 C 
ATOM     14  C   UNL     1       1.132  -4.545   4.570  0.00  0.00    +0.039 C 
ATOM     15  C   UNL     1      -1.355  -4.325   4.643  0.00  0.00    +0.039 C 
BRANCH  13  16
ATOM     16  C   UNL     1      -0.307  -6.299   3.569  0.00  0.00    +0.155 C 
ATOM     17  N   UNL     1       0.556  -7.120   4.071  0.00  0.00    -0.075 NA
ATOM     18  N   UNL     1      -1.353  -6.778   2.811  0.00  0.00    -0.342 N 
ATOM     19  H   UNL     1      -2.001  -6.162   2.435  0.00  0.00    +0.144 HD
ATOM     20  H   UNL     1      -1.442  -7.731   2.655  0.00  0.00    +0.144 HD
BRANCH  17  21
ATOM     21  O   UNL     1       0.426  -8.511   3.842  0.00  0.00    -0.408 OA
ATOM     22  H   UNL     1       1.118  -9.044   4.257  0.00  0.00    +0.328 HD
ENDBRANCH  17  21
ENDBRANCH  13  16
ENDBRANCH   3  13
TORSDOF 4
