REMARK  Name = ZINC16401481
REMARK  7 active torsions:
REMARK  status: ('A' for Active; 'I' for Inactive)
REMARK    1  A    between atoms: C_1  and  C_2
REMARK    2  A    between atoms: C_2  and  C_4
REMARK    3  A    between atoms: C_2  and  N_11
REMARK    4  A    between atoms: C_12  and  C_14
REMARK    5  A    between atoms: C_14  and  N_15
REMARK    6  A    between atoms: C_18  and  C_22
REMARK    7  A    between atoms: C_18  and  C_23
REMARK                            x       y       z     vdW  Elec       q    Type
REMARK                         _______ _______ _______ _____ _____    ______ ____
ROOT
ATOM      1  C   UNL     1      -3.442  -1.177   1.191  0.00  0.00    +0.213 C 
ENDROOT
BRANCH   1   2
ATOM      2  N   UNL     1      -3.929  -1.240   2.572  0.00  0.00    -0.215 N 
ATOM      3  C   UNL     1      -3.791  -2.314   3.375  0.00  0.00    +0.254 C 
ATOM      4  O   UNL     1      -3.260  -3.369   3.102  0.00  0.00    -0.272 OA
ATOM      5  C   UNL     1      -4.436  -1.927   4.691  0.00  0.00    +0.168 C 
ATOM      6  N   UNL     1      -4.907  -0.551   4.455  0.00  0.00    -0.279 N 
ATOM      7  C   UNL     1      -4.561  -0.238   3.193  0.00  0.00    +0.310 C 
ATOM      8  O   UNL     1      -4.799   0.835   2.674  0.00  0.00    -0.252 OA
ATOM      9  C   UNL     1      -3.407  -1.956   5.823  0.00  0.00    +0.050 C 
ATOM     10  H   UNL     1      -5.373   0.018   5.086  0.00  0.00    +0.152 HD
BRANCH   5  11
ATOM     11  C   UNL     1      -5.595  -2.838   5.001  0.00  0.00    +0.137 A 
ATOM     12  C   UNL     1      -6.695  -2.502   5.698  0.00  0.00    +0.047 A 
ATOM     13  C   UNL     1      -7.515  -3.653   5.749  0.00  0.00    +0.041 A 
ATOM     14  C   UNL     1      -6.867  -4.623   5.080  0.00  0.00    +0.195 A 
ATOM     15  O   UNL     1      -5.707  -4.123   4.625  0.00  0.00    -0.465 OA
ENDBRANCH   5  11
ENDBRANCH   1   2
BRANCH   1  17
ATOM     16  N   UNL     1      -1.372  -0.511   0.012  0.00  0.00    -0.307 N 
ATOM     17  C   UNL     1      -2.029  -0.655   1.181  0.00  0.00    +0.231 C 
ATOM     18  O   UNL     1      -1.481  -0.365   2.224  0.00  0.00    -0.274 OA
ATOM     19  H   UNL     1      -1.810  -0.743  -0.822  0.00  0.00    +0.149 HD
BRANCH  16  21
ATOM     20  C   UNL     1      -0.019   1.526   0.010  0.00  0.00    +0.033 C 
ATOM     21  C   UNL     1       0.002  -0.004   0.002  0.00  0.00    +0.100 C 
BRANCH  21  22
ATOM     22  C   UNL     1       0.707  -0.490  -1.238  0.00  0.00    -0.027 A 
ATOM     23  C   UNL     1       0.037  -0.521  -2.446  0.00  0.00    +0.008 A 
ATOM     24  C   UNL     1       0.683  -0.966  -3.584  0.00  0.00    +0.038 A 
ATOM     25  C   UNL     1       2.002  -1.381  -3.513  0.00  0.00    +0.123 A 
ATOM     26  C   UNL     1       2.673  -1.349  -2.302  0.00  0.00    +0.038 A 
ATOM     27  C   UNL     1       2.026  -0.899  -1.167  0.00  0.00    +0.008 A 
ATOM     28  F   UNL     1       2.635  -1.817  -4.625  0.00  0.00    -0.205 F 
ENDBRANCH  21  22
ENDBRANCH  16  21
ENDBRANCH   1  17
TORSDOF 5
