REMARK  Name = ZINC44805132
REMARK  11 active torsions:
REMARK  status: ('A' for Active; 'I' for Inactive)
REMARK    1  A    between atoms: C_1  and  C_2
REMARK    2  A    between atoms: C_5  and  N_11
REMARK    3  A    between atoms: C_7  and  N_8
REMARK    4  A    between atoms: C_12  and  C_14
REMARK    5  A    between atoms: C_14  and  C_16
REMARK    6  A    between atoms: C_14  and  N_17
REMARK    7  A    between atoms: N_17  and  C_18
REMARK    8  A    between atoms: C_21  and  N_24
REMARK    9  A    between atoms: C_25  and  C_27
REMARK   10  A    between atoms: C_27  and  O_28
REMARK   11  A    between atoms: O_28  and  C_29
REMARK                            x       y       z     vdW  Elec       q    Type
REMARK                         _______ _______ _______ _____ _____    ______ ____
ROOT
ATOM      1  C   UNL     1       0.694  -6.408  -1.627  0.00  0.00    +0.154 C 
ATOM      2  C   UNL     1       2.033  -6.851  -1.034  0.00  0.00    +0.038 C 
ENDROOT
BRANCH   1   4
ATOM      3  N   UNL     1       0.656  -4.264  -0.394  0.00  0.00    -0.284 N 
ATOM      4  C   UNL     1       0.597  -4.905  -1.578  0.00  0.00    +0.237 C 
ATOM      5  O   UNL     1       0.464  -4.272  -2.604  0.00  0.00    -0.273 OA
ATOM      6  H   UNL     1       0.699  -4.772   0.431  0.00  0.00    +0.155 HD
BRANCH   3  11
ATOM      7  C   UNL     1       0.662   1.407  -0.235  0.00  0.00    +0.046 C 
ATOM      8  C   UNL     1       0.660  -0.099  -0.277  0.00  0.00    -0.020 A 
ATOM      9  C   UNL     1      -0.079  -0.762  -1.240  0.00  0.00    +0.007 A 
ATOM     10  C   UNL     1      -0.082  -2.142  -1.281  0.00  0.00    +0.024 A 
ATOM     11  C   UNL     1       0.658  -2.865  -0.355  0.00  0.00    +0.036 A 
ATOM     12  C   UNL     1       1.399  -2.197   0.611  0.00  0.00    +0.056 A 
ATOM     13  C   UNL     1       1.402  -0.816   0.643  0.00  0.00    +0.131 A 
BRANCH  13  14
ATOM     14  N   UNL     1       2.197  -0.102   1.669  0.00  0.00    +0.057 N 
ATOM     15  O   UNL     1       2.594   1.019   1.453  0.00  0.00    -0.126 OA
ATOM     16  O   UNL     1       2.448  -0.641   2.721  0.00  0.00    -0.126 OA
ENDBRANCH  13  14
ENDBRANCH   3  11
ENDBRANCH   1   4
BRANCH   1  17
ATOM     17  N   UNL     1       0.603  -6.858  -3.018  0.00  0.00    -0.333 N 
ATOM     18  H   UNL     1       0.857  -6.261  -3.739  0.00  0.00    +0.147 HD
BRANCH  17  19
ATOM     19  C   UNL     1       0.150  -8.150  -3.307  0.00  0.00    +0.028 A 
ATOM     20  C   UNL     1      -0.218  -9.003  -2.275  0.00  0.00    +0.025 A 
ATOM     21  C   UNL     1      -0.665 -10.278  -2.560  0.00  0.00    +0.025 A 
ATOM     22  C   UNL     1      -0.746 -10.707  -3.878  0.00  0.00    +0.034 A 
ATOM     23  C   UNL     1      -0.377  -9.854  -4.910  0.00  0.00    +0.025 A 
ATOM     24  C   UNL     1       0.064  -8.577  -4.625  0.00  0.00    +0.025 A 
BRANCH  22  25
ATOM     25  N   UNL     1      -1.199 -12.001  -4.168  0.00  0.00    -0.284 N 
ATOM     26  C   UNL     1      -2.154 -12.568  -3.403  0.00  0.00    +0.243 C 
ATOM     27  O   UNL     1      -2.693 -11.922  -2.530  0.00  0.00    -0.273 OA
ATOM     28  H   UNL     1      -0.825 -12.490  -4.918  0.00  0.00    +0.155 HD
BRANCH  26  29
ATOM     29  C   UNL     1      -2.550 -14.003  -3.634  0.00  0.00    +0.255 C 
BRANCH  29  30
ATOM     30  O   UNL     1      -3.573 -14.370  -2.705  0.00  0.00    -0.374 OA
ATOM     31  C   UNL     1      -4.023 -15.719  -2.840  0.00  0.00    +0.194 C 
ENDBRANCH  29  30
ENDBRANCH  26  29
ENDBRANCH  22  25
ENDBRANCH  17  19
ENDBRANCH   1  17
TORSDOF 8
