REMARK  Name = ZINC66441530
REMARK  7 active torsions:
REMARK  status: ('A' for Active; 'I' for Inactive)
REMARK    1  A    between atoms: C_1  and  C_2
REMARK    2  A    between atoms: C_5  and  N_11
REMARK    3  A    between atoms: C_7  and  C_8
REMARK    4  A    between atoms: C_12  and  C_14
REMARK    5  A    between atoms: C_14  and  S_15
REMARK    6  A    between atoms: S_15  and  C_16
REMARK    7  A    between atoms: C_16  and  C_17
REMARK                            x       y       z     vdW  Elec       q    Type
REMARK                         _______ _______ _______ _____ _____    ______ ____
ROOT
ATOM      1  N   UNL     1      -0.039  -3.976  -0.283  0.00  0.00    -0.285 N 
ATOM      2  C   UNL     1      -0.130  -4.590  -1.480  0.00  0.00    +0.227 C 
ATOM      3  O   UNL     1      -0.272  -3.933  -2.489  0.00  0.00    -0.275 OA
ATOM      4  H   UNL     1       0.002  -4.503   0.530  0.00  0.00    +0.155 HD
ENDROOT
BRANCH   1   9
ATOM      5  C   UNL     1       0.084   1.700  -0.027  0.00  0.00    +0.044 C 
ATOM      6  C   UNL     1       0.053   0.194  -0.092  0.00  0.00    -0.038 A 
ATOM      7  C   UNL     1      -0.712  -0.440  -1.050  0.00  0.00    +0.006 A 
ATOM      8  C   UNL     1      -0.743  -1.820  -1.114  0.00  0.00    +0.023 A 
ATOM      9  C   UNL     1      -0.004  -2.579  -0.215  0.00  0.00    +0.034 A 
ATOM     10  C   UNL     1       0.768  -1.952   0.751  0.00  0.00    +0.036 A 
ATOM     11  C   UNL     1       0.804  -0.559   0.812  0.00  0.00    +0.041 A 
BRANCH  11  12
ATOM     12  C   UNL     1       1.629   0.118   1.835  0.00  0.00    +0.242 C 
ATOM     13  O   UNL     1       1.606   1.329   1.931  0.00  0.00    -0.270 OA
ATOM     14  N   UNL     1       2.408  -0.609   2.662  0.00  0.00    -0.325 N 
ATOM     15  H   UNL     1       2.426  -1.576   2.586  0.00  0.00    +0.145 HD
ATOM     16  H   UNL     1       2.949  -0.165   3.333  0.00  0.00    +0.145 HD
ENDBRANCH  11  12
ENDBRANCH   1   9
BRANCH   2  17
ATOM     17  C   UNL     1      -0.054  -6.093  -1.564  0.00  0.00    +0.165 C 
BRANCH  17  18
ATOM     18  S   UNL     1      -0.206  -6.610  -3.296  0.00  0.00    -0.145 S 
BRANCH  18  19
ATOM     19  C   UNL     1      -0.098  -8.420  -3.224  0.00  0.00    +0.125 C 
BRANCH  19  20
ATOM     20  C   UNL     1      -0.211  -8.985  -4.616  0.00  0.00    +0.059 A 
ATOM     21  C   UNL     1       0.901  -9.474  -5.268  0.00  0.00    +0.094 A 
ATOM     22  C   UNL     1       0.776  -9.994  -6.556  0.00  0.00    +0.259 A 
ATOM     23  O   UNL     1       1.757 -10.429  -7.138  0.00  0.00    -0.267 OA
ATOM     24  N   UNL     1      -0.447 -10.017  -7.167  0.00  0.00    -0.262 N 
ATOM     25  C   UNL     1      -0.729 -10.494  -8.424  0.00  0.00    +0.104 A 
ATOM     26  C   UNL     1      -1.970 -10.460  -8.910  0.00  0.00    +0.067 A 
ATOM     27  S   UNL     1      -2.872  -9.717  -7.560  0.00  0.00    -0.058 S 
ATOM     28  C   UNL     1      -1.497  -9.511  -6.448  0.00  0.00    +0.180 A 
ATOM     29  N   UNL     1      -1.388  -9.026  -5.236  0.00  0.00    -0.227 NA
ENDBRANCH  19  20
ENDBRANCH  18  19
ENDBRANCH  17  18
ENDBRANCH   2  17
TORSDOF 6
