REMARK  Name = ZINC43668515
REMARK  5 active torsions:
REMARK  status: ('A' for Active; 'I' for Inactive)
REMARK    1  A    between atoms: C_1  and  C_2
REMARK    2  A    between atoms: C_4  and  N_19
REMARK    3  A    between atoms: N_5  and  C_7
REMARK    4  A    between atoms: C_7  and  C_9
REMARK    5  A    between atoms: C_7  and  C_10
REMARK                            x       y       z     vdW  Elec       q    Type
REMARK                         _______ _______ _______ _____ _____    ______ ____
ROOT
ATOM      1  C   UNL     1       0.053  -3.291   1.500  0.00  0.00    +0.172 C 
ATOM      2  C   UNL     1       1.306  -3.259   2.378  0.00  0.00    +0.041 C 
ENDROOT
BRANCH   1   3
ATOM      3  C   UNL     1      -1.173  -3.292   2.376  0.00  0.00    +0.130 A 
ATOM      4  C   UNL     1      -2.101  -4.259   2.394  0.00  0.00    +0.055 A 
ATOM      5  C   UNL     1      -3.102  -3.847   3.386  0.00  0.00    +0.020 A 
ATOM      6  C   UNL     1      -4.288  -4.402   3.863  0.00  0.00    +0.011 A 
ATOM      7  C   UNL     1      -5.009  -3.742   4.819  0.00  0.00    +0.001 A 
ATOM      8  C   UNL     1      -4.568  -2.524   5.315  0.00  0.00    +0.004 A 
ATOM      9  C   UNL     1      -3.398  -1.959   4.855  0.00  0.00    +0.047 A 
ATOM     10  C   UNL     1      -2.650  -2.614   3.885  0.00  0.00    +0.135 A 
ATOM     11  O   UNL     1      -1.492  -2.327   3.256  0.00  0.00    -0.458 OA
ENDBRANCH   1   3
BRANCH   1  16
ATOM     12  C   UNL     1      -0.018   1.503   0.010  0.00  0.00    +0.069 C 
ATOM     13  C   UNL     1       0.002  -0.004   0.002  0.00  0.00    +0.076 A 
ATOM     14  C   UNL     1       0.008  -0.815  -1.136  0.00  0.00    +0.080 A 
ATOM     15  C   UNL     1       0.027  -2.113  -0.724  0.00  0.00    +0.130 A 
ATOM     16  N   UNL     1       0.034  -2.109   0.634  0.00  0.00    -0.239 N 
ATOM     17  N   UNL     1       0.023  -0.775   1.059  0.00  0.00    -0.173 NA
ATOM     18 BR   UNL     1      -0.009  -0.216  -2.930  0.00  0.00    -0.045 Br
BRANCH  15  19
ATOM     19  N   UNL     1       0.039  -3.238  -1.545  0.00  0.00    -0.342 N 
ATOM     20  H   UNL     1       0.033  -3.135  -2.510  0.00  0.00    +0.144 HD
ATOM     21  H   UNL     1       0.052  -4.125  -1.152  0.00  0.00    +0.144 HD
ENDBRANCH  15  19
ENDBRANCH   1  16
TORSDOF 3
