REMARK  Name = ZINC25365566
REMARK  10 active torsions:
REMARK  status: ('A' for Active; 'I' for Inactive)
REMARK    1  A    between atoms: C_1  and  C_2
REMARK    2  A    between atoms: C_5  and  S_9
REMARK    3  A    between atoms: S_9  and  N_12
REMARK    4  A    between atoms: N_12  and  C_13
REMARK    5  A    between atoms: C_16  and  C_31
REMARK    6  A    between atoms: C_17  and  S_19
REMARK    7  A    between atoms: S_19  and  N_22
REMARK    8  A    between atoms: N_22  and  C_23
REMARK    9  A    between atoms: C_28  and  O_29
REMARK   10  A    between atoms: O_29  and  C_30
REMARK                            x       y       z     vdW  Elec       q    Type
REMARK                         _______ _______ _______ _____ _____    ______ ____
ROOT
ATOM      1  C   UNL     1      -0.655   4.862  -1.675  0.00  0.00    +0.076 A 
ATOM      2  C   UNL     1      -1.893   4.679  -2.278  0.00  0.00    +0.027 A 
ATOM      3  C   UNL     1      -2.760   3.720  -1.793  0.00  0.00    +0.007 A 
ATOM      4  C   UNL     1      -2.397   2.941  -0.709  0.00  0.00    -0.024 A 
ATOM      5  C   UNL     1      -1.165   3.120  -0.108  0.00  0.00    +0.113 A 
ATOM      6  C   UNL     1      -0.295   4.081  -0.584  0.00  0.00    +0.055 A 
ATOM      7  C   UNL     1      -3.346   1.895  -0.183  0.00  0.00    +0.046 C 
ENDROOT
BRANCH   5   8
ATOM      8  S   UNL     1      -0.707   2.126   1.273  0.00  0.00    +0.073 S 
ATOM      9  O   UNL     1       0.597   2.538   1.656  0.00  0.00    -0.150 OA
ATOM     10  O   UNL     1      -1.808   2.147   2.171  0.00  0.00    -0.150 OA
BRANCH   8  11
ATOM     11  N   UNL     1      -0.570   0.567   0.730  0.00  0.00    -0.213 N 
ATOM     12  H   UNL     1      -1.201  -0.224   1.162  0.00  0.00    +0.174 HD
BRANCH  11  13
ATOM     13  C   UNL     1       0.349   0.256  -0.279  0.00  0.00    +0.090 A 
ATOM     14  C   UNL     1       1.523   0.986  -0.400  0.00  0.00    +0.028 A 
ATOM     15  C   UNL     1       2.431   0.674  -1.394  0.00  0.00    +0.002 A 
ATOM     16  C   UNL     1       2.168  -0.358  -2.276  0.00  0.00    +0.004 A 
ATOM     17  C   UNL     1       0.997  -1.086  -2.165  0.00  0.00    +0.047 A 
ATOM     18  C   UNL     1       0.085  -0.783  -1.169  0.00  0.00    +0.142 A 
BRANCH  18  19
ATOM     19  O   UNL     1      -1.067  -1.498  -1.059  0.00  0.00    -0.493 OA
ATOM     20  C   UNL     1      -1.272  -2.549  -2.005  0.00  0.00    +0.277 C 
ENDBRANCH  18  19
ENDBRANCH  11  13
ENDBRANCH   8  11
ENDBRANCH   5   8
BRANCH   1  21
ATOM     21  N   UNL     1       0.225   5.830  -2.163  0.00  0.00    -0.098 NA
BRANCH  21  22
ATOM     22  S   UNL     1      -0.328   7.354  -2.506  0.00  0.00    +0.093 S 
ATOM     23  O   UNL     1      -1.121   7.756  -1.398  0.00  0.00    -0.148 OA
ATOM     24  O   UNL     1       0.795   8.103  -2.950  0.00  0.00    -0.148 OA
BRANCH  22  29
ATOM     25  C   UNL     1      -4.063   6.881  -7.222  0.00  0.00    +0.044 C 
ATOM     26  C   UNL     1      -3.130   6.998  -6.044  0.00  0.00    -0.049 A 
ATOM     27  C   UNL     1      -3.613   7.415  -4.817  0.00  0.00    +0.005 A 
ATOM     28  C   UNL     1      -2.758   7.523  -3.737  0.00  0.00    +0.030 A 
ATOM     29  C   UNL     1      -1.418   7.215  -3.883  0.00  0.00    +0.129 A 
ATOM     30  C   UNL     1      -0.932   6.804  -5.111  0.00  0.00    +0.068 A 
ATOM     31  C   UNL     1      -1.790   6.690  -6.191  0.00  0.00    +0.025 A 
ATOM     32 CL   UNL     1       0.751   6.424  -5.296  0.00  0.00    -0.082 Cl
ENDBRANCH  22  29
ENDBRANCH  21  22
ENDBRANCH   1  21
TORSDOF 7
