REMARK  Name = ZINC40142609
REMARK  10 active torsions:
REMARK  status: ('A' for Active; 'I' for Inactive)
REMARK    1  A    between atoms: C_1  and  C_2
REMARK    2  A    between atoms: C_8  and  C_25
REMARK    3  A    between atoms: C_8  and  C_26
REMARK    4  A    between atoms: C_10  and  N_12
REMARK    5  A    between atoms: C_13  and  C_15
REMARK    6  A    between atoms: C_15  and  C_16
REMARK    7  A    between atoms: C_16  and  C_17
REMARK    8  A    between atoms: C_19  and  C_22
REMARK    9  A    between atoms: C_22  and  C_23
REMARK   10  A    between atoms: C_22  and  C_24
REMARK                            x       y       z     vdW  Elec       q    Type
REMARK                         _______ _______ _______ _____ _____    ______ ____
ROOT
ATOM      1  N   UNL     1      -2.496  -3.308   0.956  0.00  0.00    -0.308 N 
ATOM      2  C   UNL     1      -3.661  -2.739   0.591  0.00  0.00    +0.214 C 
ATOM      3  O   UNL     1      -3.801  -2.310  -0.535  0.00  0.00    -0.276 OA
ATOM      4  H   UNL     1      -2.384  -3.651   1.856  0.00  0.00    +0.149 HD
ENDROOT
BRANCH   1  14
ATOM      5  C   UNL     1      -0.018   1.503   0.010  0.00  0.00    +0.086 C 
ATOM      6  C   UNL     1       0.002  -0.004   0.002  0.00  0.00    +0.103 A 
ATOM      7  C   UNL     1      -1.081  -0.806   0.003  0.00  0.00    +0.050 A 
ATOM      8  C   UNL     1      -0.602  -2.129  -0.007  0.00  0.00    +0.014 A 
ATOM      9  C   UNL     1       0.745  -2.064  -0.014  0.00  0.00    +0.111 A 
ATOM     10  O   UNL     1       1.104  -0.775  -0.013  0.00  0.00    -0.464 OA
ATOM     11  C   UNL     1       1.646  -3.276  -0.028  0.00  0.00    +0.081 C 
ATOM     12  C   UNL     1       0.815  -4.493  -0.450  0.00  0.00    -0.026 C 
ATOM     13  C   UNL     1      -0.462  -4.558   0.393  0.00  0.00    +0.034 C 
ATOM     14  C   UNL     1      -1.397  -3.409  -0.008  0.00  0.00    +0.107 C 
ATOM     15  C   UNL     1       0.444  -4.369  -1.929  0.00  0.00    +0.011 C 
ATOM     16  C   UNL     1       1.633  -5.768  -0.235  0.00  0.00    +0.011 C 
ENDBRANCH   1  14
BRANCH   2  17
ATOM     17  C   UNL     1      -4.792  -2.635   1.582  0.00  0.00    +0.105 C 
BRANCH  17  18
ATOM     18  C   UNL     1      -5.991  -1.954   0.918  0.00  0.00    +0.108 C 
BRANCH  18  19
ATOM     19  C   UNL     1      -7.121  -1.850   1.909  0.00  0.00    +0.228 A 
ATOM     20  N   UNL     1      -7.336  -0.853   2.722  0.00  0.00    -0.196 NA
ATOM     21  C   UNL     1      -8.425  -1.090   3.462  0.00  0.00    +0.174 A 
ATOM     22  N   UNL     1      -8.920  -2.247   3.126  0.00  0.00    -0.061 NA
ATOM     23  O   UNL     1      -8.082  -2.763   2.102  0.00  0.00    -0.338 OA
BRANCH  21  24
ATOM     24  C   UNL     1      -8.989  -0.168   4.513  0.00  0.00    +0.054 C 
ATOM     25  C   UNL     1     -10.417   0.226   4.132  0.00  0.00    +0.015 C 
ATOM     26  C   UNL     1      -9.000  -0.883   5.865  0.00  0.00    +0.015 C 
ENDBRANCH  21  24
ENDBRANCH  18  19
ENDBRANCH  17  18
ENDBRANCH   2  17
TORSDOF 5
