REMARK  Name = ZINC19112881
REMARK  12 active torsions:
REMARK  status: ('A' for Active; 'I' for Inactive)
REMARK    1  A    between atoms: C_1  and  C_2
REMARK    2  A    between atoms: C_2  and  C_3
REMARK    3  A    between atoms: C_2  and  C_4
REMARK    4  A    between atoms: C_2  and  C_25
REMARK    5  A    between atoms: C_4  and  N_5
REMARK    6  A    between atoms: N_5  and  C_6
REMARK    7  A    between atoms: C_6  and  C_7
REMARK    8  A    between atoms: C_10  and  C_23
REMARK    9  A    between atoms: N_12  and  C_22
REMARK   10  A    between atoms: C_13  and  C_15
REMARK   11  A    between atoms: C_23  and  O_24
REMARK   12  A    between atoms: C_25  and  O_26
REMARK                            x       y       z     vdW  Elec       q    Type
REMARK                         _______ _______ _______ _____ _____    ______ ____
ROOT
ATOM      1  C   UNL     1      -4.215  -0.075   2.491  0.00  0.00    -0.005 C 
ATOM      2  C   UNL     1      -4.449   1.457   2.424  0.00  0.00    +0.024 C 
ATOM      3  C   UNL     1      -5.688   1.625   3.339  0.00  0.00    +0.083 C 
ATOM      4  N   UNL     1      -6.519   0.433   3.070  0.00  0.00    -0.293 NA
ATOM      5  C   UNL     1      -5.647  -0.646   2.563  0.00  0.00    +0.091 C 
ATOM      6  C   UNL     1      -7.232   0.004   4.281  0.00  0.00    +0.105 C 
ENDROOT
BRANCH   5   7
ATOM      7  C   UNL     1      -6.101  -1.069   1.190  0.00  0.00    +0.005 A 
ATOM      8  C   UNL     1      -6.840  -0.201   0.408  0.00  0.00    +0.008 A 
ATOM      9  C   UNL     1      -7.256  -0.588  -0.852  0.00  0.00    +0.000 A 
ATOM     10  C   UNL     1      -6.933  -1.844  -1.332  0.00  0.00    +0.003 A 
ATOM     11  C   UNL     1      -6.194  -2.713  -0.553  0.00  0.00    +0.038 A 
ATOM     12  C   UNL     1      -5.772  -2.324   0.708  0.00  0.00    +0.128 A 
ATOM     13  F   UNL     1      -5.045  -3.171   1.469  0.00  0.00    -0.205 F 
ENDBRANCH   5   7
BRANCH   1  14
ATOM     14  C   UNL     1      -3.499  -0.568   1.232  0.00  0.00    -0.077 C 
BRANCH  14  15
ATOM     15  N   UNL     1      -2.121  -0.060   1.222  0.00  0.00    +0.380 N 
ATOM     16  H   UNL     1      -1.633  -0.394   2.039  0.00  0.00    -0.086 HD
ATOM     17  H   UNL     1      -2.135   0.949   1.227  0.00  0.00    -0.086 HD
BRANCH  15  18
ATOM     18  C   UNL     1      -1.433  -0.534   0.013  0.00  0.00    -0.074 C 
BRANCH  18  20
ATOM     19  C   UNL     1      -0.019   1.526   0.010  0.00  0.00    +0.011 C 
ATOM     20  C   UNL     1       0.002  -0.004   0.002  0.00  0.00    -0.027 C 
ATOM     21  C   UNL     1       0.742  -0.511   1.242  0.00  0.00    +0.011 C 
BRANCH  20  22
ATOM     22  C   UNL     1       0.718  -0.497  -1.257  0.00  0.00    +0.160 C 
BRANCH  22  23
ATOM     23  O   UNL     1       2.059  -0.003  -1.267  0.00  0.00    -0.395 OA
ATOM     24  H   UNL     1       2.573  -0.277  -2.038  0.00  0.00    +0.209 HD
ENDBRANCH  22  23
ENDBRANCH  20  22
ENDBRANCH  18  20
ENDBRANCH  15  18
ENDBRANCH  14  15
ENDBRANCH   1  14
BRANCH   3  25
ATOM     25  C   UNL     1      -6.449   2.902   2.975  0.00  0.00    +0.174 C 
BRANCH  25  26
ATOM     26  O   UNL     1      -7.518   3.099   3.903  0.00  0.00    -0.393 OA
ATOM     27  H   UNL     1      -8.045   3.892   3.733  0.00  0.00    +0.209 HD
ENDBRANCH  25  26
ENDBRANCH   3  25
TORSDOF 9
