REMARK  Name = ZINC37064384
REMARK  5 active torsions:
REMARK  status: ('A' for Active; 'I' for Inactive)
REMARK    1  A    between atoms: C_3  and  S_9
REMARK    2  A    between atoms: C_4  and  N_8
REMARK    3  A    between atoms: S_9  and  N_12
REMARK    4  A    between atoms: C_15  and  C_18
REMARK    5  A    between atoms: C_18  and  O_19
REMARK                            x       y       z     vdW  Elec       q    Type
REMARK                         _______ _______ _______ _____ _____    ______ ____
ROOT
ATOM      1  S   UNL     1       3.838   2.277   0.573  0.00  0.00    +0.063 S 
ATOM      2  O   UNL     1       4.746   1.813  -0.416  0.00  0.00    -0.153 OA
ATOM      3  O   UNL     1       3.513   3.652   0.723  0.00  0.00    -0.153 OA
ENDROOT
BRANCH   1   6
ATOM      4  C   UNL     1      -0.063   1.464   0.053  0.00  0.00    +0.017 A 
ATOM      5  C   UNL     1       1.130   2.130   0.268  0.00  0.00    +0.031 A 
ATOM      6  C   UNL     1       2.319   1.427   0.300  0.00  0.00    +0.126 A 
ATOM      7  C   UNL     1       2.316   0.050   0.117  0.00  0.00    +0.052 A 
ATOM      8  C   UNL     1       1.117  -0.616  -0.099  0.00  0.00    +0.040 A 
ATOM      9  C   UNL     1      -0.070   0.092  -0.130  0.00  0.00    +0.020 A 
ATOM     10 BR   UNL     1      -1.704  -0.813  -0.423  0.00  0.00    -0.050 Br
BRANCH   7  11
ATOM     11  N   UNL     1       3.517  -0.663   0.148  0.00  0.00    -0.356 N 
ATOM     12  H   UNL     1       4.361  -0.188   0.190  0.00  0.00    +0.142 HD
ATOM     13  H   UNL     1       3.506  -1.632   0.128  0.00  0.00    +0.142 HD
ENDBRANCH   7  11
ENDBRANCH   1   6
BRANCH   1  14
ATOM     14  N   UNL     1       4.428   1.768   2.034  0.00  0.00    -0.177 NA
ATOM     15  C   UNL     1       3.947   2.369   3.285  0.00  0.00    +0.110 C 
ATOM     16  C   UNL     1       5.154   2.858   4.093  0.00  0.00    +0.023 C 
ATOM     17  C   UNL     1       6.136   1.700   4.288  0.00  0.00    +0.017 C 
ATOM     18  C   UNL     1       6.632   1.216   2.924  0.00  0.00    +0.023 C 
ATOM     19  C   UNL     1       5.438   0.704   2.103  0.00  0.00    +0.110 C 
BRANCH  17  20
ATOM     20  C   UNL     1       7.326   2.176   5.123  0.00  0.00    +0.159 C 
BRANCH  20  21
ATOM     21  O   UNL     1       8.184   1.069   5.404  0.00  0.00    -0.395 OA
ATOM     22  H   UNL     1       8.962   1.298   5.931  0.00  0.00    +0.209 HD
ENDBRANCH  20  21
ENDBRANCH  17  20
ENDBRANCH   1  14
TORSDOF 5
