REMARK  Name = ZINC15996673
REMARK  2 active torsions:
REMARK  status: ('A' for Active; 'I' for Inactive)
REMARK    1  A    between atoms: C_6  and  N_11
REMARK    2  A    between atoms: C_22  and  C_23
REMARK                            x       y       z     vdW  Elec       q    Type
REMARK                         _______ _______ _______ _____ _____    ______ ____
ROOT
ATOM      1  N   UNL     1       4.911  -2.667  -0.057  0.00  0.00    -0.204 N 
ATOM      2  C   UNL     1       6.102  -2.051  -0.157  0.00  0.00    +0.258 C 
ATOM      3  O   UNL     1       6.253  -0.864  -0.384  0.00  0.00    -0.269 OA
ATOM      4  C   UNL     1       7.139  -2.963   0.037  0.00  0.00    +0.081 C 
ATOM      5  H   UNL     1       9.282  -5.200   0.647  0.00  0.00    +0.194 HD
ATOM      6  C   UNL     1       6.470  -4.320  -0.222  0.00  0.00    +0.272 C 
ATOM      7  C   UNL     1       5.025  -4.012   0.033  0.00  0.00    +0.263 C 
ATOM      8  O   UNL     1       4.139  -4.805   0.270  0.00  0.00    -0.271 OA
ATOM      9  O   UNL     1       7.120  -5.117   0.779  0.00  0.00    -0.256 OA
ATOM     10  N   UNL     1       8.478  -4.658   0.614  0.00  0.00    -0.264 N 
ATOM     11  C   UNL     1       8.409  -3.289   0.399  0.00  0.00    +0.080 C 
ENDROOT
BRANCH   1  17
ATOM     12  C   UNL     1      -0.016   1.356   0.037  0.00  0.00    +0.001 A 
ATOM     13  C   UNL     1       1.169   2.090   0.059  0.00  0.00    +0.001 A 
ATOM     14  C   UNL     1       2.378   1.467   0.045  0.00  0.00    +0.008 A 
ATOM     15  C   UNL     1       2.437   0.063   0.008  0.00  0.00    -0.016 A 
ATOM     16  C   UNL     1       3.668  -0.614  -0.006  0.00  0.00    +0.032 A 
ATOM     17  C   UNL     1       3.685  -1.990  -0.043  0.00  0.00    +0.045 A 
ATOM     18  C   UNL     1       2.491  -2.719  -0.065  0.00  0.00    +0.024 A 
ATOM     19  C   UNL     1       1.287  -2.088  -0.052  0.00  0.00    +0.010 A 
ATOM     20  C   UNL     1       1.232  -0.683  -0.014  0.00  0.00    -0.018 A 
ATOM     21  C   UNL     1       0.002  -0.004   0.001  0.00  0.00    +0.008 A 
ENDBRANCH   1  17
BRANCH  11  22
ATOM     22  C   UNL     1       9.532  -2.341   0.541  0.00  0.00    +0.001 A 
ATOM     23  C   UNL     1       9.334  -0.979   0.300  0.00  0.00    +0.013 A 
ATOM     24  C   UNL     1      10.386  -0.098   0.434  0.00  0.00    +0.039 A 
ATOM     25  C   UNL     1      11.638  -0.561   0.805  0.00  0.00    +0.123 A 
ATOM     26  C   UNL     1      11.841  -1.912   1.044  0.00  0.00    +0.039 A 
ATOM     27  C   UNL     1      10.795  -2.801   0.920  0.00  0.00    +0.013 A 
ATOM     28  F   UNL     1      12.666   0.306   0.935  0.00  0.00    -0.205 F 
ENDBRANCH  11  22
TORSDOF 2
