REMARK  Name = ZINC38581131
REMARK  4 active torsions:
REMARK  status: ('A' for Active; 'I' for Inactive)
REMARK    1  A    between atoms: C_1  and  C_2
REMARK    2  A    between atoms: C_4  and  C_19
REMARK    3  A    between atoms: C_24  and  O_25
REMARK    4  A    between atoms: O_25  and  C_26
REMARK                            x       y       z     vdW  Elec       q    Type
REMARK                         _______ _______ _______ _____ _____    ______ ____
ROOT
ATOM      1  C   UNL     1      -0.018   1.503   0.010  0.00  0.00    +0.067 C 
ATOM      2  C   UNL     1       0.002  -0.004   0.002  0.00  0.00    +0.064 C 
ATOM      3  C   UNL     1      -1.064  -0.768   0.003  0.00  0.00    +0.009 C 
ATOM      4  C   UNL     1      -2.533  -0.497   0.158  0.00  0.00    +0.092 C 
ATOM      5  C   UNL     1      -3.071  -1.539   1.119  0.00  0.00    +0.067 A 
ATOM      6  C   UNL     1      -2.337  -2.615   1.516  0.00  0.00    +0.111 A 
ATOM      7  N   UNL     1      -2.909  -3.525   2.383  0.00  0.00    -0.296 N 
ATOM      8  C   UNL     1      -4.160  -3.347   2.841  0.00  0.00    +0.328 A 
ATOM      9  N   UNL     1      -4.890  -2.282   2.465  0.00  0.00    -0.275 N 
ATOM     10  C   UNL     1      -4.378  -1.375   1.612  0.00  0.00    +0.260 A 
ATOM     11  O   UNL     1      -5.044  -0.413   1.270  0.00  0.00    -0.267 OA
ATOM     12  O   UNL     1      -4.638  -4.162   3.606  0.00  0.00    -0.247 OA
ATOM     13  N   UNL     1      -1.042  -2.858   1.117  0.00  0.00    -0.304 N 
ATOM     14  C   UNL     1      -0.528  -2.198  -0.088  0.00  0.00    +0.242 C 
ATOM     15  N   UNL     1       0.921  -1.985  -0.029  0.00  0.00    -0.160 NA
ATOM     16  N   UNL     1       1.127  -0.764  -0.013  0.00  0.00    -0.157 NA
ATOM     17  H   UNL     1      -5.790  -2.168   2.809  0.00  0.00    +0.173 HD
ATOM     18  H   UNL     1      -0.477  -3.459   1.626  0.00  0.00    +0.150 HD
ATOM     19  H   UNL     1      -2.402  -4.302   2.665  0.00  0.00    +0.172 HD
ENDROOT
BRANCH   4  20
ATOM     20  C   UNL     1      -2.745   0.885   0.721  0.00  0.00    +0.006 A 
ATOM     21  C   UNL     1      -2.216   1.218   1.953  0.00  0.00    +0.008 A 
ATOM     22  C   UNL     1      -2.411   2.485   2.471  0.00  0.00    +0.001 A 
ATOM     23  C   UNL     1      -3.135   3.422   1.757  0.00  0.00    +0.004 A 
ATOM     24  C   UNL     1      -3.666   3.094   0.525  0.00  0.00    +0.046 A 
ATOM     25  C   UNL     1      -3.468   1.825   0.001  0.00  0.00    +0.124 A 
BRANCH  25  26
ATOM     26  O   UNL     1      -3.984   1.501  -1.214  0.00  0.00    -0.495 OA
ATOM     27  C   UNL     1      -4.717   2.519  -1.899  0.00  0.00    +0.277 C 
ENDBRANCH  25  26
ENDBRANCH   4  20
TORSDOF 2
