REMARK  Name = ZINC19507731
REMARK  8 active torsions:
REMARK  status: ('A' for Active; 'I' for Inactive)
REMARK    1  A    between atoms: C_1  and  C_2
REMARK    2  A    between atoms: C_5  and  C_19
REMARK    3  A    between atoms: C_6  and  O_8
REMARK    4  A    between atoms: O_8  and  C_9
REMARK    5  A    between atoms: C_10  and  C_15
REMARK    6  A    between atoms: N_16  and  O_17
REMARK    7  A    between atoms: C_19  and  C_20
REMARK    8  A    between atoms: C_19  and  C_21
REMARK                            x       y       z     vdW  Elec       q    Type
REMARK                         _______ _______ _______ _____ _____    ______ ____
ROOT
ATOM      1  C   UNL     1      -2.037   4.146   1.228  0.00  0.00    +0.231 A 
ATOM      2  C   UNL     1      -1.036   5.127   1.249  0.00  0.00    +0.080 A 
ATOM      3  C   UNL     1      -0.620   5.639   2.481  0.00  0.00    +0.018 A 
ATOM      4  C   UNL     1      -1.218   5.152   3.631  0.00  0.00    +0.021 A 
ATOM      5  C   UNL     1      -2.200   4.184   3.529  0.00  0.00    +0.114 A 
ATOM      6  N   UNL     1      -2.572   3.712   2.355  0.00  0.00    -0.220 NA
ENDROOT
BRANCH   2   7
ATOM      7  C   UNL     1      -0.430   5.612  -0.010  0.00  0.00    +0.168 C 
ATOM      8  N   UNL     1      -0.826   5.127  -1.151  0.00  0.00    -0.071 NA
ATOM      9  N   UNL     1       0.558   6.581   0.025  0.00  0.00    -0.340 N 
ATOM     10  H   UNL     1       1.009   6.941  -0.911  0.00  0.00    +0.144 HD
ATOM     11  H   UNL     1       0.893   6.991   0.990  0.00  0.00    +0.144 HD
BRANCH   8  12
ATOM     12  O   UNL     1      -0.246   5.591  -2.357  0.00  0.00    -0.408 OA
ATOM     13  H   UNL     1      -0.580   5.181  -3.321  0.00  0.00    +0.328 HD
ENDBRANCH   8  12
ENDBRANCH   2   7
BRANCH   1  14
ATOM     14  O   UNL     1      -2.454   3.636   0.043  0.00  0.00    -0.437 OA
BRANCH  14  20
ATOM     15  C   UNL     1      -4.075  -0.966   0.173  0.00  0.00    +0.044 C 
ATOM     16  C   UNL     1      -4.328   0.519   0.118  0.00  0.00    -0.047 A 
ATOM     17  C   UNL     1      -5.625   0.997   0.081  0.00  0.00    +0.004 A 
ATOM     18  C   UNL     1      -5.861   2.359   0.031  0.00  0.00    +0.008 A 
ATOM     19  C   UNL     1      -4.801   3.245   0.024  0.00  0.00    -0.002 A 
ATOM     20  C   UNL     1      -3.499   2.767   0.056  0.00  0.00    +0.134 A 
ATOM     21  C   UNL     1      -3.265   1.400   0.106  0.00  0.00    +0.050 A 
BRANCH  19  22
ATOM     22  C   UNL     1      -5.058   4.729  -0.025  0.00  0.00    +0.016 C 
ATOM     23  C   UNL     1      -5.840   5.069  -1.295  0.00  0.00    +0.012 C 
ATOM     24  C   UNL     1      -5.873   5.145   1.202  0.00  0.00    +0.012 C 
ENDBRANCH  19  22
ENDBRANCH  14  20
ENDBRANCH   1  14
TORSDOF 5
