REMARK  Name = ZINC48656848
REMARK  7 active torsions:
REMARK  status: ('A' for Active; 'I' for Inactive)
REMARK    1  A    between atoms: C_1  and  C_2
REMARK    2  A    between atoms: C_4  and  C_26
REMARK    3  A    between atoms: C_7  and  C_11
REMARK    4  A    between atoms: C_11  and  S_12
REMARK    5  A    between atoms: S_12  and  C_13
REMARK    6  A    between atoms: C_16  and  C_19
REMARK    7  A    between atoms: N_17  and  N_18
REMARK                            x       y       z     vdW  Elec       q    Type
REMARK                         _______ _______ _______ _____ _____    ______ ____
ROOT
ATOM      1  C   UNL     1       3.860  -7.298  -1.597  0.00  0.00    +0.209 A 
ATOM      2  N   UNL     1       4.233  -7.870  -0.474  0.00  0.00    -0.121 NA
ATOM      3  N   UNL     1       4.930  -8.921  -0.724  0.00  0.00    -0.127 NA
ATOM      4  C   UNL     1       5.045  -9.085  -2.021  0.00  0.00    +0.182 A 
ATOM      5  N   UNL     1       4.359  -8.053  -2.620  0.00  0.00    -0.224 N 
ENDROOT
BRANCH   4   6
ATOM      6  C   UNL     1       5.769 -10.174  -2.708  0.00  0.00    +0.021 A 
ATOM      7  C   UNL     1       6.083 -10.061  -4.064  0.00  0.00    +0.014 A 
ATOM      8  C   UNL     1       6.760 -11.080  -4.700  0.00  0.00    +0.039 A 
ATOM      9  C   UNL     1       7.128 -12.216  -3.996  0.00  0.00    +0.123 A 
ATOM     10  C   UNL     1       6.819 -12.334  -2.650  0.00  0.00    +0.039 A 
ATOM     11  C   UNL     1       6.148 -11.318  -2.003  0.00  0.00    +0.014 A 
ATOM     12  F   UNL     1       7.791 -13.212  -4.625  0.00  0.00    -0.205 F 
ENDBRANCH   4   6
BRANCH   5  13
ATOM     13  N   UNL     1       4.209  -7.830  -3.960  0.00  0.00    -0.295 N 
ATOM     14  H   UNL     1       4.955  -7.251  -4.315  0.00  0.00    +0.163 HD
ATOM     15  H   UNL     1       4.153  -8.700  -4.467  0.00  0.00    +0.163 HD
ENDBRANCH   5  13
BRANCH   1  16
ATOM     16  S   UNL     1       2.891  -5.835  -1.753  0.00  0.00    -0.078 S 
BRANCH  16  17
ATOM     17  C   UNL     1       2.565  -5.340  -0.039  0.00  0.00    +0.134 C 
BRANCH  17  24
ATOM     18  C   UNL     1      -0.018   1.503   0.010  0.00  0.00    +0.066 C 
ATOM     19  C   UNL     1       0.002  -0.004   0.002  0.00  0.00    +0.044 A 
ATOM     20  C   UNL     1      -1.205  -0.718   0.004  0.00  0.00    +0.044 A 
ATOM     21  C   UNL     1      -1.175  -2.073  -0.004  0.00  0.00    +0.025 A 
ATOM     22  N   UNL     1       0.032  -2.710  -0.014  0.00  0.00    -0.288 N 
ATOM     23  C   UNL     1       0.384  -4.032  -0.022  0.00  0.00    +0.118 A 
ATOM     24  C   UNL     1       1.733  -4.083  -0.029  0.00  0.00    +0.072 A 
ATOM     25  N   UNL     1       2.208  -2.834  -0.025  0.00  0.00    -0.215 NA
ATOM     26  C   UNL     1       1.194  -1.981  -0.015  0.00  0.00    +0.235 A 
ATOM     27  N   UNL     1       1.149  -0.641  -0.012  0.00  0.00    -0.217 NA
ATOM     28  C   UNL     1      -2.457  -2.865  -0.002  0.00  0.00    +0.064 C 
ENDBRANCH  17  24
ENDBRANCH  16  17
ENDBRANCH   1  16
TORSDOF 5
