REMARK  Name = ZINC17121217
REMARK  4 active torsions:
REMARK  status: ('A' for Active; 'I' for Inactive)
REMARK    1  A    between atoms: C_1  and  C_2
REMARK    2  A    between atoms: C_5  and  C_25
REMARK    3  A    between atoms: C_7  and  N_8
REMARK    4  A    between atoms: C_9  and  C_11
REMARK                            x       y       z     vdW  Elec       q    Type
REMARK                         _______ _______ _______ _____ _____    ______ ____
ROOT
ATOM      1  N   UNL     1       7.373   5.139  -0.040  0.00  0.00    -0.284 N 
ATOM      2  C   UNL     1       6.655   6.276  -0.128  0.00  0.00    +0.229 C 
ATOM      3  O   UNL     1       5.443   6.231  -0.118  0.00  0.00    -0.274 OA
ATOM      4  H   UNL     1       8.340   5.179   0.017  0.00  0.00    +0.155 HD
ENDROOT
BRANCH   2   5
ATOM      5  C   UNL     1       7.359   7.604  -0.241  0.00  0.00    +0.142 C 
ATOM      6  C   UNL     1       8.235   7.805   0.965  0.00  0.00    +0.011 A 
ATOM      7  C   UNL     1       9.449   7.146   1.039  0.00  0.00    +0.008 A 
ATOM      8  C   UNL     1      10.268   7.316   2.139  0.00  0.00    +0.001 A 
ATOM      9  C   UNL     1       9.876   8.148   3.171  0.00  0.00    +0.004 A 
ATOM     10  C   UNL     1       8.668   8.809   3.102  0.00  0.00    +0.046 A 
ATOM     11  C   UNL     1       7.841   8.640   1.997  0.00  0.00    +0.133 A 
ATOM     12  O   UNL     1       6.659   9.299   1.949  0.00  0.00    -0.455 OA
ATOM     13  C   UNL     1       6.038   9.493   0.761  0.00  0.00    +0.133 A 
ATOM     14  C   UNL     1       6.335   8.702  -0.337  0.00  0.00    +0.011 A 
ATOM     15  C   UNL     1       5.684   8.919  -1.539  0.00  0.00    +0.008 A 
ATOM     16  C   UNL     1       4.741   9.922  -1.648  0.00  0.00    +0.001 A 
ATOM     17  C   UNL     1       4.443  10.714  -0.554  0.00  0.00    +0.004 A 
ATOM     18  C   UNL     1       5.088  10.502   0.647  0.00  0.00    +0.046 A 
ENDBRANCH   2   5
BRANCH   1  25
ATOM     19  C   UNL     1       8.656   2.942  -1.307  0.00  0.00    +0.045 C 
ATOM     20  C   UNL     1       7.314   2.799  -0.637  0.00  0.00    -0.029 A 
ATOM     21  C   UNL     1       6.675   1.574  -0.628  0.00  0.00    +0.006 A 
ATOM     22  C   UNL     1       5.447   1.436  -0.012  0.00  0.00    +0.010 A 
ATOM     23  C   UNL     1       4.844   2.536   0.595  0.00  0.00    +0.004 A 
ATOM     24  C   UNL     1       5.487   3.770   0.587  0.00  0.00    +0.033 A 
ATOM     25  C   UNL     1       6.722   3.900  -0.030  0.00  0.00    +0.037 A 
BRANCH  23  26
ATOM     26  C   UNL     1       3.522   2.390   1.254  0.00  0.00    +0.091 A 
ATOM     27  C   UNL     1       2.792   1.243   1.331  0.00  0.00    +0.122 A 
ATOM     28  N   UNL     1       1.648   1.544   2.016  0.00  0.00    -0.290 N 
ATOM     29  C   UNL     1       0.569   0.793   2.384  0.00  0.00    +0.095 A 
ATOM     30  C   UNL     1      -0.442   1.383   3.069  0.00  0.00    +0.038 A 
ATOM     31  C   UNL     1      -0.349   2.744   3.393  0.00  0.00    +0.116 A 
ATOM     32  N   UNL     1       0.699   3.443   3.027  0.00  0.00    -0.220 NA
ATOM     33  C   UNL     1       1.704   2.875   2.344  0.00  0.00    +0.235 A 
ATOM     34  N   UNL     1       2.841   3.367   1.876  0.00  0.00    -0.210 NA
ENDBRANCH  23  26
ENDBRANCH   1  25
TORSDOF 3
