REMARK  Name = ZINC20885260
REMARK  10 active torsions:
REMARK  status: ('A' for Active; 'I' for Inactive)
REMARK    1  A    between atoms: C_1  and  O_2
REMARK    2  A    between atoms: O_2  and  C_3
REMARK    3  A    between atoms: C_5  and  C_13
REMARK    4  A    between atoms: C_6  and  O_11
REMARK    5  A    between atoms: C_8  and  O_9
REMARK    6  A    between atoms: O_9  and  C_10
REMARK    7  A    between atoms: O_11  and  C_12
REMARK    8  A    between atoms: N_14  and  N_15
REMARK    9  A    between atoms: C_16  and  C_18
REMARK   10  A    between atoms: C_20  and  N_26
REMARK                            x       y       z     vdW  Elec       q    Type
REMARK                         _______ _______ _______ _____ _____    ______ ____
ROOT
ATOM      1  N   UNL     1      -3.759   6.136   0.073  0.00  0.00    -0.202 N 
ATOM      2  C   UNL     1      -3.773   7.483   0.080  0.00  0.00    +0.283 C 
ATOM      3  O   UNL     1      -2.727   8.103   0.074  0.00  0.00    -0.267 OA
ATOM      4  H   UNL     1      -4.705   5.575   0.079  0.00  0.00    +0.178 HD
ENDROOT
BRANCH   2   5
ATOM      5  C   UNL     1      -5.062   8.209   0.097  0.00  0.00    +0.149 A 
ATOM      6  C   UNL     1      -5.070   9.601   0.111  0.00  0.00    +0.094 A 
ATOM      7  C   UNL     1      -6.294  10.271   0.120  0.00  0.00    +0.067 A 
ATOM      8  C   UNL     1      -7.463   9.511   0.127  0.00  0.00    +0.100 A 
ATOM      9  C   UNL     1      -7.373   8.129   0.119  0.00  0.00    +0.150 A 
ATOM     10  N   UNL     1      -6.203   7.526   0.104  0.00  0.00    -0.228 NA
ATOM     11 CL   UNL     1      -8.825   7.177   0.128  0.00  0.00    -0.060 Cl
ATOM     12 CL   UNL     1      -9.015  10.290   0.147  0.00  0.00    -0.078 Cl
ATOM     13 CL   UNL     1      -3.579  10.491   0.109  0.00  0.00    -0.079 Cl
BRANCH   7  14
ATOM     14  N   UNL     1      -6.347  11.663   0.129  0.00  0.00    -0.356 N 
ATOM     15  H   UNL     1      -7.319  12.177   0.136  0.00  0.00    +0.142 HD
ATOM     16  H   UNL     1      -5.415  12.248   0.128  0.00  0.00    +0.142 HD
ENDBRANCH   7  14
ENDBRANCH   2   5
BRANCH   1  18
ATOM     17  C   UNL     1      -2.524   4.150   0.049  0.00  0.00    +0.142 C 
ATOM     18  N   UNL     1      -2.538   5.448   0.057  0.00  0.00    -0.187 NA
BRANCH  17  21
ATOM     19  C   UNL     1      -0.016   1.357   0.009  0.00  0.00    +0.162 A 
ATOM     20  C   UNL     1      -1.223   2.030   0.019  0.00  0.00    +0.062 A 
ATOM     21  C   UNL     1      -1.241   3.427   0.033  0.00  0.00    +0.040 A 
ATOM     22  C   UNL     1      -0.033   4.139   0.025  0.00  0.00    +0.132 A 
ATOM     23  C   UNL     1       1.170   3.455   0.009  0.00  0.00    +0.095 A 
ATOM     24  C   UNL     1       1.182   2.068   0.002  0.00  0.00    +0.165 A 
BRANCH  19  26
ATOM     25  C   UNL     1      -1.262  -0.670   0.011  0.00  0.00    +0.277 C 
ATOM     26  O   UNL     1       0.002  -0.004   0.002  0.00  0.00    -0.491 OA
ENDBRANCH  19  26
BRANCH  24  27
ATOM     27  O   UNL     1       2.366   1.401  -0.013  0.00  0.00    -0.491 OA
ATOM     28  C   UNL     1       3.556   2.192  -0.020  0.00  0.00    +0.277 C 
ENDBRANCH  24  27
BRANCH  22  29
ATOM     29  O   UNL     1      -0.043   5.497   0.033  0.00  0.00    -0.494 OA
ATOM     30  C   UNL     1       1.225   6.156   0.023  0.00  0.00    +0.277 C 
ENDBRANCH  22  29
ENDBRANCH  17  21
ENDBRANCH   1  18
TORSDOF 7
