REMARK  Name = ZINC41088175
REMARK  5 active torsions:
REMARK  status: ('A' for Active; 'I' for Inactive)
REMARK    1  A    between atoms: C_1  and  C_2
REMARK    2  A    between atoms: C_7  and  O_10
REMARK    3  A    between atoms: O_10  and  C_11
REMARK    4  A    between atoms: C_11  and  C_13
REMARK    5  A    between atoms: C_17  and  N_22
REMARK                            x       y       z     vdW  Elec       q    Type
REMARK                         _______ _______ _______ _____ _____    ______ ____
ROOT
ATOM      1  C   UNL     1       2.794  -4.214  -1.022  0.00  0.00    +0.213 A 
ATOM      2  C   UNL     1       3.478  -5.388  -1.052  0.00  0.00    +0.065 A 
ATOM      3  C   UNL     1       4.014  -5.510  -2.407  0.00  0.00    +0.023 A 
ATOM      4  C   UNL     1       4.792  -6.469  -3.061  0.00  0.00    +0.034 A 
ATOM      5  C   UNL     1       5.138  -6.277  -4.386  0.00  0.00    +0.025 A 
ATOM      6  C   UNL     1       4.714  -5.134  -5.061  0.00  0.00    +0.026 A 
ATOM      7  C   UNL     1       3.948  -4.184  -4.424  0.00  0.00    +0.048 A 
ATOM      8  C   UNL     1       3.588  -4.358  -3.092  0.00  0.00    +0.136 A 
ATOM      9  O   UNL     1       2.860  -3.618  -2.231  0.00  0.00    -0.448 OA
ENDROOT
BRANCH   5  10
ATOM     10  N   UNL     1       5.916  -7.233  -5.049  0.00  0.00    -0.358 N 
ATOM     11  H   UNL     1       6.211  -8.028  -4.580  0.00  0.00    +0.142 HD
ATOM     12  H   UNL     1       6.159  -7.099  -5.979  0.00  0.00    +0.142 HD
ENDBRANCH   5  10
BRANCH   1  13
ATOM     13  C   UNL     1       2.084  -3.679   0.146  0.00  0.00    +0.375 C 
ATOM     14  O   UNL     1       2.085  -4.296   1.193  0.00  0.00    -0.241 OA
BRANCH  13  15
ATOM     15  O   UNL     1       1.432  -2.502   0.057  0.00  0.00    -0.456 OA
BRANCH  15  21
ATOM     16  C   UNL     1      -0.019   1.526   0.010  0.00  0.00    +0.007 C 
ATOM     17  C   UNL     1       0.002  -0.004   0.002  0.00  0.00    -0.011 C 
ATOM     18  C   UNL     1      -1.433  -0.534   0.013  0.00  0.00    +0.003 C 
ATOM     19  C   UNL     1      -1.413  -2.063   0.004  0.00  0.00    +0.004 C 
ATOM     20  C   UNL     1      -0.673  -2.570   1.244  0.00  0.00    +0.045 C 
ATOM     21  C   UNL     1       0.763  -2.041   1.233  0.00  0.00    +0.177 C 
ATOM     22  C   UNL     1       0.742  -0.511   1.242  0.00  0.00    +0.048 C 
ENDBRANCH  15  21
ENDBRANCH  13  15
ENDBRANCH   1  13
TORSDOF 4
