REMARK  Name = ZINC34942844
REMARK  7 active torsions:
REMARK  status: ('A' for Active; 'I' for Inactive)
REMARK    1  A    between atoms: C_1  and  C_2
REMARK    2  A    between atoms: C_2  and  N_3
REMARK    3  A    between atoms: N_6  and  C_7
REMARK    4  A    between atoms: N_6  and  C_18
REMARK    5  A    between atoms: C_7  and  C_8
REMARK    6  A    between atoms: C_8  and  C_9
REMARK    7  A    between atoms: C_14  and  C_17
REMARK                            x       y       z     vdW  Elec       q    Type
REMARK                         _______ _______ _______ _____ _____    ______ ____
ROOT
ATOM      1  N   UNL     1      -0.567  -2.719  -0.148  0.00  0.00    -0.299 N 
ATOM      2  C   UNL     1      -1.595  -1.847  -0.133  0.00  0.00    +0.302 C 
ATOM      3  O   UNL     1      -1.379  -0.651  -0.164  0.00  0.00    -0.253 OA
ATOM      4  N   UNL     1      -2.863  -2.302  -0.085  0.00  0.00    -0.282 N 
ATOM      5  H   UNL     1      -0.735  -3.669  -0.049  0.00  0.00    +0.150 HD
ENDROOT
BRANCH   4   6
ATOM      6  C   UNL     1      -3.983  -1.362  -0.179  0.00  0.00    +0.078 C 
ATOM      7  C   UNL     1      -3.882  -0.579  -1.490  0.00  0.00    +0.022 C 
ATOM      8  C   UNL     1      -5.051   0.403  -1.589  0.00  0.00    +0.002 C 
ATOM      9  C   UNL     1      -5.001   1.375  -0.409  0.00  0.00    +0.000 C 
ATOM     10  C   UNL     1      -5.102   0.593   0.901  0.00  0.00    +0.002 C 
ATOM     11  C   UNL     1      -3.933  -0.389   1.000  0.00  0.00    +0.022 C 
ENDBRANCH   4   6
BRANCH   1  13
ATOM     12  C   UNL     1       1.773  -3.415  -0.294  0.00  0.00    +0.024 C 
ATOM     13  C   UNL     1       0.804  -2.230  -0.312  0.00  0.00    +0.102 C 
ENDBRANCH   1  13
BRANCH   4  14
ATOM     14  C   UNL     1      -3.122  -3.736   0.063  0.00  0.00    +0.119 C 
BRANCH  14  15
ATOM     15  C   UNL     1      -3.210  -4.089   1.549  0.00  0.00    +0.115 C 
BRANCH  15  16
ATOM     16  C   UNL     1      -3.476  -5.564   1.700  0.00  0.00    +0.217 C 
ATOM     17  O   UNL     1      -3.584  -6.265   0.717  0.00  0.00    -0.276 OA
ATOM     18  N   UNL     1      -3.593  -6.105   2.929  0.00  0.00    -0.301 N 
ATOM     19  C   UNL     1      -3.470  -5.268   4.131  0.00  0.00    +0.108 C 
ATOM     20  C   UNL     1      -4.708  -5.479   5.007  0.00  0.00    +0.022 C 
ATOM     21  C   UNL     1      -4.875  -6.972   5.297  0.00  0.00    -0.011 C 
ATOM     22  C   UNL     1      -5.080  -7.728   3.982  0.00  0.00    +0.022 C 
ATOM     23  C   UNL     1      -3.852  -7.542   3.093  0.00  0.00    +0.108 C 
ATOM     24  C   UNL     1      -6.092  -7.183   6.201  0.00  0.00    +0.007 C 
ENDBRANCH  15  16
ENDBRANCH  14  15
ENDBRANCH   4  14
TORSDOF 5
