REMARK  Name = ZINC48515326
REMARK  5 active torsions:
REMARK  status: ('A' for Active; 'I' for Inactive)
REMARK    1  A    between atoms: C_1  and  C_2
REMARK    2  A    between atoms: N_14  and  C_15
REMARK    3  A    between atoms: C_19  and  O_21
REMARK    4  A    between atoms: O_21  and  C_22
REMARK    5  A    between atoms: C_22  and  C_23
REMARK                            x       y       z     vdW  Elec       q    Type
REMARK                         _______ _______ _______ _____ _____    ______ ____
ROOT
ATOM      1  C   UNL     1      -1.162   1.225   1.434  0.00  0.00    +0.033 C 
ATOM      2  C   UNL     1      -0.791  -0.178   0.950  0.00  0.00    +0.105 C 
ATOM      3  C   UNL     1      -1.899  -1.163   1.321  0.00  0.00    -0.017 A 
ATOM      4  C   UNL     1      -3.251  -0.914   1.089  0.00  0.00    +0.013 A 
ATOM      5  C   UNL     1      -4.178  -1.834   1.440  0.00  0.00    +0.046 A 
ATOM      6  S   UNL     1      -3.164  -3.132   2.133  0.00  0.00    -0.101 S 
ATOM      7  C   UNL     1      -1.588  -2.351   1.906  0.00  0.00    -0.004 A 
ATOM      8  C   UNL     1      -0.235  -2.868   2.273  0.00  0.00    +0.062 C 
ATOM      9  C   UNL     1       0.826  -2.040   1.532  0.00  0.00    +0.115 C 
ATOM     10  N   UNL     1       0.444  -0.622   1.610  0.00  0.00    -0.278 N 
ATOM     11  C   UNL     1       1.216   0.258   2.277  0.00  0.00    +0.307 C 
ATOM     12  O   UNL     1       0.851   1.411   2.408  0.00  0.00    -0.252 OA
ATOM     13  N   UNL     1       2.393  -0.139   2.800  0.00  0.00    -0.269 N 
ATOM     14  H   UNL     1       2.722  -1.035   2.629  0.00  0.00    +0.156 HD
ENDROOT
BRANCH  13  15
ATOM     15  C   UNL     1       3.142   0.742   3.589  0.00  0.00    +0.038 A 
ATOM     16  C   UNL     1       3.136   2.103   3.308  0.00  0.00    +0.023 A 
ATOM     17  C   UNL     1       3.875   2.972   4.087  0.00  0.00    +0.005 A 
ATOM     18  C   UNL     1       4.621   2.491   5.146  0.00  0.00    +0.046 A 
ATOM     19  C   UNL     1       4.630   1.133   5.431  0.00  0.00    +0.124 A 
ATOM     20  C   UNL     1       3.885   0.259   4.656  0.00  0.00    +0.069 A 
BRANCH  19  21
ATOM     21  O   UNL     1       5.365   0.662   6.473  0.00  0.00    -0.477 OA
BRANCH  21  22
ATOM     22  C   UNL     1       6.103   1.621   7.232  0.00  0.00    +0.346 C 
BRANCH  22  23
ATOM     23  C   UNL     1       6.833   0.936   8.311  0.00  0.00    +0.104 C 
ATOM     24  N   UNL     1       7.396   0.407   9.144  0.00  0.00    -0.193 NA
ENDBRANCH  22  23
ENDBRANCH  21  22
ENDBRANCH  19  21
ENDBRANCH  13  15
TORSDOF 4
