REMARK  Name = ZINC13879003
REMARK  6 active torsions:
REMARK  status: ('A' for Active; 'I' for Inactive)
REMARK    1  A    between atoms: C_1  and  C_2
REMARK    2  A    between atoms: C_5  and  C_7
REMARK    3  A    between atoms: N_8  and  N_9
REMARK    4  A    between atoms: N_9  and  C_10
REMARK    5  A    between atoms: C_10  and  N_12
REMARK    6  A    between atoms: N_12  and  C_13
REMARK                            x       y       z     vdW  Elec       q    Type
REMARK                         _______ _______ _______ _____ _____    ______ ____
ROOT
ATOM      1  N   UNL     1       3.819  -4.119  -0.038  0.00  0.00    -0.218 N 
ATOM      2  H   UNL     1       3.465  -5.021  -0.041  0.00  0.00    +0.176 HD
ENDROOT
BRANCH   1   4
ATOM      3  C   UNL     1       1.659  -3.217  -0.023  0.00  0.00    +0.176 C 
ATOM      4  N   UNL     1       2.945  -3.023  -0.028  0.00  0.00    -0.185 NA
BRANCH   3   9
ATOM      5  C   UNL     1      -0.018   1.503   0.010  0.00  0.00    +0.086 C 
ATOM      6  C   UNL     1       0.002  -0.004   0.002  0.00  0.00    +0.103 A 
ATOM      7  C   UNL     1      -1.083  -0.804   0.003  0.00  0.00    +0.045 A 
ATOM      8  C   UNL     1      -0.618  -2.132  -0.007  0.00  0.00    +0.051 A 
ATOM      9  C   UNL     1       0.745  -2.071  -0.013  0.00  0.00    +0.148 A 
ATOM     10  O   UNL     1       1.104  -0.771  -0.013  0.00  0.00    -0.459 OA
ENDBRANCH   3   9
ENDBRANCH   1   4
BRANCH   1  11
ATOM     11  C   UNL     1       5.152  -3.918  -0.043  0.00  0.00    +0.150 C 
ATOM     12  S   UNL     1       6.219  -5.256  -0.055  0.00  0.00    -0.017 S 
BRANCH  11  13
ATOM     13  N   UNL     1       5.644  -2.663  -0.039  0.00  0.00    -0.322 N 
ATOM     14  H   UNL     1       5.039  -1.905  -0.032  0.00  0.00    +0.148 HD
BRANCH  13  15
ATOM     15  C   UNL     1       7.093  -2.445  -0.044  0.00  0.00    +0.072 C 
ATOM     16  C   UNL     1       7.622  -2.501   1.390  0.00  0.00    +0.022 C 
ATOM     17  C   UNL     1       9.135  -2.273   1.384  0.00  0.00    +0.002 C 
ATOM     18  C   UNL     1       9.442  -0.901   0.781  0.00  0.00    +0.000 C 
ATOM     19  C   UNL     1       8.912  -0.845  -0.653  0.00  0.00    +0.002 C 
ATOM     20  C   UNL     1       7.399  -1.073  -0.648  0.00  0.00    +0.022 C 
ENDBRANCH  13  15
ENDBRANCH  11  13
ENDBRANCH   1  11
TORSDOF 5
