REMARK  Name = ZINC40138225
REMARK  8 active torsions:
REMARK  status: ('A' for Active; 'I' for Inactive)
REMARK    1  A    between atoms: C_1  and  C_2
REMARK    2  A    between atoms: C_6  and  O_8
REMARK    3  A    between atoms: O_8  and  C_9
REMARK    4  A    between atoms: C_9  and  C_10
REMARK    5  A    between atoms: C_10  and  C_11
REMARK    6  A    between atoms: C_11  and  N_12
REMARK    7  A    between atoms: N_20  and  N_21
REMARK    8  A    between atoms: C_22  and  C_24
REMARK                            x       y       z     vdW  Elec       q    Type
REMARK                         _______ _______ _______ _____ _____    ______ ____
ROOT
ATOM      1  N   UNL     1       0.116  -6.893   4.943  0.00  0.00    -0.265 N 
ATOM      2  C   UNL     1       1.273  -7.177   5.661  0.00  0.00    +0.046 A 
ATOM      3  C   UNL     1       2.618  -7.022   5.345  0.00  0.00    +0.024 A 
ATOM      4  C   UNL     1       3.590  -7.390   6.253  0.00  0.00    +0.002 A 
ATOM      5  C   UNL     1       3.241  -7.915   7.486  0.00  0.00    +0.001 A 
ATOM      6  C   UNL     1       1.910  -8.077   7.817  0.00  0.00    +0.012 A 
ATOM      7  C   UNL     1       0.924  -7.709   6.909  0.00  0.00    +0.028 A 
ATOM      8  C   UNL     1      -0.556  -7.750   6.947  0.00  0.00    +0.153 C 
ATOM      9  N   UNL     1      -1.318  -8.174   7.926  0.00  0.00    -0.175 NA
ATOM     10  C   UNL     1      -0.987  -7.201   5.645  0.00  0.00    +0.271 C 
ATOM     11  O   UNL     1      -2.136  -7.057   5.273  0.00  0.00    -0.268 OA
ENDROOT
BRANCH   9  12
ATOM     12  N   UNL     1      -2.713  -8.142   7.793  0.00  0.00    -0.206 N 
ATOM     13  C   UNL     1      -3.496  -8.578   8.799  0.00  0.00    +0.235 C 
ATOM     14  O   UNL     1      -2.994  -8.999   9.819  0.00  0.00    -0.274 OA
ATOM     15  H   UNL     1      -3.114  -7.804   6.977  0.00  0.00    +0.177 HD
BRANCH  13  16
ATOM     16  C   UNL     1      -4.996  -8.543   8.656  0.00  0.00    +0.077 C 
ATOM     17  C   UNL     1      -5.453  -7.100   8.431  0.00  0.00    +0.013 C 
ATOM     18  C   UNL     1      -6.975  -7.064   8.286  0.00  0.00    +0.001 C 
ATOM     19  C   UNL     1      -7.622  -7.612   9.560  0.00  0.00    +0.000 C 
ATOM     20  C   UNL     1      -7.165  -9.054   9.785  0.00  0.00    +0.001 C 
ATOM     21  C   UNL     1      -5.642  -9.090   9.930  0.00  0.00    +0.013 C 
ENDBRANCH  13  16
ENDBRANCH   9  12
BRANCH   1  22
ATOM     22  C   UNL     1       0.103  -6.324   3.593  0.00  0.00    +0.117 C 
BRANCH  22  23
ATOM     23  C   UNL     1       0.083  -4.796   3.683  0.00  0.00    +0.060 C 
BRANCH  23  24
ATOM     24  C   UNL     1       0.069  -4.202   2.274  0.00  0.00    +0.230 C 
BRANCH  24  25
ATOM     25  O   UNL     1       0.050  -2.776   2.358  0.00  0.00    -0.492 OA
BRANCH  25  31
ATOM     26  C   UNL     1      -0.018   1.503   0.010  0.00  0.00    +0.044 C 
ATOM     27  C   UNL     1       0.002  -0.004   0.002  0.00  0.00    -0.047 A 
ATOM     28  C   UNL     1       0.006  -0.688  -1.200  0.00  0.00    +0.003 A 
ATOM     29  C   UNL     1       0.024  -2.071  -1.211  0.00  0.00    +0.004 A 
ATOM     30  C   UNL     1       0.039  -2.772  -0.020  0.00  0.00    +0.045 A 
ATOM     31  C   UNL     1       0.035  -2.088   1.186  0.00  0.00    +0.121 A 
ATOM     32  C   UNL     1       0.023  -0.700   1.195  0.00  0.00    +0.049 A 
ENDBRANCH  25  31
ENDBRANCH  24  25
ENDBRANCH  23  24
ENDBRANCH  22  23
ENDBRANCH   1  22
TORSDOF 7
