REMARK  Name = ZINC19761275
REMARK  6 active torsions:
REMARK  status: ('A' for Active; 'I' for Inactive)
REMARK    1  A    between atoms: C_6  and  C_7
REMARK    2  A    between atoms: N_9  and  C_14
REMARK    3  A    between atoms: C_14  and  C_15
REMARK    4  A    between atoms: C_15  and  C_17
REMARK    5  A    between atoms: C_15  and  O_19
REMARK    6  A    between atoms: C_17  and  O_18
REMARK                            x       y       z     vdW  Elec       q    Type
REMARK                         _______ _______ _______ _____ _____    ______ ____
ROOT
ATOM      1  C   UNL     1      -1.216   1.747   0.017  0.00  0.00    +0.015 A 
ATOM      2  C   UNL     1      -0.013   1.076   0.008  0.00  0.00    +0.048 A 
ATOM      3  C   UNL     1       1.180   1.785   0.000  0.00  0.00    +0.143 A 
ATOM      4  C   UNL     1       1.166   3.183   0.008  0.00  0.00    +0.079 A 
ATOM      5  C   UNL     1      -0.034   3.863   0.023  0.00  0.00    +0.038 A 
ATOM      6  C   UNL     1      -1.238   3.147   0.031  0.00  0.00    +0.016 A 
ATOM      7  N   UNL     1       2.383   3.880   0.002  0.00  0.00    -0.263 N 
ATOM      8  C   UNL     1       3.514   3.220  -0.329  0.00  0.00    +0.258 C 
ATOM      9  O   UNL     1       4.582   3.794  -0.313  0.00  0.00    -0.272 OA
ATOM     10  C   UNL     1       3.442   1.765  -0.719  0.00  0.00    +0.325 C 
ATOM     11  O   UNL     1       2.370   1.131  -0.017  0.00  0.00    -0.481 OA
ENDROOT
BRANCH   6  12
ATOM     12  C   UNL     1      -2.520   3.862   0.046  0.00  0.00    +0.258 C 
ATOM     13  O   UNL     1      -2.538   5.075   0.052  0.00  0.00    -0.296 OA
ENDBRANCH   6  12
BRANCH   7  14
ATOM     14  C   UNL     1       2.427   5.303   0.349  0.00  0.00    +0.147 C 
BRANCH  14  15
ATOM     15  C   UNL     1       2.647   5.454   1.855  0.00  0.00    +0.157 C 
BRANCH  15  16
ATOM     16  O   UNL     1       3.935   4.940   2.202  0.00  0.00    -0.388 OA
ATOM     17  H   UNL     1       4.272   4.963   3.249  0.00  0.00    +0.210 HD
ENDBRANCH  15  16
BRANCH  15  18
ATOM     18  C   UNL     1       2.569   6.933   2.237  0.00  0.00    +0.188 C 
BRANCH  18  19
ATOM     19  O   UNL     1       2.659   7.064   3.657  0.00  0.00    -0.392 OA
ATOM     20  H   UNL     1       2.620   8.061   4.121  0.00  0.00    +0.210 HD
ENDBRANCH  18  19
ENDBRANCH  15  18
ENDBRANCH  14  15
ENDBRANCH   7  14
TORSDOF 6
