REMARK  Name = ZINC65124788
REMARK  12 active torsions:
REMARK  status: ('A' for Active; 'I' for Inactive)
REMARK    1  A    between atoms: C_1  and  C_2
REMARK    2  A    between atoms: C_2  and  N_3
REMARK    3  A    between atoms: N_3  and  C_4
REMARK    4  A    between atoms: N_3  and  C_6
REMARK    5  A    between atoms: C_4  and  C_5
REMARK    6  A    between atoms: C_6  and  C_7
REMARK    7  A    between atoms: C_10  and  C_12
REMARK    8  A    between atoms: N_14  and  N_15
REMARK    9  A    between atoms: C_16  and  C_18
REMARK   10  A    between atoms: C_18  and  N_26
REMARK   11  A    between atoms: C_19  and  C_20
REMARK   12  A    between atoms: C_27  and  C_29
REMARK                            x       y       z     vdW  Elec       q    Type
REMARK                         _______ _______ _______ _____ _____    ______ ____
ROOT
ATOM      1  N   UNL     1      -5.857  -5.602   4.580  0.00  0.00    -0.229 N 
ATOM      2  C   UNL     1      -5.858  -5.389   5.911  0.00  0.00    +0.274 C 
ATOM      3  O   UNL     1      -4.870  -4.934   6.455  0.00  0.00    -0.267 OA
ATOM      4  H   UNL     1      -6.645  -5.965   4.146  0.00  0.00    +0.173 HD
ENDROOT
BRANCH   1   7
ATOM      5  C   UNL     1      -4.717  -5.511   2.492  0.00  0.00    +0.295 C 
ATOM      6  O   UNL     1      -5.705  -5.967   1.948  0.00  0.00    -0.265 OA
ATOM      7  N   UNL     1      -4.718  -5.298   3.823  0.00  0.00    -0.228 N 
ATOM      8  H   UNL     1      -3.930  -4.934   4.256  0.00  0.00    +0.173 HD
BRANCH   5  12
ATOM      9  C   UNL     1      -1.504  -4.524   1.165  0.00  0.00    +0.090 A 
ATOM     10  C   UNL     1      -2.095  -4.928   0.019  0.00  0.00    +0.043 A 
ATOM     11  C   UNL     1      -3.389  -5.358   0.351  0.00  0.00    +0.055 A 
ATOM     12  C   UNL     1      -3.524  -5.192   1.700  0.00  0.00    +0.191 A 
ATOM     13  O   UNL     1      -2.367  -4.689   2.176  0.00  0.00    -0.457 OA
BRANCH   9  14
ATOM     14  C   UNL     1      -0.103  -3.982   1.286  0.00  0.00    -0.003 C 
BRANCH  14  15
ATOM     15  N   UNL     1      -0.109  -2.540   1.005  0.00  0.00    +0.384 N 
ATOM     16  H   UNL     1      -0.525  -2.376   0.100  0.00  0.00    -0.081 HD
BRANCH  15  18
ATOM     17  C   UNL     1      -1.001  -0.360   1.677  0.00  0.00    -0.017 C 
ATOM     18  C   UNL     1      -0.889  -1.843   2.036  0.00  0.00    -0.082 C 
ENDBRANCH  15  18
BRANCH  15  19
ATOM     19  C   UNL     1       1.270  -2.035   1.008  0.00  0.00    -0.082 C 
ATOM     20  C   UNL     1       2.048  -2.666  -0.148  0.00  0.00    -0.017 C 
ENDBRANCH  15  19
ENDBRANCH  14  15
ENDBRANCH   9  14
ENDBRANCH   5  12
ENDBRANCH   1   7
BRANCH   2  21
ATOM     21  C   UNL     1      -7.053  -5.709   6.705  0.00  0.00    +0.098 C 
ATOM     22  C   UNL     1      -7.112  -5.356   8.010  0.00  0.00    +0.036 C 
BRANCH  22  23
ATOM     23  C   UNL     1      -6.116  -4.428   8.567  0.00  0.00    -0.023 A 
ATOM     24  C   UNL     1      -5.739  -3.288   7.850  0.00  0.00    +0.008 A 
ATOM     25  C   UNL     1      -4.804  -2.423   8.379  0.00  0.00    +0.001 A 
ATOM     26  C   UNL     1      -4.240  -2.680   9.616  0.00  0.00    +0.000 A 
ATOM     27  C   UNL     1      -4.608  -3.807  10.332  0.00  0.00    +0.001 A 
ATOM     28  C   UNL     1      -5.545  -4.679   9.819  0.00  0.00    +0.008 A 
ENDBRANCH  22  23
BRANCH  21  29
ATOM     29  N   UNL     1      -8.130  -6.377   6.112  0.00  0.00    -0.282 N 
ATOM     30  C   UNL     1      -7.946  -7.593   5.560  0.00  0.00    +0.214 C 
ATOM     31  O   UNL     1      -6.873  -8.148   5.659  0.00  0.00    -0.276 OA
ATOM     32  C   UNL     1      -9.076  -8.262   4.821  0.00  0.00    +0.109 C 
ATOM     33  H   UNL     1      -9.008  -5.965   6.097  0.00  0.00    +0.155 HD
ENDBRANCH  21  29
ENDBRANCH   2  21
TORSDOF 9
