REMARK  Name = ZINC08782372
REMARK  7 active torsions:
REMARK  status: ('A' for Active; 'I' for Inactive)
REMARK    1  A    between atoms: C_1  and  C_2
REMARK    2  A    between atoms: C_4  and  C_28
REMARK    3  A    between atoms: C_6  and  C_18
REMARK    4  A    between atoms: C_21  and  C_24
REMARK    5  A    between atoms: C_24  and  O_26
REMARK    6  A    between atoms: O_26  and  C_27
REMARK    7  A    between atoms: C_28  and  C_30
REMARK                            x       y       z     vdW  Elec       q    Type
REMARK                         _______ _______ _______ _____ _____    ______ ____
ROOT
ATOM      1  C   UNL     1      -0.026   1.513   0.045  0.00  0.00    +0.028 C 
ATOM      2  C   UNL     1      -0.006  -0.016   0.021  0.00  0.00    +0.083 C 
ATOM      3  C   UNL     1      -1.437  -0.551   0.149  0.00  0.00    +0.107 C 
ATOM      4  C   UNL     1      -1.427  -2.081   0.053  0.00  0.00    +0.133 C 
ATOM      5  N   UNL     1      -0.414  -2.608   0.972  0.00  0.00    -0.305 N 
ATOM      6  C   UNL     1      -0.285  -3.870   1.483  0.00  0.00    +0.069 A 
ATOM      7  C   UNL     1      -1.025  -5.035   1.317  0.00  0.00    +0.028 A 
ATOM      8  C   UNL     1      -0.596  -6.158   2.007  0.00  0.00    +0.002 A 
ATOM      9  C   UNL     1       0.519  -6.134   2.826  0.00  0.00    +0.002 A 
ATOM     10  C   UNL     1       1.272  -4.988   3.007  0.00  0.00    +0.028 A 
ATOM     11  C   UNL     1       0.857  -3.841   2.320  0.00  0.00    +0.065 A 
ATOM     12  N   UNL     1       1.357  -2.590   2.275  0.00  0.00    -0.327 N 
ATOM     13  C   UNL     1       0.619  -1.857   1.484  0.00  0.00    +0.175 A 
ATOM     14  N   UNL     1       0.791  -0.519   1.155  0.00  0.00    -0.313 N 
ATOM     15  H   UNL     1       1.400   0.054   1.646  0.00  0.00    +0.149 HD
ATOM     16  H   UNL     1       2.142  -2.281   2.755  0.00  0.00    +0.169 HD
ENDROOT
BRANCH   4  17
ATOM     17  C   UNL     1      -2.783  -2.619   0.431  0.00  0.00    -0.024 A 
ATOM     18  C   UNL     1      -3.300  -2.361   1.688  0.00  0.00    +0.006 A 
ATOM     19  C   UNL     1      -4.541  -2.851   2.041  0.00  0.00    +0.015 A 
ATOM     20  C   UNL     1      -5.275  -3.608   1.125  0.00  0.00    +0.059 A 
ATOM     21  C   UNL     1      -4.746  -3.865  -0.141  0.00  0.00    +0.015 A 
ATOM     22  C   UNL     1      -3.507  -3.364  -0.483  0.00  0.00    +0.006 A 
BRANCH  20  23
ATOM     23  C   UNL     1      -6.604  -4.136   1.496  0.00  0.00    +0.339 C 
ATOM     24  O   UNL     1      -7.060  -3.912   2.599  0.00  0.00    -0.245 OA
BRANCH  23  25
ATOM     25  O   UNL     1      -7.309  -4.866   0.611  0.00  0.00    -0.464 OA
ATOM     26  C   UNL     1      -8.586  -5.345   1.036  0.00  0.00    +0.280 C 
ENDBRANCH  23  25
ENDBRANCH  20  23
ENDBRANCH   4  17
BRANCH   3  27
ATOM     27  C   UNL     1      -2.285   0.014  -0.961  0.00  0.00    +0.170 C 
ATOM     28  O   UNL     1      -2.048  -0.279  -2.114  0.00  0.00    -0.292 OA
BRANCH  27  29
ATOM     29  C   UNL     1      -3.400   0.921  -0.646  0.00  0.00    +0.018 A 
ATOM     30  C   UNL     1      -3.599   1.361   0.667  0.00  0.00    +0.011 A 
ATOM     31  C   UNL     1      -4.646   2.211   0.954  0.00  0.00    +0.001 A 
ATOM     32  C   UNL     1      -5.498   2.630  -0.053  0.00  0.00    +0.000 A 
ATOM     33  C   UNL     1      -5.307   2.200  -1.355  0.00  0.00    +0.001 A 
ATOM     34  C   UNL     1      -4.262   1.354  -1.659  0.00  0.00    +0.011 A 
ENDBRANCH  27  29
ENDBRANCH   3  27
TORSDOF 5
