REMARK  Name = ZINC35270813
REMARK  13 active torsions:
REMARK  status: ('A' for Active; 'I' for Inactive)
REMARK    1  A    between atoms: C_1  and  O_2
REMARK    2  A    between atoms: O_2  and  C_3
REMARK    3  A    between atoms: C_5  and  C_33
REMARK    4  A    between atoms: C_6  and  O_31
REMARK    5  A    between atoms: C_11  and  O_17
REMARK    6  A    between atoms: C_12  and  O_16
REMARK    7  A    between atoms: O_17  and  C_18
REMARK    8  A    between atoms: C_20  and  O_30
REMARK    9  A    between atoms: C_22  and  O_29
REMARK   10  A    between atoms: C_24  and  C_27
REMARK   11  A    between atoms: C_27  and  O_28
REMARK   12  A    between atoms: O_31  and  C_32
REMARK   13  A    between atoms: C_36  and  O_39
REMARK                            x       y       z     vdW  Elec       q    Type
REMARK                         _______ _______ _______ _____ _____    ______ ____
ROOT
ATOM      1  C   UNL     1       0.652  -0.430   1.158  0.00  0.00    +0.132 A 
ATOM      2  C   UNL     1       1.053   0.178   2.331  0.00  0.00    +0.058 A 
ATOM      3  C   UNL     1       1.676  -0.573   3.330  0.00  0.00    +0.031 A 
ATOM      4  C   UNL     1       1.897  -1.938   3.149  0.00  0.00    +0.171 A 
ATOM      5  C   UNL     1       1.497  -2.558   1.969  0.00  0.00    +0.182 A 
ATOM      6  C   UNL     1       0.867  -1.798   0.975  0.00  0.00    +0.073 A 
ATOM      7  C   UNL     1       0.571  -2.741  -0.120  0.00  0.00    +0.035 A 
ATOM      8  C   UNL     1      -0.031  -2.611  -1.370  0.00  0.00    +0.062 A 
ATOM      9  C   UNL     1      -0.164  -3.718  -2.185  0.00  0.00    +0.166 A 
ATOM     10  C   UNL     1       0.305  -4.960  -1.757  0.00  0.00    +0.162 A 
ATOM     11  C   UNL     1       0.903  -5.093  -0.518  0.00  0.00    +0.096 A 
ATOM     12  C   UNL     1       1.042  -3.987   0.312  0.00  0.00    +0.140 A 
ATOM     13  O   UNL     1       1.587  -3.837   1.541  0.00  0.00    -0.451 OA
ENDROOT
BRANCH   3  14
ATOM     14  C   UNL     1       2.104   0.084   4.589  0.00  0.00    -0.014 A 
ATOM     15  C   UNL     1       1.657  -0.402   5.817  0.00  0.00    +0.012 A 
ATOM     16  C   UNL     1       2.058   0.211   6.986  0.00  0.00    +0.046 A 
ATOM     17  C   UNL     1       2.905   1.310   6.940  0.00  0.00    +0.117 A 
ATOM     18  C   UNL     1       3.352   1.796   5.719  0.00  0.00    +0.046 A 
ATOM     19  C   UNL     1       2.959   1.184   4.547  0.00  0.00    +0.012 A 
BRANCH  17  20
ATOM     20  O   UNL     1       3.297   1.912   8.094  0.00  0.00    -0.507 OA
ATOM     21  H   UNL     1       4.111   1.548   8.470  0.00  0.00    +0.292 HD
ENDBRANCH  17  20
ENDBRANCH   3  14
BRANCH   1  23
ATOM     22  C   UNL     1      -0.141   1.694   0.441  0.00  0.00    +0.277 C 
ATOM     23  O   UNL     1       0.045   0.300   0.185  0.00  0.00    -0.494 OA
ENDBRANCH   1  23
BRANCH  10  24
ATOM     24  O   UNL     1       0.172  -6.046  -2.563  0.00  0.00    -0.503 OA
ATOM     25  H   UNL     1       0.920  -6.189  -3.158  0.00  0.00    +0.292 HD
ENDBRANCH  10  24
BRANCH   4  26
ATOM     26  O   UNL     1       2.505  -2.663   4.126  0.00  0.00    -0.491 OA
ATOM     27  C   UNL     1       3.916  -2.857   4.009  0.00  0.00    +0.277 C 
ENDBRANCH   4  26
BRANCH   9  28
ATOM     28  O   UNL     1      -0.751  -3.596  -3.407  0.00  0.00    -0.457 OA
BRANCH  28  29
ATOM     29  C   UNL     1      -1.208  -2.295  -3.781  0.00  0.00    +0.339 C 
ATOM     30  C   UNL     1      -1.735  -2.321  -5.229  0.00  0.00    +0.214 C 
ATOM     31  C   UNL     1      -3.232  -1.953  -5.094  0.00  0.00    +0.180 C 
ATOM     32  C   UNL     1      -3.517  -2.289  -3.608  0.00  0.00    +0.179 C 
ATOM     33  O   UNL     1      -2.299  -1.898  -2.933  0.00  0.00    -0.331 OA
BRANCH  31  34
ATOM     34  O   UNL     1      -3.441  -0.563  -5.352  0.00  0.00    -0.386 OA
ATOM     35  H   UNL     1      -3.191  -0.286  -6.244  0.00  0.00    +0.210 HD
ENDBRANCH  31  34
BRANCH  30  36
ATOM     36  O   UNL     1      -1.049  -1.354  -6.027  0.00  0.00    -0.383 OA
ATOM     37  H   UNL     1      -0.097  -1.505  -6.096  0.00  0.00    +0.210 HD
ENDBRANCH  30  36
BRANCH  32  38
ATOM     38  C   UNL     1      -4.707  -1.479  -3.091  0.00  0.00    +0.190 C 
BRANCH  38  39
ATOM     39  O   UNL     1      -5.022  -1.892  -1.759  0.00  0.00    -0.392 OA
ATOM     40  H   UNL     1      -5.768  -1.419  -1.367  0.00  0.00    +0.210 HD
ENDBRANCH  38  39
ENDBRANCH  32  38
ENDBRANCH  28  29
ENDBRANCH   9  28
TORSDOF 11
