REMARK  Name = ZINC50420293
REMARK  6 active torsions:
REMARK  status: ('A' for Active; 'I' for Inactive)
REMARK    1  A    between atoms: C_1  and  N_2
REMARK    2  A    between atoms: C_6  and  C_7
REMARK    3  A    between atoms: C_7  and  N_8
REMARK    4  A    between atoms: N_8  and  C_9
REMARK    5  A    between atoms: C_18  and  C_19
REMARK    6  A    between atoms: C_19  and  N_21
REMARK                            x       y       z     vdW  Elec       q    Type
REMARK                         _______ _______ _______ _____ _____    ______ ____
ROOT
ATOM      1  C   UNL     1      -1.654   0.418   4.205  0.00  0.00    +0.048 A 
ATOM      2  C   UNL     1      -2.915   0.239   4.823  0.00  0.00    +0.020 A 
ATOM      3  C   UNL     1      -4.026  -0.204   4.091  0.00  0.00    +0.012 A 
ATOM      4  C   UNL     1      -5.225  -0.366   4.718  0.00  0.00    +0.001 A 
ATOM      5  C   UNL     1      -5.360  -0.097   6.077  0.00  0.00    +0.002 A 
ATOM      6  C   UNL     1      -4.300   0.336   6.816  0.00  0.00    +0.026 A 
ATOM      7  C   UNL     1      -3.049   0.514   6.204  0.00  0.00    +0.048 A 
ATOM      8  N   UNL     1      -1.993   0.937   6.914  0.00  0.00    -0.360 N 
ATOM      9  C   UNL     1      -0.816   1.111   6.370  0.00  0.00    +0.095 A 
ATOM     10  C   UNL     1      -0.590   0.859   5.007  0.00  0.00    +0.040 A 
ATOM     11  H   UNL     1      -2.106   1.121   7.860  0.00  0.00    +0.165 HD
ENDROOT
BRANCH   1  12
ATOM     12  N   UNL     1      -1.476   0.162   2.862  0.00  0.00    -0.336 N 
ATOM     13  H   UNL     1      -0.898  -0.564   2.579  0.00  0.00    +0.147 HD
BRANCH  12  14
ATOM     14  C   UNL     1      -2.158   0.988   1.863  0.00  0.00    +0.178 C 
BRANCH  14  20
ATOM     15  C   UNL     1      -1.468  -0.531  -0.785  0.00  0.00    +0.151 C 
ATOM     16  N   UNL     1      -0.888   0.738  -0.339  0.00  0.00    -0.319 N 
ATOM     17  C   UNL     1       0.040   1.482  -0.988  0.00  0.00    +0.224 A 
ATOM     18  N   UNL     1       0.281   2.532  -0.251  0.00  0.00    -0.138 NA
ATOM     19  N   UNL     1      -0.437   2.486   0.815  0.00  0.00    -0.133 NA
ATOM     20  C   UNL     1      -1.174   1.409   0.802  0.00  0.00    +0.150 A 
ENDBRANCH  14  20
ENDBRANCH  12  14
ENDBRANCH   1  12
BRANCH  10  21
ATOM     21  C   UNL     1       0.746   1.058   4.425  0.00  0.00    +0.080 C 
ATOM     22  S   UNL     1       1.052   0.596   2.805  0.00  0.00    -0.035 S 
BRANCH  21  23
ATOM     23  N   UNL     1       1.729   1.605   5.168  0.00  0.00    -0.352 N 
ATOM     24  H   UNL     1       1.555   1.866   6.085  0.00  0.00    +0.143 HD
ATOM     25  H   UNL     1       2.610   1.736   4.784  0.00  0.00    +0.143 HD
ENDBRANCH  21  23
ENDBRANCH  10  21
TORSDOF 5
