REMARK  Name = ZINC40825728
REMARK  6 active torsions:
REMARK  status: ('A' for Active; 'I' for Inactive)
REMARK    1  A    between atoms: C_1  and  C_2
REMARK    2  A    between atoms: C_7  and  N_8
REMARK    3  A    between atoms: C_9  and  C_11
REMARK    4  A    between atoms: C_12  and  C_34
REMARK    5  A    between atoms: N_20  and  N_21
REMARK    6  A    between atoms: C_22  and  C_24
REMARK                            x       y       z     vdW  Elec       q    Type
REMARK                         _______ _______ _______ _____ _____    ______ ____
ROOT
ATOM      1  C   UNL     1       0.048   0.012   4.846  0.00  0.00    +0.193 A 
ATOM      2  C   UNL     1       0.073  -0.560   6.088  0.00  0.00    +0.009 A 
ATOM      3  C   UNL     1       0.065   0.498   7.006  0.00  0.00    +0.042 A 
ATOM      4  C   UNL     1       0.033   1.669   6.286  0.00  0.00    +0.115 A 
ATOM      5  O   UNL     1       0.032   1.356   4.992  0.00  0.00    -0.454 OA
ATOM      6  C   UNL     1       0.010   3.030   6.934  0.00  0.00    +0.075 C 
ATOM      7  C   UNL     1      -0.483   2.897   8.378  0.00  0.00    +0.014 C 
ATOM      8  C   UNL     1       0.336   1.845   9.133  0.00  0.00    +0.058 C 
ATOM      9  C   UNL     1       0.086   0.491   8.485  0.00  0.00    +0.070 C 
ATOM     10  N   UNL     1      -0.097  -0.590   9.180  0.00  0.00    -0.184 NA
ATOM     11  C   UNL     1       0.103  -2.033   6.405  0.00  0.00    +0.048 C 
ENDROOT
BRANCH   1  13
ATOM     12  N   UNL     1       0.025  -0.028   2.408  0.00  0.00    -0.264 N 
ATOM     13  C   UNL     1       0.046  -0.711   3.570  0.00  0.00    +0.285 C 
ATOM     14  O   UNL     1       0.062  -1.928   3.560  0.00  0.00    -0.266 OA
ATOM     15  H   UNL     1       0.012   0.942   2.416  0.00  0.00    +0.157 HD
BRANCH  12  22
ATOM     16  C   UNL     1      -0.018   1.503   0.010  0.00  0.00    +0.047 C 
ATOM     17  C   UNL     1       0.002  -0.004   0.002  0.00  0.00    -0.010 A 
ATOM     18  C   UNL     1       0.006  -0.699  -1.195  0.00  0.00    +0.008 A 
ATOM     19  C   UNL     1       0.025  -2.086  -1.155  0.00  0.00    +0.020 A 
ATOM     20  C   UNL     1       0.039  -2.728   0.068  0.00  0.00    +0.113 A 
ATOM     21  N   UNL     1       0.035  -2.039   1.193  0.00  0.00    -0.240 NA
ATOM     22  C   UNL     1       0.023  -0.715   1.197  0.00  0.00    +0.128 A 
ENDBRANCH  12  22
ENDBRANCH   1  13
BRANCH  10  23
ATOM     23  N   UNL     1      -0.066  -0.537  10.579  0.00  0.00    -0.201 N 
ATOM     24  C   UNL     1      -0.255  -1.660  11.300  0.00  0.00    +0.282 C 
ATOM     25  O   UNL     1      -0.452  -2.719  10.736  0.00  0.00    -0.267 OA
ATOM     26  H   UNL     1       0.091   0.307  11.029  0.00  0.00    +0.178 HD
BRANCH  24  27
ATOM     27  C   UNL     1      -0.223  -1.605  12.780  0.00  0.00    +0.128 A 
ATOM     28  C   UNL     1      -0.416  -2.784  13.515  0.00  0.00    +0.034 A 
ATOM     29  C   UNL     1      -0.389  -2.746  14.879  0.00  0.00    +0.012 A 
ATOM     30  C   UNL     1      -0.165  -1.506  15.507  0.00  0.00    +0.000 A 
ATOM     31  C   UNL     1      -0.124  -1.395  16.906  0.00  0.00    +0.010 A 
ATOM     32  C   UNL     1       0.096  -0.179  17.478  0.00  0.00    +0.001 A 
ATOM     33  C   UNL     1       0.281   0.959  16.694  0.00  0.00    +0.002 A 
ATOM     34  C   UNL     1       0.247   0.889  15.337  0.00  0.00    +0.028 A 
ATOM     35  C   UNL     1       0.023  -0.350  14.706  0.00  0.00    +0.072 A 
ATOM     36  N   UNL     1      -0.008  -0.448  13.377  0.00  0.00    -0.242 NA
ENDBRANCH  24  27
ENDBRANCH  10  23
TORSDOF 4
