REMARK  Name = ZINC42870342
REMARK  7 active torsions:
REMARK  status: ('A' for Active; 'I' for Inactive)
REMARK    1  A    between atoms: C_1  and  C_2
REMARK    2  A    between atoms: C_8  and  C_10
REMARK    3  A    between atoms: C_10  and  N_11
REMARK    4  A    between atoms: N_14  and  CA_15
REMARK    5  A    between atoms: CA_15  and  CB_17
REMARK    6  A    between atoms: CA_15  and  C_19
REMARK    7  A    between atoms: CB_17  and  OG_18
REMARK                            x       y       z     vdW  Elec       q    Type
REMARK                         _______ _______ _______ _____ _____    ______ ____
ROOT
ATOM      1  N   UNK A   0       0.663  -0.600   3.684  0.00  0.00    -0.299 N 
ATOM      2  C   UNK A   0       0.197  -0.304   4.914  0.00  0.00    +0.300 C 
ATOM      3  O   UNK A   0      -0.752   0.446   5.041  0.00  0.00    -0.253 OA
ATOM      4  N   SER A   1       0.783  -0.840   6.003  0.00  0.00    -0.284 N 
ATOM      5  H   UNK A   0       1.420  -1.198   3.583  0.00  0.00    +0.150 HD
ATOM      6  H   SER A   1       1.540  -1.438   5.902  0.00  0.00    +0.151 HD
ENDROOT
BRANCH   1   7
ATOM      7  C   UNK A   0       0.026  -0.018   2.500  0.00  0.00    +0.109 C 
BRANCH   7  14
ATOM      8  C   UNK A   0      -0.019   1.526   0.010  0.00  0.00    +0.008 C 
ATOM      9  C   UNK A   0       0.002  -0.004   0.002  0.00  0.00    -0.010 C 
ATOM     10  C   UNK A   0       0.718  -0.497  -1.257  0.00  0.00    +0.003 C 
ATOM     11  C   UNK A   0       2.154   0.032  -1.268  0.00  0.00    +0.000 C 
ATOM     12  C   UNK A   0       2.894  -0.475  -0.028  0.00  0.00    +0.000 C 
ATOM     13  C   UNK A   0       2.178   0.019   1.231  0.00  0.00    +0.005 C 
ATOM     14  C   UNK A   0       0.742  -0.511   1.242  0.00  0.00    +0.009 C 
ENDBRANCH   7  14
ENDBRANCH   1   7
BRANCH   4  15
ATOM     15  CA  SER A   1       0.276  -0.518   7.340  0.00  0.00    +0.213 C 
BRANCH  15  16
ATOM     16  C   SER A   1       0.898   0.769   7.817  0.00  0.00    +0.378 C 
ATOM     17  O   SER A   1       1.690   1.363   7.106  0.00  0.00    -0.244 OA
ATOM     18  OXT SER A   1       0.608   1.216   8.913  0.00  0.00    -0.244 OA
ENDBRANCH  15  16
BRANCH  15  19
ATOM     19  CB  SER A   1       0.637  -1.648   8.307  0.00  0.00    +0.189 C 
BRANCH  19  20
ATOM     20  OG  SER A   1       2.058  -1.719   8.448  0.00  0.00    -0.393 OA
ATOM     21  H   SER A   1       2.359  -2.414   9.048  0.00  0.00    +0.209 HD
ENDBRANCH  19  20
ENDBRANCH  15  19
ENDBRANCH   4  15
TORSDOF 6
