REMARK  Name = ZINC39467885
REMARK  3 active torsions:
REMARK  status: ('A' for Active; 'I' for Inactive)
REMARK    1  A    between atoms: C_1  and  O_2
REMARK    2  A    between atoms: O_2  and  P_3
REMARK    3  A    between atoms: C_12  and  O_21
REMARK                            x       y       z     vdW  Elec       q    Type
REMARK                         _______ _______ _______ _____ _____    ______ ____
ROOT
ATOM      1  P   UNL     1      -1.336  -0.899   0.010  0.00  0.00    +0.421 P 
ATOM      2  O   UNL     1      -2.288  -0.406  -1.010  0.00  0.00    -0.239 OA
ATOM      3  N   UNL     1      -2.031  -0.875   1.506  0.00  0.00    -0.156 NA
ATOM      4  N   UNL     1      -1.483  -1.684   2.482  0.00  0.00    -0.228 NA
ATOM      5  C   UNL     1      -2.317  -1.541   3.687  0.00  0.00    +0.111 C 
ATOM      6  C   UNL     1      -1.763  -2.368   4.838  0.00  0.00    +0.036 C 
ATOM      7  C   UNL     1      -0.382  -1.902   5.211  0.00  0.00    +0.002 C 
ATOM      8  C   UNL     1       0.435  -2.728   5.862  0.00  0.00    +0.078 C 
ATOM      9  C   UNL     1      -0.035  -4.083   6.216  0.00  0.00    +0.131 C 
ATOM     10  C   UNL     1      -1.051  -4.628   5.543  0.00  0.00    +0.024 C 
ATOM     11  C   UNL     1      -1.693  -3.841   4.426  0.00  0.00    +0.025 C 
ATOM     12  C   UNL     1      -0.833  -3.955   3.167  0.00  0.00    +0.031 C 
ATOM     13  C   UNL     1      -1.401  -3.080   2.044  0.00  0.00    +0.100 C 
ATOM     14  C   UNL     1      -0.470  -3.237   0.835  0.00  0.00    +0.191 C 
ATOM     15  O   UNL     1      -0.972  -2.461  -0.267  0.00  0.00    -0.294 OA
ATOM     16 CL   UNL     1       2.038  -2.218   6.290  0.00  0.00    -0.080 Cl
ATOM     17  H   UNL     1      -2.799  -0.313   1.694  0.00  0.00    +0.153 HD
ENDROOT
BRANCH   1  19
ATOM     18  C   UNL     1      -0.017   1.425   0.010  0.00  0.00    +0.206 C 
ATOM     19  O   UNL     1       0.002  -0.004   0.002  0.00  0.00    -0.299 OA
ENDBRANCH   1  19
BRANCH   9  20
ATOM     20  O   UNL     1       0.565  -4.772   7.221  0.00  0.00    -0.506 OA
ATOM     21  H   UNL     1       1.290  -4.295   7.647  0.00  0.00    +0.292 HD
ENDBRANCH   9  20
TORSDOF 2
