REMARK  Name = ZINC05730046
REMARK  8 active torsions:
REMARK  status: ('A' for Active; 'I' for Inactive)
REMARK    1  A    between atoms: C_1  and  C_2
REMARK    2  A    between atoms: C_9  and  C_11
REMARK    3  A    between atoms: N_13  and  N_14
REMARK    4  A    between atoms: C_15  and  C_16
REMARK    5  A    between atoms: C_19  and  O_24
REMARK    6  A    between atoms: C_20  and  O_22
REMARK    7  A    between atoms: O_22  and  C_23
REMARK    8  A    between atoms: O_24  and  C_25
REMARK                            x       y       z     vdW  Elec       q    Type
REMARK                         _______ _______ _______ _____ _____    ______ ____
ROOT
ATOM      1  C   UNL     1       0.511   9.533  -1.077  0.00  0.00    +0.236 C 
ATOM      2  O   UNL     1      -0.108   9.977  -0.133  0.00  0.00    -0.274 OA
ATOM      3  N   UNL     1       0.687   8.203  -1.203  0.00  0.00    -0.207 N 
ATOM      4  H   UNL     1       1.182   7.848  -1.958  0.00  0.00    +0.177 HD
ENDROOT
BRANCH   1  12
ATOM      5  C   UNL     1       1.678  10.594  -4.625  0.00  0.00    +0.012 C 
ATOM      6  C   UNL     1       0.631  10.290  -3.552  0.00  0.00    -0.017 C 
ATOM      7  C   UNL     1      -0.336   9.171  -3.908  0.00  0.00    +0.008 C 
ATOM      8  C   UNL     1      -1.522   9.151  -2.963  0.00  0.00    +0.001 C 
ATOM      9  C   UNL     1      -2.178  10.536  -2.990  0.00  0.00    +0.000 C 
ATOM     10  C   UNL     1      -1.296  11.508  -2.207  0.00  0.00    +0.005 C 
ATOM     11  C   UNL     1       0.129  11.485  -2.756  0.00  0.00    +0.008 C 
ATOM     12  C   UNL     1       1.085  10.470  -2.110  0.00  0.00    +0.086 C 
ENDBRANCH   1  12
BRANCH   3  13
ATOM     13  N   UNL     1       0.154   7.332  -0.243  0.00  0.00    -0.188 NA
ATOM     14  C   UNL     1       0.323   6.051  -0.364  0.00  0.00    +0.138 C 
BRANCH  14  15
ATOM     15  C   UNL     1      -0.237   5.135   0.645  0.00  0.00    -0.002 A 
ATOM     16  C   UNL     1      -0.951   5.644   1.733  0.00  0.00    +0.013 A 
ATOM     17  C   UNL     1      -1.475   4.785   2.677  0.00  0.00    +0.050 A 
ATOM     18  C   UNL     1      -1.295   3.416   2.549  0.00  0.00    +0.162 A 
ATOM     19  C   UNL     1      -0.584   2.901   1.467  0.00  0.00    +0.162 A 
ATOM     20  C   UNL     1      -0.051   3.756   0.520  0.00  0.00    +0.059 A 
BRANCH  19  21
ATOM     21  O   UNL     1      -0.410   1.558   1.345  0.00  0.00    -0.491 OA
ATOM     22  C   UNL     1       0.329   1.100   0.211  0.00  0.00    +0.277 C 
ENDBRANCH  19  21
BRANCH  18  23
ATOM     23  O   UNL     1      -1.813   2.574   3.482  0.00  0.00    -0.491 OA
ATOM     24  C   UNL     1      -2.530   3.169   4.566  0.00  0.00    +0.277 C 
ENDBRANCH  18  23
ENDBRANCH  14  15
ENDBRANCH   3  13
TORSDOF 5
