REMARK  Name = ZINC64048328
REMARK  6 active torsions:
REMARK  status: ('A' for Active; 'I' for Inactive)
REMARK    1  A    between atoms: C_7  and  C_10
REMARK    2  A    between atoms: C_13  and  S_23
REMARK    3  A    between atoms: N_15  and  C_16
REMARK    4  A    between atoms: S_23  and  C_24
REMARK    5  A    between atoms: C_24  and  C_25
REMARK    6  A    between atoms: C_25  and  O_26
REMARK                            x       y       z     vdW  Elec       q    Type
REMARK                         _______ _______ _______ _____ _____    ______ ____
ROOT
ATOM      1  C   UNL     1       0.622  -3.170  -0.405  0.00  0.00    +0.151 C 
ATOM      2  N   UNL     1      -0.661  -3.050  -0.185  0.00  0.00    -0.169 NA
ATOM      3  N   UNL     1      -1.215  -4.254   0.264  0.00  0.00    -0.237 N 
ATOM      4  C   UNL     1      -0.112  -5.227   0.320  0.00  0.00    +0.241 C 
ATOM      5  N   UNL     1       1.065  -4.468  -0.133  0.00  0.00    -0.254 N 
ATOM      6  H   UNL     1      -2.144  -4.416   0.493  0.00  0.00    +0.171 HD
ENDROOT
BRANCH   1  13
ATOM      7  C   UNL     1      -0.293   1.068  -1.740  0.00  0.00    +0.001 A 
ATOM      8  C   UNL     1       0.839   1.790  -2.125  0.00  0.00    +0.002 A 
ATOM      9  C   UNL     1       2.080   1.245  -2.092  0.00  0.00    +0.026 A 
ATOM     10  C   UNL     1       2.251  -0.095  -1.655  0.00  0.00    +0.043 A 
ATOM     11  N   UNL     1       3.331  -0.841  -1.533  0.00  0.00    -0.380 N 
ATOM     12  C   UNL     1       2.950  -2.166  -1.033  0.00  0.00    +0.152 C 
ATOM     13  C   UNL     1       1.448  -2.131  -0.861  0.00  0.00    +0.022 C 
ATOM     14  C   UNL     1       1.055  -0.850  -1.250  0.00  0.00    +0.006 A 
ATOM     15  C   UNL     1      -0.205  -0.217  -1.312  0.00  0.00    +0.010 A 
ATOM     16  H   UNL     1       4.236  -0.558  -1.741  0.00  0.00    +0.160 HD
ENDBRANCH   1  13
BRANCH   5  17
ATOM     17  C   UNL     1       2.371  -4.949  -0.263  0.00  0.00    +0.038 A 
ATOM     18  C   UNL     1       3.280  -4.783   0.774  0.00  0.00    +0.025 A 
ATOM     19  C   UNL     1       4.569  -5.260   0.643  0.00  0.00    +0.022 A 
ATOM     20  C   UNL     1       4.956  -5.901  -0.520  0.00  0.00    +0.041 A 
ATOM     21  C   UNL     1       4.053  -6.067  -1.556  0.00  0.00    +0.022 A 
ATOM     22  C   UNL     1       2.760  -5.598  -1.428  0.00  0.00    +0.025 A 
ATOM     23 CL   UNL     1       6.579  -6.498  -0.682  0.00  0.00    -0.084 Cl
ENDBRANCH   5  17
BRANCH   4  24
ATOM     24  S   UNL     1       0.122  -5.825   2.017  0.00  0.00    -0.115 S 
BRANCH  24  25
ATOM     25  C   UNL     1       0.458  -4.319   2.970  0.00  0.00    +0.100 C 
BRANCH  25  26
ATOM     26  C   UNL     1       0.677  -4.684   4.439  0.00  0.00    +0.166 C 
BRANCH  26  27
ATOM     27  O   UNL     1       0.943  -3.497   5.190  0.00  0.00    -0.394 OA
ATOM     28  H   UNL     1       1.092  -3.654   6.133  0.00  0.00    +0.209 HD
ENDBRANCH  26  27
ENDBRANCH  25  26
ENDBRANCH  24  25
ENDBRANCH   4  24
TORSDOF 6
