REMARK  Name = ZINC27790190
REMARK  13 active torsions:
REMARK  status: ('A' for Active; 'I' for Inactive)
REMARK    1  A    between atoms: C_1  and  C_2
REMARK    2  A    between atoms: C_2  and  C_3
REMARK    3  A    between atoms: C_3  and  C_4
REMARK    4  A    between atoms: C_4  and  C_5
REMARK    5  A    between atoms: C_5  and  N_6
REMARK    6  A    between atoms: C_7  and  C_9
REMARK    7  A    between atoms: C_9  and  O_10
REMARK    8  A    between atoms: O_10  and  C_11
REMARK    9  A    between atoms: C_11  and  C_13
REMARK   10  A    between atoms: C_15  and  C_24
REMARK   11  A    between atoms: C_16  and  C_23
REMARK   12  A    between atoms: C_17  and  S_19
REMARK   13  A    between atoms: S_19  and  N_22
REMARK                            x       y       z     vdW  Elec       q    Type
REMARK                         _______ _______ _______ _____ _____    ______ ____
ROOT
ATOM      1  C   UNL     1      -1.304   1.932   0.019  0.00  0.00    +0.061 A 
ATOM      2  C   UNL     1      -1.326   3.328   0.032  0.00  0.00    +0.018 A 
ATOM      3  C   UNL     1      -2.533   3.995   0.035  0.00  0.00    -0.045 A 
ATOM      4  C   UNL     1      -3.720   3.284   0.037  0.00  0.00    -0.021 A 
ATOM      5  C   UNL     1      -3.705   1.900   0.030  0.00  0.00    +0.109 A 
ATOM      6  C   UNL     1      -2.505   1.220   0.021  0.00  0.00    +0.043 A 
ATOM      7  C   UNL     1      -5.036   4.019   0.046  0.00  0.00    +0.046 C 
ATOM      8  C   UNL     1      -2.560   5.502   0.043  0.00  0.00    +0.044 C 
ENDROOT
BRANCH   5   9
ATOM      9  S   UNL     1      -5.223   1.005   0.032  0.00  0.00    +0.056 S 
ATOM     10  O   UNL     1      -6.033   1.575  -0.986  0.00  0.00    -0.153 OA
ATOM     11  O   UNL     1      -4.880  -0.374   0.050  0.00  0.00    -0.153 OA
BRANCH   9  12
ATOM     12  N   UNL     1      -5.978   1.324   1.471  0.00  0.00    -0.204 NA
ATOM     13  H   UNL     1      -6.933   0.781   1.512  0.00  0.00    +0.144 HD
ATOM     14  H   UNL     1      -6.166   2.404   1.555  0.00  0.00    +0.144 HD
ENDBRANCH   9  12
ENDBRANCH   5   9
BRANCH   1  15
ATOM     15  C   UNL     1      -0.014   1.210   0.009  0.00  0.00    +0.340 C 
ATOM     16  O   UNL     1       0.002  -0.004   0.002  0.00  0.00    -0.245 OA
BRANCH  15  17
ATOM     17  O   UNL     1       1.143   1.900   0.001  0.00  0.00    -0.452 OA
BRANCH  17  18
ATOM     18  C   UNL     1       2.371   1.126  -0.015  0.00  0.00    +0.328 C 
BRANCH  18  20
ATOM     19  N   UNL     1       4.806   1.562  -0.035  0.00  0.00    -0.313 N 
ATOM     20  C   UNL     1       3.554   2.060  -0.021  0.00  0.00    +0.251 C 
ATOM     21  O   UNL     1       3.379   3.260  -0.013  0.00  0.00    -0.272 OA
ATOM     22  H   UNL     1       4.965   0.473  -0.043  0.00  0.00    +0.149 HD
BRANCH  19  23
ATOM     23  C   UNL     1       5.956   2.470  -0.042  0.00  0.00    +0.104 C 
BRANCH  23  24
ATOM     24  C   UNL     1       7.250   1.654  -0.058  0.00  0.00    +0.019 C 
BRANCH  24  25
ATOM     25  C   UNL     1       8.450   2.603  -0.065  0.00  0.00    +0.001 C 
BRANCH  25  27
ATOM     26  C   UNL     1      10.945   2.735  -0.088  0.00  0.00    +0.004 C 
ATOM     27  C   UNL     1       9.745   1.787  -0.081  0.00  0.00    -0.003 C 
ENDBRANCH  25  27
ENDBRANCH  24  25
ENDBRANCH  23  24
ENDBRANCH  19  23
ENDBRANCH  18  20
ENDBRANCH  17  18
ENDBRANCH  15  17
ENDBRANCH   1  15
TORSDOF 10
