REMARK  Name = ZINC20701287
REMARK  4 active torsions:
REMARK  status: ('A' for Active; 'I' for Inactive)
REMARK    1  A    between atoms: C_2  and  N_27
REMARK    2  A    between atoms: C_4  and  O_26
REMARK    3  A    between atoms: C_14  and  C_17
REMARK    4  A    between atoms: C_22  and  O_23
REMARK                            x       y       z     vdW  Elec       q    Type
REMARK                         _______ _______ _______ _____ _____    ______ ____
ROOT
ATOM      1  C   UNL     1      -0.188   7.450   1.110  0.00  0.00    +0.039 A 
ATOM      2  C   UNL     1      -1.377   7.944   0.609  0.00  0.00    +0.130 A 
ATOM      3  C   UNL     1      -2.139   7.163  -0.242  0.00  0.00    +0.080 A 
ATOM      4  C   UNL     1      -1.717   5.893  -0.582  0.00  0.00    +0.140 A 
ATOM      5  C   UNL     1      -0.517   5.378  -0.076  0.00  0.00    +0.074 A 
ATOM      6  C   UNL     1       0.246   6.185   0.769  0.00  0.00    -0.014 A 
ATOM      7  C   UNL     1       1.534   5.647   1.260  0.00  0.00    +0.049 C 
ATOM      8  C   UNL     1       2.126   6.050   2.559  0.00  0.00    -0.023 C 
ATOM      9  C   UNL     1       2.804   5.020   3.052  0.00  0.00    -0.030 C 
ATOM     10  C   UNL     1       2.679   3.816   2.115  0.00  0.00    +0.033 C 
ATOM     11  C   UNL     1       1.343   4.106   1.422  0.00  0.00    +0.029 C 
ATOM     12  C   UNL     1       1.148   3.595   0.010  0.00  0.00    +0.109 C 
ATOM     13  N   UNL     1      -0.164   4.080  -0.449  0.00  0.00    -0.334 N 
ATOM     14  H   UNL     1      -0.810   3.428  -1.054  0.00  0.00    +0.147 HD
ENDROOT
BRANCH  12  15
ATOM     15  C   UNL     1       1.170   2.088   0.002  0.00  0.00    +0.017 A 
ATOM     16  C   UNL     1      -0.017   1.379   0.010  0.00  0.00    +0.029 A 
ATOM     17  C   UNL     1       0.002  -0.004   0.002  0.00  0.00    +0.043 A 
ATOM     18  C   UNL     1       1.209  -0.682  -0.013  0.00  0.00    +0.043 A 
ATOM     19  C   UNL     1       2.398   0.023  -0.021  0.00  0.00    +0.084 A 
ATOM     20  C   UNL     1       2.380   1.411  -0.013  0.00  0.00    +0.140 A 
ATOM     21 CL   UNL     1       3.911  -0.827  -0.039  0.00  0.00    -0.080 Cl
ATOM     22 CL   UNL     1      -1.490  -0.891   0.011  0.00  0.00    -0.083 Cl
BRANCH  20  23
ATOM     23  O   UNL     1       3.548   2.107  -0.020  0.00  0.00    -0.505 OA
ATOM     24  H   UNL     1       4.508   1.570  -0.032  0.00  0.00    +0.292 HD
ENDBRANCH  20  23
ENDBRANCH  12  15
BRANCH   2  25
ATOM     25  N   UNL     1      -1.834   9.302   0.980  0.00  0.00    +0.057 N 
ATOM     26  O   UNL     1      -2.883   9.735   0.536  0.00  0.00    -0.126 OA
ATOM     27  O   UNL     1      -1.161   9.987   1.729  0.00  0.00    -0.126 OA
ENDBRANCH   2  25
BRANCH   4  28
ATOM     28  O   UNL     1      -2.475   5.134  -1.418  0.00  0.00    -0.505 OA
ATOM     29  H   UNL     1      -2.145   4.121  -1.693  0.00  0.00    +0.292 HD
ENDBRANCH   4  28
TORSDOF 4
