REMARK  Name = ZINC52094570
REMARK  4 active torsions:
REMARK  status: ('A' for Active; 'I' for Inactive)
REMARK    1  A    between atoms: C_1  and  N_2
REMARK    2  A    between atoms: N_2  and  C_3
REMARK    3  A    between atoms: C_3  and  C_5
REMARK    4  A    between atoms: C_3  and  C_18
REMARK                            x       y       z     vdW  Elec       q    Type
REMARK                         _______ _______ _______ _____ _____    ______ ____
ROOT
ATOM      1  C   UNL     1      -1.446  -2.088   0.274  0.00  0.00    -0.045 A 
ATOM      2  C   UNL     1      -0.367  -2.922   0.051  0.00  0.00    +0.031 A 
ATOM      3  C   UNL     1      -0.472  -4.275   0.332  0.00  0.00    +0.067 A 
ATOM      4  C   UNL     1      -1.667  -4.790   0.839  0.00  0.00    +0.068 A 
ATOM      5  C   UNL     1      -2.744  -3.947   1.060  0.00  0.00    +0.043 A 
ATOM      6  C   UNL     1      -2.629  -2.597   0.782  0.00  0.00    +0.022 A 
ATOM      7 BR   UNL     1      -4.096  -1.444   1.090  0.00  0.00    -0.050 Br
ATOM      8  N   UNL     1      -1.471  -6.158   1.019  0.00  0.00    -0.306 N 
ATOM      9  H   UNL     1      -2.128  -6.785   1.360  0.00  0.00    +0.170 HD
ATOM     10  C   UNL     1      -0.216  -6.460   0.639  0.00  0.00    +0.325 A 
ATOM     11  O   UNL     1       0.277  -7.573   0.669  0.00  0.00    -0.247 OA
ATOM     12  N   UNL     1       0.412  -5.346   0.220  0.00  0.00    -0.306 N 
ATOM     13  H   UNL     1       1.325  -5.297  -0.105  0.00  0.00    +0.170 HD
ENDROOT
BRANCH   1  14
ATOM     14  C   UNL     1      -1.333  -0.616  -0.032  0.00  0.00    -0.037 C 
BRANCH  14  15
ATOM     15  C   UNL     1      -1.995  -0.323  -1.379  0.00  0.00    -0.021 C 
ATOM     16  C   UNL     1      -1.206  -1.010  -2.495  0.00  0.00    +0.002 C 
ATOM     17  C   UNL     1      -1.868  -0.717  -3.843  0.00  0.00    +0.000 C 
ATOM     18  C   UNL     1      -1.884   0.794  -4.085  0.00  0.00    +0.000 C 
ATOM     19  C   UNL     1      -2.673   1.481  -2.969  0.00  0.00    +0.000 C 
ATOM     20  C   UNL     1      -2.010   1.188  -1.621  0.00  0.00    +0.002 C 
ENDBRANCH  14  15
BRANCH  14  22
ATOM     21  C   UNL     1       0.691  -0.403   1.238  0.00  0.00    -0.100 C 
ATOM     22  N   UNL     1       0.085  -0.236  -0.089  0.00  0.00    +0.382 N 
ATOM     23  H   UNL     1       0.163   0.728  -0.376  0.00  0.00    -0.085 HD
ATOM     24  H   UNL     1       0.564  -0.825  -0.754  0.00  0.00    -0.085 HD
ENDBRANCH  14  22
ENDBRANCH   1  14
TORSDOF 3
