REMARK  Name = ZINC35263618
REMARK  11 active torsions:
REMARK  status: ('A' for Active; 'I' for Inactive)
REMARK    1  A    between atoms: C_1  and  C_2
REMARK    2  A    between atoms: C_2  and  O_3
REMARK    3  A    between atoms: O_3  and  C_4
REMARK    4  A    between atoms: C_7  and  C_12
REMARK    5  A    between atoms: C_9  and  O_10
REMARK    6  A    between atoms: O_10  and  C_11
REMARK    7  A    between atoms: C_14  and  C_31
REMARK    8  A    between atoms: C_22  and  C_29
REMARK    9  A    between atoms: C_24  and  C_28
REMARK   10  A    between atoms: C_31  and  C_33
REMARK   11  A    between atoms: C_36  and  C_38
REMARK                            x       y       z     vdW  Elec       q    Type
REMARK                         _______ _______ _______ _____ _____    ______ ____
ROOT
ATOM      1  C   UNL     1       1.933  -5.426  -1.428  0.00  0.00    +0.152 C 
ATOM      2  C   UNL     1       3.139  -5.996  -0.718  0.00  0.00    +0.080 C 
ATOM      3  C   UNL     1       2.679  -6.950   0.125  0.00  0.00    +0.250 C 
ATOM      4  C   UNL     1       1.211  -7.039   0.004  0.00  0.00    +0.293 C 
ATOM      5  O   UNL     1       0.505  -7.804   0.632  0.00  0.00    -0.266 OA
ATOM      6  N   UNL     1       0.769  -6.149  -0.904  0.00  0.00    -0.232 N 
ATOM      7  C   UNL     1      -0.549  -5.951  -1.277  0.00  0.00    +0.169 A 
ATOM      8  N   UNL     1      -1.628  -6.560  -0.843  0.00  0.00    -0.224 NA
ATOM      9  C   UNL     1      -2.863  -6.261  -1.300  0.00  0.00    +0.083 A 
ATOM     10  C   UNL     1      -4.098  -6.837  -0.920  0.00  0.00    -0.024 A 
ATOM     11  C   UNL     1      -5.271  -6.415  -1.488  0.00  0.00    +0.009 A 
ATOM     12  C   UNL     1      -5.293  -5.415  -2.450  0.00  0.00    -0.049 A 
ATOM     13  C   UNL     1      -4.105  -4.830  -2.845  0.00  0.00    +0.020 A 
ATOM     14  C   UNL     1      -2.924  -5.246  -2.282  0.00  0.00    +0.041 A 
ATOM     15  S   UNL     1      -1.216  -4.796  -2.467  0.00  0.00    -0.052 S 
ATOM     16  C   UNL     1      -6.599  -4.972  -3.058  0.00  0.00    +0.044 C 
ATOM     17  C   UNL     1      -4.123  -7.926   0.121  0.00  0.00    +0.046 C 
ATOM     18  O   UNL     1       3.446  -7.705   0.947  0.00  0.00    -0.282 OA
ENDROOT
BRANCH   1  22
ATOM     19  C   UNL     1       1.570  -1.247  -0.593  0.00  0.00    +0.162 A 
ATOM     20  C   UNL     1       1.682  -1.688  -1.902  0.00  0.00    +0.050 A 
ATOM     21  C   UNL     1       1.800  -3.039  -2.168  0.00  0.00    +0.009 A 
ATOM     22  C   UNL     1       1.805  -3.954  -1.132  0.00  0.00    -0.018 A 
ATOM     23  C   UNL     1       1.693  -3.521   0.176  0.00  0.00    +0.055 A 
ATOM     24  C   UNL     1       1.581  -2.167   0.451  0.00  0.00    +0.162 A 
BRANCH  24  25
ATOM     25  O   UNL     1       1.477  -1.740   1.738  0.00  0.00    -0.491 OA
ATOM     26  C   UNL     1       1.570  -2.732   2.761  0.00  0.00    +0.277 C 
ENDBRANCH  24  25
BRANCH  19  27
ATOM     27  O   UNL     1       1.455   0.082  -0.328  0.00  0.00    -0.489 OA
BRANCH  27  29
ATOM     28  C   UNL     1       1.314   2.411  -0.958  0.00  0.00    +0.048 C 
ATOM     29  C   UNL     1       1.450   0.968  -1.449  0.00  0.00    +0.226 C 
ENDBRANCH  27  29
ENDBRANCH  19  27
ENDBRANCH   1  22
BRANCH   2  30
ATOM     30  C   UNL     1       4.537  -5.594  -0.906  0.00  0.00    +0.230 C 
ATOM     31  O   UNL     1       5.407  -6.061  -0.192  0.00  0.00    -0.283 OA
BRANCH  30  32
ATOM     32  C   UNL     1       4.888  -4.630  -1.953  0.00  0.00    +0.175 A 
ATOM     33  C   UNL     1       6.131  -4.072  -2.160  0.00  0.00    +0.053 A 
ATOM     34  C   UNL     1       6.006  -3.213  -3.261  0.00  0.00    +0.045 A 
ATOM     35  C   UNL     1       4.720  -3.279  -3.674  0.00  0.00    +0.103 A 
ATOM     36  O   UNL     1       4.052  -4.135  -2.890  0.00  0.00    -0.457 OA
ATOM     37  C   UNL     1       4.133  -2.516  -4.834  0.00  0.00    +0.086 C 
ENDBRANCH  30  32
ENDBRANCH   2  30
TORSDOF 6
