REMARK  Name = ZINC44254313
REMARK  6 active torsions:
REMARK  status: ('A' for Active; 'I' for Inactive)
REMARK    1  A    between atoms: C_7  and  C_23
REMARK    2  A    between atoms: C_14  and  S_15
REMARK    3  A    between atoms: S_15  and  C_16
REMARK    4  A    between atoms: C_23  and  C_25
REMARK    5  A    between atoms: C_23  and  N_29
REMARK    6  A    between atoms: C_25  and  C_26
REMARK                            x       y       z     vdW  Elec       q    Type
REMARK                         _______ _______ _______ _____ _____    ______ ____
ROOT
ATOM      1  C   UNL     1       0.544   0.909  -0.280  0.00  0.00    +0.001 A 
ATOM      2  C   UNL     1       1.766   1.565  -0.129  0.00  0.00    +0.001 A 
ATOM      3  C   UNL     1       2.910   0.888   0.148  0.00  0.00    +0.009 A 
ATOM      4  C   UNL     1       2.873  -0.513   0.288  0.00  0.00    -0.003 A 
ATOM      5  C   UNL     1       1.591  -1.204   0.131  0.00  0.00    -0.015 A 
ATOM      6  C   UNL     1       0.440  -0.440  -0.157  0.00  0.00    +0.009 A 
ATOM      7  C   UNL     1       1.518  -2.591   0.263  0.00  0.00    -0.046 A 
ATOM      8  C   UNL     1       2.672  -3.321   0.547  0.00  0.00    -0.015 A 
ATOM      9  C   UNL     1       2.629  -4.725   0.686  0.00  0.00    +0.009 A 
ATOM     10  C   UNL     1       3.771  -5.406   0.962  0.00  0.00    +0.001 A 
ATOM     11  C   UNL     1       4.995  -4.754   1.113  0.00  0.00    +0.001 A 
ATOM     12  C   UNL     1       5.104  -3.405   0.992  0.00  0.00    +0.009 A 
ATOM     13  C   UNL     1       3.958  -2.637   0.706  0.00  0.00    -0.003 A 
ATOM     14  C   UNL     1       4.036  -1.243   0.574  0.00  0.00    +0.030 A 
ENDROOT
BRANCH  14  15
ATOM     15  S   UNL     1       5.580  -0.416   0.764  0.00  0.00    -0.067 S 
BRANCH  15  16
ATOM     16  C   UNL     1       5.654  -0.040   2.484  0.00  0.00    +0.122 A 
ATOM     17  C   UNL     1       4.788  -0.677   3.366  0.00  0.00    +0.037 A 
ATOM     18  C   UNL     1       4.856  -0.373   4.714  0.00  0.00    +0.004 A 
ATOM     19  C   UNL     1       5.792   0.562   5.136  0.00  0.00    +0.021 A 
ATOM     20  C   UNL     1       6.621   1.157   4.205  0.00  0.00    +0.134 A 
ATOM     21  N   UNL     1       6.537   0.843   2.926  0.00  0.00    -0.133 N 
ATOM     22  O   UNL     1       7.409   1.470   2.003  0.00  0.00    -0.163 OA
ENDBRANCH  15  16
ENDBRANCH  14  15
BRANCH   7  23
ATOM     23  C   UNL     1       0.197  -3.298   0.100  0.00  0.00    -0.034 C 
BRANCH  23  24
ATOM     24  N   UNL     1       0.306  -4.300  -0.969  0.00  0.00    +0.383 N 
ATOM     25  H   UNL     1       1.095  -4.902  -0.785  0.00  0.00    -0.089 HD
ATOM     26  H   UNL     1      -0.538  -4.851  -1.000  0.00  0.00    -0.089 HD
ATOM     27  H   UNL     1       0.438  -3.834  -1.854  0.00  0.00    -0.089 HD
ENDBRANCH  23  24
BRANCH  23  28
ATOM     28  C   UNL     1      -0.175  -3.991   1.413  0.00  0.00    +0.084 C 
BRANCH  28  29
ATOM     29  C   UNL     1      -1.551  -4.593   1.289  0.00  0.00    +0.209 C 
ATOM     30  O   UNL     1      -2.172  -4.480   0.254  0.00  0.00    -0.276 OA
ATOM     31  N   UNL     1      -2.091  -5.259   2.330  0.00  0.00    -0.329 N 
ATOM     32  H   UNL     1      -1.594  -5.349   3.158  0.00  0.00    +0.145 HD
ATOM     33  H   UNL     1      -2.976  -5.647   2.251  0.00  0.00    +0.145 HD
ENDBRANCH  28  29
ENDBRANCH  23  28
ENDBRANCH   7  23
TORSDOF 6
