REMARK  Name = ZINC64042681
REMARK  9 active torsions:
REMARK  status: ('A' for Active; 'I' for Inactive)
REMARK    1  A    between atoms: C_1  and  C_2
REMARK    2  A    between atoms: N_4  and  C_5
REMARK    3  A    between atoms: C_5  and  C_7
REMARK    4  A    between atoms: C_5  and  C_17
REMARK    5  A    between atoms: C_7  and  C_8
REMARK    6  A    between atoms: N_19  and  C_20
REMARK    7  A    between atoms: C_20  and  C_21
REMARK    8  A    between atoms: N_24  and  C_28
REMARK    9  A    between atoms: C_28  and  C_29
REMARK                            x       y       z     vdW  Elec       q    Type
REMARK                         _______ _______ _______ _____ _____    ______ ____
ROOT
ATOM      1  C   UNL     1       1.264  -2.626  -0.481  0.00  0.00    +0.234 C 
ATOM      2  O   UNL     1       1.862  -1.893   0.279  0.00  0.00    -0.274 OA
ATOM      3  N   UNL     1       1.712  -3.877  -0.703  0.00  0.00    -0.311 N 
ATOM      4  H   UNL     1       1.234  -4.463  -1.310  0.00  0.00    +0.149 HD
ENDROOT
BRANCH   1   5
ATOM      5  C   UNL     1       0.020  -2.136  -1.177  0.00  0.00    +0.163 C 
BRANCH   5   9
ATOM      6  C   UNL     1      -0.018   1.503   0.010  0.00  0.00    +0.109 C 
ATOM      7  C   UNL     1       0.002  -0.004   0.002  0.00  0.00    +0.211 C 
ATOM      8  O   UNL     1       0.020  -0.616   1.049  0.00  0.00    -0.276 OA
ATOM      9  N   UNL     1       0.000  -0.672  -1.169  0.00  0.00    -0.304 N 
ATOM     10  H   UNL     1      -0.015  -0.182  -2.006  0.00  0.00    +0.149 HD
ENDBRANCH   5   9
BRANCH   5  11
ATOM     11  C   UNL     1      -1.215  -2.667  -0.447  0.00  0.00    +0.065 C 
BRANCH  11  12
ATOM     12  C   UNL     1      -2.455  -2.281  -1.211  0.00  0.00    -0.039 C 
ATOM     13  C   UNL     1      -3.119  -3.034  -2.117  0.00  0.00    -0.001 A 
ATOM     14  C   UNL     1      -2.894  -4.386  -2.643  0.00  0.00    +0.010 A 
ATOM     15  C   UNL     1      -3.750  -4.882  -3.566  0.00  0.00    +0.001 A 
ATOM     16  C   UNL     1      -4.843  -4.139  -4.032  0.00  0.00    +0.002 A 
ATOM     17  C   UNL     1      -5.115  -2.891  -3.596  0.00  0.00    +0.026 A 
ATOM     18  C   UNL     1      -4.282  -2.271  -2.625  0.00  0.00    +0.043 A 
ATOM     19  N   UNL     1      -4.334  -1.091  -2.055  0.00  0.00    -0.380 N 
ATOM     20  C   UNL     1      -3.213  -0.976  -1.115  0.00  0.00    +0.144 C 
ATOM     21  H   UNL     1      -5.004  -0.410  -2.223  0.00  0.00    +0.160 HD
ENDBRANCH  11  12
ENDBRANCH   5  11
ENDBRANCH   1   5
BRANCH   3  22
ATOM     22  C   UNL     1       2.921  -4.353  -0.026  0.00  0.00    +0.137 C 
BRANCH  22  23
ATOM     23  C   UNL     1       3.209  -5.795  -0.450  0.00  0.00    +0.149 C 
ATOM     24  C   UNL     1       4.399  -6.334   0.348  0.00  0.00    +0.118 C 
ATOM     25  N   UNL     1       4.719  -7.692  -0.117  0.00  0.00    -0.293 NA
ATOM     26  C   UNL     1       5.034  -7.690  -1.553  0.00  0.00    +0.113 C 
ATOM     27  C   UNL     1       3.837  -7.137  -2.331  0.00  0.00    +0.175 C 
ATOM     28  O   UNL     1       3.520  -5.830  -1.845  0.00  0.00    -0.372 OA
BRANCH  25  29
ATOM     29  C   UNL     1       5.822  -8.269   0.663  0.00  0.00    +0.119 C 
BRANCH  29  30
ATOM     30  C   UNL     1       5.960  -9.732   0.331  0.00  0.00    -0.033 A 
ATOM     31  C   UNL     1       5.255 -10.675   1.056  0.00  0.00    +0.005 A 
ATOM     32  C   UNL     1       5.381 -12.017   0.751  0.00  0.00    +0.000 A 
ATOM     33  C   UNL     1       6.213 -12.417  -0.278  0.00  0.00    +0.000 A 
ATOM     34  C   UNL     1       6.918 -11.475  -1.003  0.00  0.00    +0.000 A 
ATOM     35  C   UNL     1       6.788 -10.132  -0.702  0.00  0.00    +0.005 A 
ENDBRANCH  29  30
ENDBRANCH  25  29
ENDBRANCH  22  23
ENDBRANCH   3  22
TORSDOF 8
