REMARK  Name = ZINC02868905
REMARK  4 active torsions:
REMARK  status: ('A' for Active; 'I' for Inactive)
REMARK    1  A    between atoms: C_2  and  C_3
REMARK    2  A    between atoms: C_3  and  N_4
REMARK    3  A    between atoms: C_26  and  N_30
REMARK    4  A    between atoms: C_27  and  C_28
REMARK                            x       y       z     vdW  Elec       q    Type
REMARK                         _______ _______ _______ _____ _____    ______ ____
ROOT
ATOM      1  N   UNL     1       3.823  -3.001   0.125  0.00  0.00    -0.265 N 
ATOM      2  C   UNL     1       4.034  -2.683  -1.198  0.00  0.00    +0.059 A 
ATOM      3  C   UNL     1       4.304  -3.526  -2.377  0.00  0.00    +0.039 A 
ATOM      4  C   UNL     1       4.384  -4.915  -2.261  0.00  0.00    +0.013 A 
ATOM      5  C   UNL     1       4.637  -5.678  -3.380  0.00  0.00    +0.001 A 
ATOM      6  C   UNL     1       4.812  -5.071  -4.615  0.00  0.00    +0.004 A 
ATOM      7  C   UNL     1       4.735  -3.700  -4.742  0.00  0.00    +0.047 A 
ATOM      8  C   UNL     1       4.480  -2.913  -3.626  0.00  0.00    +0.141 A 
ATOM      9  O   UNL     1       4.403  -1.569  -3.737  0.00  0.00    -0.422 OA
ATOM     10  C   UNL     1       4.157  -0.789  -2.670  0.00  0.00    +0.344 A 
ATOM     11  O   UNL     1       4.095   0.419  -2.819  0.00  0.00    -0.245 OA
ATOM     12  C   UNL     1       3.969  -1.330  -1.394  0.00  0.00    +0.084 A 
ATOM     13  C   UNL     1       3.683  -0.722  -0.044  0.00  0.00    +0.148 C 
ATOM     14  C   UNL     1       3.607  -1.912   0.886  0.00  0.00    +0.241 C 
ATOM     15  O   UNL     1       3.393  -1.889   2.079  0.00  0.00    -0.274 OA
ATOM     16  C   UNL     1       2.370   0.007  -0.064  0.00  0.00    +0.020 A 
ATOM     17  C   UNL     1       1.187  -0.709  -0.090  0.00  0.00    +0.009 A 
ATOM     18  C   UNL     1      -0.026  -0.047  -0.110  0.00  0.00    +0.001 A 
ATOM     19  C   UNL     1      -0.060   1.336  -0.102  0.00  0.00    +0.004 A 
ATOM     20  C   UNL     1       1.117   2.056  -0.075  0.00  0.00    +0.046 A 
ATOM     21  C   UNL     1       2.339   1.394  -0.055  0.00  0.00    +0.135 A 
ATOM     22  O   UNL     1       3.487   2.114  -0.030  0.00  0.00    -0.441 OA
ATOM     23  C   UNL     1       4.638   1.539   0.355  0.00  0.00    +0.199 C 
ATOM     24  C   UNL     1       4.797   0.193   0.370  0.00  0.00    +0.110 C 
ENDROOT
BRANCH  23  25
ATOM     25  N   UNL     1       5.685   2.338   0.744  0.00  0.00    -0.328 N 
ATOM     26  H   UNL     1       6.522   1.938   1.024  0.00  0.00    +0.145 HD
ATOM     27  H   UNL     1       5.586   3.303   0.738  0.00  0.00    +0.145 HD
ENDBRANCH  23  25
BRANCH  24  28
ATOM     28  C   UNL     1       6.048  -0.364   0.788  0.00  0.00    +0.102 C 
ATOM     29  N   UNL     1       7.041  -0.806   1.119  0.00  0.00    -0.191 NA
ENDBRANCH  24  28
BRANCH   1  30
ATOM     30  C   UNL     1       3.833  -4.370   0.646  0.00  0.00    +0.140 C 
BRANCH  30  32
ATOM     31  C   UNL     1       5.592  -5.230   2.105  0.00  0.00    +0.005 C 
ATOM     32  C   UNL     1       5.253  -4.794   0.916  0.00  0.00    -0.015 C 
ENDBRANCH  30  32
ENDBRANCH   1  30
TORSDOF 4
