REMARK  Name = ZINC45738666
REMARK  10 active torsions:
REMARK  status: ('A' for Active; 'I' for Inactive)
REMARK    1  A    between atoms: C_1  and  C_2
REMARK    2  A    between atoms: C_6  and  C_24
REMARK    3  A    between atoms: C_8  and  N_11
REMARK    4  A    between atoms: C_12  and  C_14
REMARK    5  A    between atoms: C_14  and  C_16
REMARK    6  A    between atoms: C_14  and  S_17
REMARK    7  A    between atoms: S_17  and  C_18
REMARK    8  A    between atoms: N_22  and  C_23
REMARK    9  A    between atoms: C_24  and  C_25
REMARK   10  A    between atoms: C_24  and  C_26
REMARK                            x       y       z     vdW  Elec       q    Type
REMARK                         _______ _______ _______ _____ _____    ______ ____
ROOT
ATOM      1  N   UNL     1       1.537  -2.391   2.465  0.00  0.00    -0.311 N 
ATOM      2  C   UNL     1       2.884  -2.336   2.462  0.00  0.00    +0.226 C 
ATOM      3  O   UNL     1       3.473  -1.970   1.467  0.00  0.00    -0.275 OA
ATOM      4  H   UNL     1       1.065  -2.684   3.261  0.00  0.00    +0.149 HD
ENDROOT
BRANCH   1  10
ATOM      5  C   UNL     1      -0.301   1.434  -0.071  0.00  0.00    +0.007 C 
ATOM      6  C   UNL     1      -0.150  -0.088  -0.028  0.00  0.00    -0.012 C 
ATOM      7  C   UNL     1      -1.536  -0.737   0.011  0.00  0.00    +0.004 C 
ATOM      8  C   UNL     1      -1.385  -2.259   0.054  0.00  0.00    +0.006 C 
ATOM      9  C   UNL     1      -0.600  -2.658   1.305  0.00  0.00    +0.012 C 
ATOM     10  C   UNL     1       0.785  -2.009   1.267  0.00  0.00    +0.077 C 
ATOM     11  C   UNL     1       0.635  -0.487   1.224  0.00  0.00    +0.025 C 
BRANCH   9  12
ATOM     12  C   UNL     1      -0.449  -4.180   1.349  0.00  0.00    -0.012 C 
ATOM     13  C   UNL     1      -1.824  -4.824   1.536  0.00  0.00    +0.007 C 
ATOM     14  C   UNL     1       0.169  -4.669   0.037  0.00  0.00    +0.007 C 
ENDBRANCH   9  12
ENDBRANCH   1  10
BRANCH   2  15
ATOM     15  C   UNL     1       3.657  -2.729   3.694  0.00  0.00    +0.137 C 
ATOM     16  C   UNL     1       3.865  -4.245   3.704  0.00  0.00    +0.029 C 
BRANCH  15  17
ATOM     17  S   UNL     1       5.269  -1.898   3.688  0.00  0.00    -0.074 S 
BRANCH  17  18
ATOM     18  C   UNL     1       5.980  -2.335   5.239  0.00  0.00    +0.192 A 
ATOM     19  N   UNL     1       5.437  -3.097   6.160  0.00  0.00    -0.123 NA
ATOM     20  N   UNL     1       6.233  -3.204   7.163  0.00  0.00    -0.137 NA
ATOM     21  C   UNL     1       7.322  -2.523   6.945  0.00  0.00    +0.225 A 
ATOM     22  N   UNL     1       7.203  -1.949   5.709  0.00  0.00    -0.312 N 
ATOM     23  C   UNL     1       8.182  -1.096   5.032  0.00  0.00    +0.152 C 
ENDBRANCH  17  18
ENDBRANCH  15  17
ENDBRANCH   2  15
TORSDOF 5
