REMARK  Name = ZINC22265236
REMARK  10 active torsions:
REMARK  status: ('A' for Active; 'I' for Inactive)
REMARK    1  A    between atoms: C_1  and  C_2
REMARK    2  A    between atoms: C_4  and  C_25
REMARK    3  A    between atoms: C_5  and  S_9
REMARK    4  A    between atoms: C_6  and  C_8
REMARK    5  A    between atoms: S_9  and  N_12
REMARK    6  A    between atoms: N_12  and  C_13
REMARK    7  A    between atoms: C_13  and  C_14
REMARK    8  A    between atoms: C_14  and  C_15
REMARK    9  A    between atoms: N_17  and  C_18
REMARK   10  A    between atoms: C_19  and  O_24
REMARK                            x       y       z     vdW  Elec       q    Type
REMARK                         _______ _______ _______ _____ _____    ______ ____
ROOT
ATOM      1  C   UNL     1       4.756  -4.297  -0.884  0.00  0.00    +0.115 C 
ENDROOT
BRANCH   1   2
ATOM      2  N   UNL     1       4.311  -5.640  -0.504  0.00  0.00    -0.189 NA
ATOM      3  H   UNL     1       3.305  -5.787  -0.082  0.00  0.00    +0.148 HD
BRANCH   2   4
ATOM      4  S   UNL     1       5.392  -6.893  -0.473  0.00  0.00    +0.059 S 
ATOM      5  O   UNL     1       4.672  -8.041  -0.046  0.00  0.00    -0.153 OA
ATOM      6  O   UNL     1       6.098  -6.851  -1.706  0.00  0.00    -0.153 OA
BRANCH   4  11
ATOM      7  C   UNL     1       9.413  -5.671   3.857  0.00  0.00    +0.044 C 
ATOM      8  C   UNL     1       8.409  -5.976   2.776  0.00  0.00    -0.050 A 
ATOM      9  C   UNL     1       8.552  -5.414   1.521  0.00  0.00    +0.008 A 
ATOM     10  C   UNL     1       7.631  -5.694   0.529  0.00  0.00    -0.024 A 
ATOM     11  C   UNL     1       6.567  -6.536   0.792  0.00  0.00    +0.111 A 
ATOM     12  C   UNL     1       6.421  -7.094   2.048  0.00  0.00    -0.024 A 
ATOM     13  C   UNL     1       7.344  -6.818   3.038  0.00  0.00    +0.008 A 
ATOM     14  C   UNL     1       5.257  -8.008   2.336  0.00  0.00    +0.046 C 
ATOM     15  C   UNL     1       7.787  -5.081  -0.839  0.00  0.00    +0.046 C 
ENDBRANCH   4  11
ENDBRANCH   2   4
ENDBRANCH   1   2
BRANCH   1  16
ATOM     16  C   UNL     1       3.538  -3.425  -1.195  0.00  0.00    +0.113 C 
BRANCH  16  17
ATOM     17  C   UNL     1       3.996  -2.043  -1.587  0.00  0.00    +0.220 C 
ATOM     18  O   UNL     1       5.180  -1.782  -1.614  0.00  0.00    -0.275 OA
ATOM     19  N   UNL     1       3.090  -1.098  -1.906  0.00  0.00    -0.269 N 
ATOM     20  H   UNL     1       2.016  -1.335  -1.881  0.00  0.00    +0.156 HD
BRANCH  19  21
ATOM     21  C   UNL     1       3.514   0.181  -2.268  0.00  0.00    +0.145 A 
ATOM     22  C   UNL     1       2.571   1.155  -2.598  0.00  0.00    +0.155 A 
ATOM     23  C   UNL     1       3.010   2.422  -2.956  0.00  0.00    +0.050 A 
ATOM     24  C   UNL     1       4.376   2.669  -2.972  0.00  0.00    +0.021 A 
ATOM     25  C   UNL     1       5.251   1.657  -2.633  0.00  0.00    +0.084 A 
ATOM     26  N   UNL     1       4.807   0.460  -2.296  0.00  0.00    -0.347 N 
ATOM     27  H   UNL     1       5.542  -0.315  -2.035  0.00  0.00    +0.167 HD
BRANCH  22  28
ATOM     28  O   UNL     1       1.243   0.868  -2.569  0.00  0.00    -0.503 OA
ATOM     29  H   UNL     1       0.506   1.642  -2.830  0.00  0.00    +0.292 HD
ENDBRANCH  22  28
ENDBRANCH  19  21
ENDBRANCH  16  17
ENDBRANCH   1  16
TORSDOF 7
