REMARK  Name = ZINC62810160
REMARK  3 active torsions:
REMARK  status: ('A' for Active; 'I' for Inactive)
REMARK    1  A    between atoms: C_5  and  N_12
REMARK    2  A    between atoms: C_6  and  O_7
REMARK    3  A    between atoms: O_7  and  C_8
REMARK                            x       y       z     vdW  Elec       q    Type
REMARK                         _______ _______ _______ _____ _____    ______ ____
ROOT
ATOM      1  C   UNL     1      -0.002   1.345   0.359  0.00  0.00    +0.075 A 
ATOM      2  C   UNL     1       1.193   2.042   0.413  0.00  0.00    +0.079 A 
ATOM      3  C   UNL     1       2.397   1.384   0.170  0.00  0.00    +0.145 A 
ATOM      4  C   UNL     1       2.398   0.032  -0.125  0.00  0.00    +0.084 A 
ATOM      5  C   UNL     1       1.204  -0.664  -0.178  0.00  0.00    +0.171 A 
ATOM      6  C   UNL     1       0.005  -0.010   0.063  0.00  0.00    +0.153 A 
ATOM      7  O   UNL     1       3.564   2.082   0.223  0.00  0.00    -0.481 OA
ATOM      8  C   UNL     1       3.514   3.451  -0.186  0.00  0.00    +0.325 C 
ATOM      9  C   UNL     1       2.326   4.126   0.451  0.00  0.00    +0.255 C 
ATOM     10  O   UNL     1       2.373   5.306   0.729  0.00  0.00    -0.272 OA
ATOM     11  N   UNL     1       1.210   3.412   0.712  0.00  0.00    -0.280 N 
ATOM     12  H   UNL     1       0.430   3.841   1.099  0.00  0.00    +0.155 HD
ENDROOT
BRANCH   5  13
ATOM     13  N   UNL     1       1.206  -2.110  -0.494  0.00  0.00    +0.060 N 
ATOM     14  O   UNL     1       2.251  -2.681  -0.705  0.00  0.00    -0.126 OA
ATOM     15  O   UNL     1       0.163  -2.720  -0.541  0.00  0.00    -0.126 OA
ENDBRANCH   5  13
BRANCH   6  16
ATOM     16  O   UNL     1      -1.167  -0.699   0.010  0.00  0.00    -0.490 OA
BRANCH  16  17
ATOM     17  C   UNL     1      -2.371   0.059   0.137  0.00  0.00    +0.140 C 
ATOM     18  C   UNL     1      -3.058  -0.093   1.506  0.00  0.00    -0.039 C 
ATOM     19  N   UNL     1      -4.328  -0.165   0.751  0.00  0.00    +0.384 N 
ATOM     20  C   UNL     1      -3.609  -0.642  -0.451  0.00  0.00    -0.039 C 
ATOM     21  H   UNL     1      -4.970  -0.848   1.124  0.00  0.00    -0.086 HD
ATOM     22  H   UNL     1      -4.759   0.738   0.619  0.00  0.00    -0.086 HD
ENDBRANCH  16  17
ENDBRANCH   6  16
TORSDOF 3
