REMARK  Name = ZINC05322528
REMARK  10 active torsions:
REMARK  status: ('A' for Active; 'I' for Inactive)
REMARK    1  A    between atoms: C_1  and  C_2
REMARK    2  A    between atoms: C_2  and  C_3
REMARK    3  A    between atoms: C_3  and  N_4
REMARK    4  A    between atoms: C_5  and  C_7
REMARK    5  A    between atoms: C_7  and  C_9
REMARK    6  A    between atoms: C_7  and  N_14
REMARK    7  A    between atoms: C_9  and  C_11
REMARK    8  A    between atoms: C_9  and  C_12
REMARK    9  A    between atoms: C_12  and  C_13
REMARK   10  A    between atoms: C_15  and  C_17
REMARK                            x       y       z     vdW  Elec       q    Type
REMARK                         _______ _______ _______ _____ _____    ______ ____
ROOT
ATOM      1  N   UNL     1      -3.942   1.958  -0.226  0.00  0.00    -0.305 N 
ATOM      2  C   UNL     1      -5.234   1.588  -0.124  0.00  0.00    +0.200 C 
ATOM      3  O   UNL     1      -5.516   0.454   0.203  0.00  0.00    -0.278 OA
ATOM      4  H   UNL     1      -3.717   2.865  -0.487  0.00  0.00    +0.149 HD
ENDROOT
BRANCH   2   5
ATOM      5  C   UNL     1      -6.329   2.582  -0.415  0.00  0.00    +0.021 C 
ATOM      6  C   UNL     1      -6.535   3.489   0.798  0.00  0.00    +0.028 C 
ATOM      7  C   UNL     1      -7.779   4.320   0.613  0.00  0.00    -0.047 A 
ATOM      8  C   UNL     1      -7.951   5.440   1.413  0.00  0.00    +0.004 A 
ATOM      9  C   UNL     1      -9.077   6.226   1.279  0.00  0.00    +0.000 A 
ATOM     10  C   UNL     1     -10.040   5.895   0.344  0.00  0.00    +0.000 A 
ATOM     11  C   UNL     1      -9.869   4.781  -0.453  0.00  0.00    +0.002 A 
ATOM     12  C   UNL     1      -8.736   3.991  -0.322  0.00  0.00    -0.061 A 
ATOM     13  C   UNL     1      -8.591   2.792  -1.221  0.00  0.00    -0.045 C 
ATOM     14  N   UNL     1      -7.588   1.862  -0.683  0.00  0.00    +0.389 N 
ATOM     15  H   UNL     1      -7.938   1.452   0.190  0.00  0.00    -0.084 HD
ATOM     16  H   UNL     1      -7.414   1.116  -1.367  0.00  0.00    -0.084 HD
ENDBRANCH   2   5
BRANCH   1  17
ATOM     17  C   UNL     1      -2.879   0.992   0.058  0.00  0.00    +0.162 C 
BRANCH  17  19
ATOM     18  N   UNL     1      -0.674   1.085   1.177  0.00  0.00    -0.314 N 
ATOM     19  C   UNL     1      -1.631   1.726   0.475  0.00  0.00    +0.234 C 
ATOM     20  O   UNL     1      -1.487   2.894   0.180  0.00  0.00    -0.274 OA
ATOM     21  H   UNL     1      -0.820   0.174   1.474  0.00  0.00    +0.149 HD
BRANCH  18  22
ATOM     22  C   UNL     1       0.587   1.764   1.485  0.00  0.00    +0.104 C 
BRANCH  22  24
ATOM     23  C   UNL     1       2.810   1.530   2.599  0.00  0.00    +0.005 C 
ATOM     24  C   UNL     1       1.493   0.821   2.278  0.00  0.00    +0.015 C 
ENDBRANCH  22  24
ENDBRANCH  18  22
ENDBRANCH  17  19
BRANCH  17  25
ATOM     25  C   UNL     1      -2.590   0.168  -1.199  0.00  0.00    +0.015 C 
ATOM     26  C   UNL     1      -2.295   1.109  -2.369  0.00  0.00    +0.010 C 
BRANCH  25  27
ATOM     27  C   UNL     1      -3.807  -0.697  -1.533  0.00  0.00    +0.002 C 
ATOM     28  C   UNL     1      -3.995  -1.754  -0.444  0.00  0.00    +0.004 C 
ENDBRANCH  25  27
ENDBRANCH  17  25
ENDBRANCH   1  17
TORSDOF 7
