REMARK  Name = ZINC62642528
REMARK  5 active torsions:
REMARK  status: ('A' for Active; 'I' for Inactive)
REMARK    1  A    between atoms: C_1  and  O_2
REMARK    2  A    between atoms: O_2  and  C_3
REMARK    3  A    between atoms: C_6  and  N_25
REMARK    4  A    between atoms: C_8  and  N_9
REMARK    5  A    between atoms: C_10  and  C_12
REMARK                            x       y       z     vdW  Elec       q    Type
REMARK                         _______ _______ _______ _____ _____    ______ ____
ROOT
ATOM      1  N   UNL     1      -1.017  -2.953   2.246  0.00  0.00    -0.275 N 
ATOM      2  C   UNL     1      -1.061  -4.290   2.085  0.00  0.00    +0.303 C 
ATOM      3  O   UNL     1      -1.749  -4.967   2.821  0.00  0.00    -0.265 OA
ATOM      4  H   UNL     1      -0.512  -2.406   1.623  0.00  0.00    +0.155 HD
ENDROOT
BRANCH   2   5
ATOM      5  C   UNL     1      -0.265  -4.939   1.001  0.00  0.00    +0.302 C 
ATOM      6  O   UNL     1       0.329  -4.256   0.193  0.00  0.00    -0.265 OA
ATOM      7  N   UNL     1      -0.205  -6.283   0.921  0.00  0.00    -0.290 N 
ATOM      8  C   UNL     1       0.448  -6.871  -0.213  0.00  0.00    +0.112 C 
ATOM      9  C   UNL     1      -0.178  -8.162  -0.646  0.00  0.00    +0.007 C 
ATOM     10  C   UNL     1      -1.694  -8.090  -0.713  0.00  0.00    +0.008 C 
ATOM     11  C   UNL     1      -2.392  -8.411   0.593  0.00  0.00    -0.009 C 
ATOM     12  C   UNL     1      -1.862  -9.717   1.193  0.00  0.00    +0.007 C 
ATOM     13  C   UNL     1      -0.361  -9.532   1.425  0.00  0.00    -0.009 C 
ATOM     14  C   UNL     1       0.321  -9.389   0.064  0.00  0.00    +0.008 C 
ATOM     15  C   UNL     1      -0.076  -8.341   2.310  0.00  0.00    +0.026 C 
ATOM     16  C   UNL     1      -0.800  -7.066   1.990  0.00  0.00    +0.077 C 
ATOM     17  C   UNL     1      -2.274  -7.309   1.636  0.00  0.00    +0.026 C 
ENDBRANCH   2   5
BRANCH   1  23
ATOM     18  C   UNL     1      -1.177  -1.215   3.921  0.00  0.00    +0.141 A 
ATOM     19  C   UNL     1      -1.860  -0.622   4.971  0.00  0.00    +0.050 A 
ATOM     20  C   UNL     1      -3.054  -1.162   5.412  0.00  0.00    +0.036 A 
ATOM     21  C   UNL     1      -3.570  -2.295   4.809  0.00  0.00    +0.128 A 
ATOM     22  C   UNL     1      -2.895  -2.892   3.762  0.00  0.00    +0.059 A 
ATOM     23  C   UNL     1      -1.699  -2.353   3.309  0.00  0.00    +0.078 A 
BRANCH  21  24
ATOM     24  N   UNL     1      -4.848  -2.868   5.287  0.00  0.00    +0.056 N 
ATOM     25  O   UNL     1      -5.439  -2.347   6.203  0.00  0.00    -0.126 OA
ATOM     26  O   UNL     1      -5.301  -3.858   4.761  0.00  0.00    -0.126 OA
ENDBRANCH  21  24
BRANCH  18  28
ATOM     27  C   UNL     1       0.471   0.483   4.161  0.00  0.00    +0.277 C 
ATOM     28  O   UNL     1      -0.003  -0.684   3.486  0.00  0.00    -0.493 OA
ENDBRANCH  18  28
ENDBRANCH   1  23
TORSDOF 4
