REMARK  Name = ZINC39730380
REMARK  7 active torsions:
REMARK  status: ('A' for Active; 'I' for Inactive)
REMARK    1  A    between atoms: C_1  and  C_2
REMARK    2  A    between atoms: C_2  and  C_38
REMARK    3  A    between atoms: C_6  and  C_26
REMARK    4  A    between atoms: C_12  and  S_16
REMARK    5  A    between atoms: S_16  and  C_17
REMARK    6  A    between atoms: C_17  and  C_18
REMARK    7  A    between atoms: C_29  and  N_32
REMARK                            x       y       z     vdW  Elec       q    Type
REMARK                         _______ _______ _______ _____ _____    ______ ____
ROOT
ATOM      1  C   UNL     1      -0.019   1.526   0.010  0.00  0.00    +0.011 C 
ATOM      2  C   UNL     1       0.002  -0.004   0.002  0.00  0.00    -0.023 C 
ATOM      3  C   UNL     1      -1.432  -0.538   0.036  0.00  0.00    +0.062 C 
ATOM      4  C   UNL     1      -1.407  -2.045   0.109  0.00  0.00    +0.051 C 
ATOM      5  C   UNL     1      -0.322  -2.703   0.698  0.00  0.00    +0.025 C 
ATOM      6  C   UNL     1      -0.283  -4.217   0.717  0.00  0.00    +0.073 C 
ATOM      7  C   UNL     1      -1.716  -4.734   0.790  0.00  0.00    +0.156 C 
ATOM      8  C   UNL     1      -2.558  -4.033  -0.239  0.00  0.00    +0.145 C 
ATOM      9  N   UNL     1      -3.398  -4.710  -0.993  0.00  0.00    -0.208 NA
ATOM     10  C   UNL     1      -3.466  -6.041  -0.960  0.00  0.00    +0.182 C 
ATOM     11  N   UNL     1      -2.653  -6.775  -0.208  0.00  0.00    -0.154 NA
ATOM     12  C   UNL     1      -1.784  -6.218   0.606  0.00  0.00    +0.250 C 
ATOM     13  O   UNL     1      -1.024  -6.933   1.229  0.00  0.00    -0.273 OA
ATOM     14  N   UNL     1      -2.402  -2.726  -0.427  0.00  0.00    -0.236 NA
ATOM     15  C   UNL     1       0.707  -2.019   1.250  0.00  0.00    +0.162 C 
ATOM     16  O   UNL     1       1.720  -2.699   1.817  0.00  0.00    -0.292 OA
ATOM     17  C   UNL     1       0.743  -0.515   1.242  0.00  0.00    +0.086 C 
ATOM     18  C   UNL     1       0.710  -0.501  -1.260  0.00  0.00    +0.011 C 
ENDROOT
BRANCH   6  19
ATOM     19  C   UNL     1       0.491  -4.690   1.920  0.00  0.00    -0.039 A 
ATOM     20  C   UNL     1       0.062  -4.359   3.192  0.00  0.00    +0.006 A 
ATOM     21  C   UNL     1       0.772  -4.793   4.295  0.00  0.00    +0.033 A 
ATOM     22  C   UNL     1       1.911  -5.559   4.127  0.00  0.00    +0.126 A 
ATOM     23  C   UNL     1       2.339  -5.890   2.856  0.00  0.00    +0.033 A 
ATOM     24  C   UNL     1       1.627  -5.460   1.752  0.00  0.00    +0.006 A 
BRANCH  22  25
ATOM     25  N   UNL     1       2.672  -6.023   5.309  0.00  0.00    +0.056 N 
ATOM     26  O   UNL     1       2.297  -5.732   6.421  0.00  0.00    -0.126 OA
ATOM     27  O   UNL     1       3.668  -6.692   5.162  0.00  0.00    -0.126 OA
ENDBRANCH  22  25
ENDBRANCH   6  19
BRANCH  10  28
ATOM     28  S   UNL     1      -4.676  -6.856  -1.947  0.00  0.00    -0.084 S 
BRANCH  28  29
ATOM     29  C   UNL     1      -4.414  -8.617  -1.599  0.00  0.00    +0.115 C 
BRANCH  29  30
ATOM     30  C   UNL     1      -5.399  -9.437  -2.392  0.00  0.00    -0.002 A 
ATOM     31  C   UNL     1      -6.633  -9.746  -1.852  0.00  0.00    +0.007 A 
ATOM     32  C   UNL     1      -7.536 -10.499  -2.579  0.00  0.00    +0.000 A 
ATOM     33  C   UNL     1      -7.207 -10.944  -3.846  0.00  0.00    +0.003 A 
ATOM     34  C   UNL     1      -5.973 -10.635  -4.387  0.00  0.00    +0.038 A 
ATOM     35  C   UNL     1      -5.069  -9.877  -3.662  0.00  0.00    +0.127 A 
ATOM     36  F   UNL     1      -3.865  -9.571  -4.193  0.00  0.00    -0.205 F 
ENDBRANCH  29  30
ENDBRANCH  28  29
ENDBRANCH  10  28
TORSDOF 5
