REMARK  Name = ZINC18101974
REMARK  15 active torsions:
REMARK  status: ('A' for Active; 'I' for Inactive)
REMARK    1  A    between atoms: C_1  and  C_2
REMARK    2  A    between atoms: C_6  and  O_9
REMARK    3  A    between atoms: C_7  and  C_8
REMARK    4  A    between atoms: O_9  and  C_10
REMARK    5  A    between atoms: C_10  and  C_12
REMARK    6  A    between atoms: C_10  and  C_13
REMARK    7  A    between atoms: N_15  and  N_16
REMARK    8  A    between atoms: C_17  and  C_19
REMARK    9  A    between atoms: C_19  and  C_20
REMARK   10  A    between atoms: C_20  and  N_21
REMARK   11  A    between atoms: C_22  and  C_24
REMARK   12  A    between atoms: C_27  and  C_30
REMARK   13  A    between atoms: C_30  and  C_31
REMARK   14  A    between atoms: C_30  and  C_32
REMARK   15  A    between atoms: C_30  and  C_33
REMARK                            x       y       z     vdW  Elec       q    Type
REMARK                         _______ _______ _______ _____ _____    ______ ____
ROOT
ATOM      1  N   UNL     1       4.940   0.816   0.475  0.00  0.00    -0.234 N 
ATOM      2  C   UNL     1       3.755   1.455   0.528  0.00  0.00    +0.231 C 
ATOM      3  O   UNL     1       3.705   2.656   0.367  0.00  0.00    -0.274 OA
ATOM      4  H   UNL     1       4.979  -0.145   0.603  0.00  0.00    +0.173 HD
ENDROOT
BRANCH   1   7
ATOM      5  C   UNL     1       7.301   0.899   0.181  0.00  0.00    +0.270 C 
ATOM      6  O   UNL     1       7.350  -0.302   0.342  0.00  0.00    -0.270 OA
ATOM      7  N   UNL     1       6.115   1.539   0.234  0.00  0.00    -0.231 N 
ATOM      8  H   UNL     1       6.076   2.499   0.105  0.00  0.00    +0.173 HD
BRANCH   5   9
ATOM      9  C   UNL     1       8.565   1.677  -0.079  0.00  0.00    +0.257 C 
ATOM     10  C   UNL     1       8.823   2.635   1.087  0.00  0.00    +0.062 C 
BRANCH   9  11
ATOM     11  O   UNL     1       9.664   0.772  -0.203  0.00  0.00    -0.480 OA
BRANCH  11  17
ATOM     12  C   UNL     1      14.012  -0.179  -2.206  0.00  0.00    +0.044 C 
ATOM     13  C   UNL     1      12.871   0.763  -1.921  0.00  0.00    -0.044 A 
ATOM     14  C   UNL     1      12.913   2.062  -2.394  0.00  0.00    +0.004 A 
ATOM     15  C   UNL     1      11.868   2.929  -2.134  0.00  0.00    +0.004 A 
ATOM     16  C   UNL     1      10.776   2.497  -1.406  0.00  0.00    +0.046 A 
ATOM     17  C   UNL     1      10.734   1.197  -0.925  0.00  0.00    +0.125 A 
ATOM     18  C   UNL     1      11.785   0.329  -1.187  0.00  0.00    -0.006 A 
ATOM     19  C   UNL     1      11.739  -1.087  -0.672  0.00  0.00    +0.048 C 
ENDBRANCH  11  17
ENDBRANCH   9  11
ENDBRANCH   5   9
ENDBRANCH   1   7
BRANCH   2  20
ATOM     20  C   UNL     1       2.490   0.677   0.787  0.00  0.00    +0.116 C 
BRANCH  20  21
ATOM     21  C   UNL     1       1.296   1.634   0.797  0.00  0.00    +0.114 C 
BRANCH  21  22
ATOM     22  N   UNL     1       0.067   0.878   1.049  0.00  0.00    -0.311 N 
ATOM     23  C   UNL     1      -1.119   1.516   1.096  0.00  0.00    +0.244 C 
ATOM     24  O   UNL     1      -1.169   2.720   0.935  0.00  0.00    -0.270 OA
ATOM     25  H   UNL     1       0.106  -0.083   1.177  0.00  0.00    +0.149 HD
BRANCH  23  26
ATOM     26  C   UNL     1      -2.361   0.753   1.344  0.00  0.00    +0.037 A 
ATOM     27  C   UNL     1      -2.308  -0.631   1.524  0.00  0.00    +0.013 A 
ATOM     28  C   UNL     1      -3.470  -1.337   1.760  0.00  0.00    +0.005 A 
ATOM     29  C   UNL     1      -4.686  -0.678   1.808  0.00  0.00    -0.042 A 
ATOM     30  C   UNL     1      -4.745   0.692   1.626  0.00  0.00    +0.005 A 
ATOM     31  C   UNL     1      -3.591   1.411   1.394  0.00  0.00    +0.013 A 
BRANCH  29  32
ATOM     32  C   UNL     1      -5.951  -1.457   2.060  0.00  0.00    -0.013 C 
ATOM     33  C   UNL     1      -6.904  -1.280   0.876  0.00  0.00    +0.015 C 
ATOM     34  C   UNL     1      -5.613  -2.940   2.226  0.00  0.00    +0.015 C 
ATOM     35  C   UNL     1      -6.622  -0.941   3.335  0.00  0.00    +0.015 C 
ENDBRANCH  29  32
ENDBRANCH  23  26
ENDBRANCH  21  22
ENDBRANCH  20  21
ENDBRANCH   2  20
TORSDOF 9
