REMARK  Name = ZINC56206717
REMARK  10 active torsions:
REMARK  status: ('A' for Active; 'I' for Inactive)
REMARK    1  A    between atoms: C_1  and  C_2
REMARK    2  A    between atoms: C_4  and  O_24
REMARK    3  A    between atoms: C_7  and  N_8
REMARK    4  A    between atoms: N_8  and  C_9
REMARK    5  A    between atoms: C_9  and  C_11
REMARK    6  A    between atoms: C_9  and  C_12
REMARK    7  A    between atoms: N_14  and  C_15
REMARK    8  A    between atoms: C_18  and  C_22
REMARK    9  A    between atoms: O_24  and  C_25
REMARK   10  A    between atoms: C_25  and  C_26
REMARK                            x       y       z     vdW  Elec       q    Type
REMARK                         _______ _______ _______ _____ _____    ______ ____
ROOT
ATOM      1  N   UNL     1       0.023  -0.012   2.417  0.00  0.00    -0.333 N 
ATOM      2  H   UNL     1       0.017   0.958   2.421  0.00  0.00    +0.147 HD
ENDROOT
BRANCH   1   9
ATOM      3  C   UNL     1      -0.012   1.500   0.009  0.00  0.00    +0.046 C 
ATOM      4  C   UNL     1      -0.004  -0.007   0.003  0.00  0.00    -0.026 A 
ATOM      5  C   UNL     1      -0.007  -0.694  -1.196  0.00  0.00    +0.050 A 
ATOM      6  C   UNL     1       0.001  -2.080  -1.202  0.00  0.00    +0.122 A 
ATOM      7  C   UNL     1       0.012  -2.780  -0.004  0.00  0.00    +0.047 A 
ATOM      8  C   UNL     1       0.015  -2.095   1.195  0.00  0.00    +0.027 A 
ATOM      9  C   UNL     1       0.013  -0.706   1.202  0.00  0.00    +0.031 A 
BRANCH   6  10
ATOM     10  O   UNL     1      -0.003  -2.755  -2.383  0.00  0.00    -0.483 OA
BRANCH  10  11
ATOM     11  C   UNL     1       0.005  -4.182  -2.314  0.00  0.00    +0.324 C 
BRANCH  11  12
ATOM     12  C   UNL     1      -0.001  -4.752  -3.709  0.00  0.00    +0.248 C 
ATOM     13  O   UNL     1      -0.011  -4.009  -4.668  0.00  0.00    -0.272 OA
ATOM     14  N   UNL     1       0.006  -6.088  -3.892  0.00  0.00    -0.327 N 
ATOM     15  H   UNL     1       0.014  -6.682  -3.125  0.00  0.00    +0.145 HD
ATOM     16  H   UNL     1       0.002  -6.454  -4.790  0.00  0.00    +0.145 HD
ENDBRANCH  11  12
ENDBRANCH  10  11
ENDBRANCH   6  10
ENDBRANCH   1   9
BRANCH   1  17
ATOM     17  C   UNL     1       0.041  -0.750   3.682  0.00  0.00    +0.154 C 
ATOM     18  C   UNL     1      -1.390  -1.124   4.075  0.00  0.00    +0.038 C 
BRANCH  17  19
ATOM     19  C   UNL     1       0.648   0.113   4.758  0.00  0.00    +0.237 C 
ATOM     20  O   UNL     1       1.029   1.233   4.494  0.00  0.00    -0.273 OA
ATOM     21  N   UNL     1       0.769  -0.362   6.014  0.00  0.00    -0.284 N 
ATOM     22  H   UNL     1       0.405  -1.232   6.241  0.00  0.00    +0.155 HD
BRANCH  21  23
ATOM     23  C   UNL     1       1.417   0.399   6.988  0.00  0.00    +0.035 A 
ATOM     24  C   UNL     1       1.294   1.785   6.981  0.00  0.00    +0.024 A 
ATOM     25  C   UNL     1       1.933   2.539   7.940  0.00  0.00    +0.022 A 
ATOM     26  C   UNL     1       2.705   1.912   8.921  0.00  0.00    +0.070 A 
ATOM     27  C   UNL     1       2.826   0.518   8.926  0.00  0.00    +0.060 A 
ATOM     28  C   UNL     1       2.179  -0.231   7.965  0.00  0.00    +0.044 A 
ATOM     29 CL   UNL     1       3.784  -0.268  10.141  0.00  0.00    -0.082 Cl
BRANCH  26  30
ATOM     30  C   UNL     1       3.371   2.693   9.920  0.00  0.00    +0.101 C 
ATOM     31  N   UNL     1       3.899   3.313  10.712  0.00  0.00    -0.191 NA
ENDBRANCH  26  30
ENDBRANCH  21  23
ENDBRANCH  17  19
ENDBRANCH   1  17
TORSDOF 8
