REMARK  Name = ZINC28054931
REMARK  4 active torsions:
REMARK  status: ('A' for Active; 'I' for Inactive)
REMARK    1  A    between atoms: C_1  and  O_2
REMARK    2  A    between atoms: O_2  and  C_3
REMARK    3  A    between atoms: C_6  and  C_9
REMARK    4  A    between atoms: C_26  and  C_28
REMARK                            x       y       z     vdW  Elec       q    Type
REMARK                         _______ _______ _______ _____ _____    ______ ____
ROOT
ATOM      1  C   UNL     1       2.706   4.148  -2.575  0.00  0.00    +0.234 C 
ATOM      2  C   UNL     1       2.510   4.952  -1.310  0.00  0.00    +0.025 C 
ATOM      3  C   UNL     1       2.442   6.282  -1.389  0.00  0.00    +0.050 C 
ATOM      4  C   UNL     1       2.592   6.919  -2.719  0.00  0.00    +0.038 A 
ATOM      5  C   UNL     1       2.207   8.235  -2.943  0.00  0.00    +0.013 A 
ATOM      6  C   UNL     1       2.366   8.786  -4.200  0.00  0.00    +0.001 A 
ATOM      7  C   UNL     1       2.906   8.035  -5.230  0.00  0.00    +0.004 A 
ATOM      8  C   UNL     1       3.292   6.724  -5.015  0.00  0.00    +0.046 A 
ATOM      9  C   UNL     1       3.137   6.159  -3.763  0.00  0.00    +0.131 A 
ATOM     10  O   UNL     1       3.499   4.875  -3.513  0.00  0.00    -0.479 OA
ATOM     11  N   UNL     1       2.248   7.089  -0.261  0.00  0.00    -0.282 N 
ATOM     12  C   UNL     1       2.412   6.495   0.980  0.00  0.00    +0.240 A 
ATOM     13  N   UNL     1       2.523   7.010   2.170  0.00  0.00    -0.092 NA
ATOM     14  N   UNL     1       2.671   6.077   3.048  0.00  0.00    -0.021 NA
ATOM     15  N   UNL     1       2.660   4.916   2.478  0.00  0.00    -0.042 NA
ATOM     16  N   UNL     1       2.486   5.145   1.114  0.00  0.00    -0.201 N 
ATOM     17  C   UNL     1       2.390   4.213  -0.000  0.00  0.00    +0.174 C 
ATOM     18  H   UNL     1       1.977   8.148  -0.382  0.00  0.00    +0.155 HD
ENDROOT
BRANCH  17  19
ATOM     19  C   UNL     1       1.059   3.506   0.054  0.00  0.00    -0.019 A 
ATOM     20  C   UNL     1       1.012   2.131   0.188  0.00  0.00    +0.009 A 
ATOM     21  C   UNL     1      -0.207   1.483   0.237  0.00  0.00    +0.039 A 
ATOM     22  C   UNL     1      -1.382   2.210   0.148  0.00  0.00    +0.123 A 
ATOM     23  C   UNL     1      -1.333   3.588   0.020  0.00  0.00    +0.039 A 
ATOM     24  C   UNL     1      -0.113   4.234  -0.030  0.00  0.00    +0.009 A 
ATOM     25  F   UNL     1      -2.574   1.577   0.191  0.00  0.00    -0.205 F 
ENDBRANCH  17  19
BRANCH   1  29
ATOM     26  C   UNL     1      -1.107   3.303  -4.311  0.00  0.00    +0.120 A 
ATOM     27  C   UNL     1      -0.579   4.584  -4.383  0.00  0.00    +0.046 A 
ATOM     28  C   UNL     1       0.653   4.855  -3.821  0.00  0.00    +0.011 A 
ATOM     29  C   UNL     1       1.361   3.850  -3.187  0.00  0.00    -0.003 A 
ATOM     30  C   UNL     1       0.840   2.571  -3.119  0.00  0.00    +0.011 A 
ATOM     31  C   UNL     1      -0.395   2.297  -3.674  0.00  0.00    +0.046 A 
BRANCH  26  33
ATOM     32  C   UNL     1      -2.801   1.694  -4.750  0.00  0.00    +0.277 C 
ATOM     33  O   UNL     1      -2.320   3.035  -4.862  0.00  0.00    -0.495 OA
ENDBRANCH  26  33
ENDBRANCH   1  29
TORSDOF 3
