REMARK  Name = ZINC45682907
REMARK  4 active torsions:
REMARK  status: ('A' for Active; 'I' for Inactive)
REMARK    1  A    between atoms: C_1  and  C_2
REMARK    2  A    between atoms: C_2  and  C_4
REMARK    3  A    between atoms: C_2  and  N_10
REMARK    4  A    between atoms: N_13  and  C_14
REMARK                            x       y       z     vdW  Elec       q    Type
REMARK                         _______ _______ _______ _____ _____    ______ ____
ROOT
ATOM      1  N   UNL     1       0.711  -0.489   1.189  0.00  0.00    -0.294 N 
ATOM      2  C   UNL     1       2.054  -0.600   1.174  0.00  0.00    +0.300 C 
ATOM      3  O   UNL     1       2.677  -0.297   0.175  0.00  0.00    -0.253 OA
ATOM      4  N   UNL     1       2.706  -1.046   2.266  0.00  0.00    -0.297 N 
ATOM      5  H   UNL     1       0.213  -0.731   1.986  0.00  0.00    +0.151 HD
ATOM      6  H   UNL     1       2.208  -1.288   3.062  0.00  0.00    +0.151 HD
ENDROOT
BRANCH   4   7
ATOM      7  C   UNL     1       4.166  -1.166   2.249  0.00  0.00    +0.074 C 
ATOM      8  C   UNL     1       4.785   0.153   2.624  0.00  0.00    +0.022 C 
ATOM      9  C   UNL     1       6.114   0.410   1.887  0.00  0.00    +0.002 C 
ATOM     10  C   UNL     1       7.006  -0.844   1.809  0.00  0.00    +0.000 C 
ATOM     11  C   UNL     1       7.021  -1.622   3.097  0.00  0.00    +0.000 C 
ATOM     12  C   UNL     1       5.950  -2.729   3.013  0.00  0.00    +0.002 C 
ATOM     13  C   UNL     1       4.610  -2.226   3.277  0.00  0.00    +0.022 C 
ENDBRANCH   4   7
BRANCH   1  15
ATOM     14  C   UNL     1      -0.019   1.526   0.010  0.00  0.00    +0.030 C 
ATOM     15  C   UNL     1       0.002  -0.004   0.002  0.00  0.00    +0.100 C 
BRANCH  15  16
ATOM     16  C   UNL     1      -1.433  -0.534   0.013  0.00  0.00    +0.138 C 
ATOM     17  C   UNL     1      -2.151  -0.128  -1.292  0.00  0.00    +0.035 C 
ATOM     18  C   UNL     1      -3.577   0.225  -0.788  0.00  0.00    +0.031 C 
ATOM     19  C   UNL     1      -3.257   0.825   0.604  0.00  0.00    +0.160 C 
ATOM     20  O   UNL     1      -2.157   0.046   1.105  0.00  0.00    -0.375 OA
ENDBRANCH  15  16
ENDBRANCH   1  15
TORSDOF 3
