REMARK  Name = ZINC63803866
REMARK  13 active torsions:
REMARK  status: ('A' for Active; 'I' for Inactive)
REMARK    1  A    between atoms: C_1  and  C_2
REMARK    2  A    between atoms: C_2  and  C_3
REMARK    3  A    between atoms: C_3  and  N_4
REMARK    4  A    between atoms: N_7  and  C_8
REMARK    5  A    between atoms: C_8  and  C_9
REMARK    6  A    between atoms: C_8  and  C_10
REMARK    7  A    between atoms: C_8  and  C_11
REMARK    8  A    between atoms: N_13  and  C_14
REMARK    9  A    between atoms: C_14  and  C_15
REMARK   10  A    between atoms: C_15  and  C_16
REMARK   11  A    between atoms: C_15  and  N_22
REMARK   12  A    between atoms: N_22  and  C_23
REMARK   13  A    between atoms: N_22  and  C_24
REMARK                            x       y       z     vdW  Elec       q    Type
REMARK                         _______ _______ _______ _____ _____    ______ ____
ROOT
ATOM      1  C   UNL     1      -3.753  -6.689  -0.444  0.00  0.00    +0.236 C 
ATOM      2  O   UNL     1      -4.278  -7.468   0.323  0.00  0.00    -0.273 OA
ATOM      3  N   UNL     1      -2.682  -7.072  -1.167  0.00  0.00    -0.315 N 
ATOM      4  H   UNL     1      -2.262  -6.449  -1.780  0.00  0.00    +0.149 HD
ENDROOT
BRANCH   1   5
ATOM      5  C   UNL     1      -4.298  -5.291  -0.589  0.00  0.00    +0.106 C 
ATOM      6  C   UNL     1      -5.040  -4.898   0.690  0.00  0.00    +0.041 C 
ATOM      7  C   UNL     1      -5.264  -5.241  -1.774  0.00  0.00    +0.041 C 
BRANCH   5  11
ATOM      8  N   UNL     1      -2.427  -2.183  -1.190  0.00  0.00    -0.299 N 
ATOM      9  C   UNL     1      -3.444  -3.043  -0.979  0.00  0.00    +0.300 C 
ATOM     10  O   UNL     1      -4.587  -2.632  -0.932  0.00  0.00    -0.253 OA
ATOM     11  N   UNL     1      -3.193  -4.357  -0.819  0.00  0.00    -0.286 N 
ATOM     12  H   UNL     1      -1.515  -2.511  -1.227  0.00  0.00    +0.150 HD
ATOM     13  H   UNL     1      -2.281  -4.685  -0.856  0.00  0.00    +0.151 HD
BRANCH   8  14
ATOM     14  C   UNL     1      -2.700  -0.755  -1.364  0.00  0.00    +0.105 C 
BRANCH  14  16
ATOM     15  C   UNL     1      -1.668   1.485  -1.768  0.00  0.00    +0.005 C 
ATOM     16  C   UNL     1      -1.383  -0.008  -1.587  0.00  0.00    +0.015 C 
ENDBRANCH  14  16
ENDBRANCH   8  14
ENDBRANCH   5  11
ENDBRANCH   1   5
BRANCH   3  17
ATOM     17  C   UNL     1      -2.152  -8.431  -1.026  0.00  0.00    +0.089 C 
BRANCH  17  18
ATOM     18  C   UNL     1      -0.831  -8.544  -1.790  0.00  0.00    -0.049 C 
BRANCH  18  19
ATOM     19  C   UNL     1      -0.358  -9.999  -1.777  0.00  0.00    -0.023 C 
ATOM     20  C   UNL     1       1.013 -10.096  -2.449  0.00  0.00    +0.002 C 
ATOM     21  C   UNL     1       1.486 -11.551  -2.436  0.00  0.00    +0.000 C 
ATOM     22  C   UNL     1       0.483 -12.420  -3.197  0.00  0.00    +0.000 C 
ATOM     23  C   UNL     1      -0.888 -12.324  -2.525  0.00  0.00    +0.000 C 
ATOM     24  C   UNL     1      -1.361 -10.869  -2.538  0.00  0.00    +0.002 C 
ENDBRANCH  18  19
BRANCH  18  25
ATOM     25  N   UNL     1       0.181  -7.695  -1.148  0.00  0.00    +0.379 N 
ATOM     26  C   UNL     1      -0.219  -6.286  -1.262  0.00  0.00    -0.096 C 
ATOM     27  C   UNL     1       0.296  -8.058   0.271  0.00  0.00    -0.096 C 
ATOM     28  H   UNL     1       1.071  -7.830  -1.603  0.00  0.00    -0.082 HD
ENDBRANCH  18  25
ENDBRANCH  17  18
ENDBRANCH   3  17
TORSDOF 8
