REMARK  Name = ZINC05285049
REMARK  7 active torsions:
REMARK  status: ('A' for Active; 'I' for Inactive)
REMARK    1  A    between atoms: C_1  and  C_2
REMARK    2  A    between atoms: C_2  and  C_3
REMARK    3  A    between atoms: C_2  and  C_4
REMARK    4  A    between atoms: C_4  and  N_6
REMARK    5  A    between atoms: C_4  and  N_16
REMARK    6  A    between atoms: N_6  and  S_7
REMARK    7  A    between atoms: S_7  and  C_10
REMARK                            x       y       z     vdW  Elec       q    Type
REMARK                         _______ _______ _______ _____ _____    ______ ____
ROOT
ATOM      1  C   UNL     1       0.038   1.073  -0.033  0.00  0.00    +0.199 C 
ENDROOT
BRANCH   1   2
ATOM      2  N   UNL     1      -0.602   1.567   1.189  0.00  0.00    -0.225 N 
ATOM      3  C   UNL     1      -0.865   0.845   2.329  0.00  0.00    +0.091 A 
ATOM      4  C   UNL     1      -0.646  -0.474   2.709  0.00  0.00    +0.030 A 
ATOM      5  C   UNL     1      -1.035  -0.897   3.950  0.00  0.00    +0.002 A 
ATOM      6  C   UNL     1      -1.646  -0.020   4.836  0.00  0.00    +0.002 A 
ATOM      7  C   UNL     1      -1.871   1.280   4.487  0.00  0.00    +0.032 A 
ATOM      8  C   UNL     1      -1.482   1.738   3.222  0.00  0.00    +0.113 A 
ATOM      9  N   UNL     1      -1.570   2.935   2.608  0.00  0.00    -0.129 NA
ATOM     10  N   UNL     1      -1.062   2.870   1.428  0.00  0.00    -0.063 NA
ENDBRANCH   1   2
BRANCH   1  12
ATOM     11  C   UNL     1       1.465   3.123  -0.095  0.00  0.00    +0.011 C 
ATOM     12  C   UNL     1       1.475   1.593  -0.102  0.00  0.00    +0.023 C 
ATOM     13  C   UNL     1       2.260   1.082   1.108  0.00  0.00    +0.011 C 
ENDBRANCH   1  12
BRANCH   1  14
ATOM     14  N   UNL     1      -0.709   1.547  -1.201  0.00  0.00    -0.166 NA
ATOM     15  H   UNL     1      -1.115   2.428  -1.192  0.00  0.00    +0.150 HD
BRANCH  14  16
ATOM     16  S   UNL     1      -0.860   0.579  -2.536  0.00  0.00    +0.060 S 
ATOM     17  O   UNL     1      -1.643   1.302  -3.476  0.00  0.00    -0.153 OA
ATOM     18  O   UNL     1       0.443   0.099  -2.839  0.00  0.00    -0.153 OA
BRANCH  16  19
ATOM     19  C   UNL     1      -1.814  -0.823  -2.058  0.00  0.00    +0.105 A 
ATOM     20  C   UNL     1      -1.186  -1.953  -1.569  0.00  0.00    +0.028 A 
ATOM     21  C   UNL     1      -1.935  -3.051  -1.189  0.00  0.00    +0.002 A 
ATOM     22  C   UNL     1      -3.312  -3.023  -1.308  0.00  0.00    +0.000 A 
ATOM     23  C   UNL     1      -3.940  -1.895  -1.802  0.00  0.00    +0.002 A 
ATOM     24  C   UNL     1      -3.191  -0.795  -2.176  0.00  0.00    +0.028 A 
ENDBRANCH  16  19
ENDBRANCH  14  16
ENDBRANCH   1  14
TORSDOF 5
