REMARK  Name = ZINC26468144
REMARK  4 active torsions:
REMARK  status: ('A' for Active; 'I' for Inactive)
REMARK    1  A    between atoms: C_5  and  C_7
REMARK    2  A    between atoms: C_10  and  S_13
REMARK    3  A    between atoms: S_13  and  C_14
REMARK    4  A    between atoms: C_14  and  C_15
REMARK                            x       y       z     vdW  Elec       q    Type
REMARK                         _______ _______ _______ _____ _____    ______ ____
ROOT
ATOM      1  S   UNL     1       2.895  -5.705  -0.057  0.00  0.00    -0.079 S 
ENDROOT
BRANCH   1   5
ATOM      2  C   UNL     1       1.251  -2.160  -0.022  0.00  0.00    +0.183 A 
ATOM      3  N   UNL     1       2.373  -2.957  -0.037  0.00  0.00    -0.201 NA
ATOM      4  H   UNL     1      -0.143  -4.998  -0.026  0.00  0.00    +0.191 HD
ATOM      5  C   UNL     1       1.912  -4.242  -0.039  0.00  0.00    +0.185 A 
ATOM      6  N   UNL     1       0.599  -4.185  -0.026  0.00  0.00    -0.253 N 
ATOM      7  N   UNL     1       0.210  -2.960  -0.010  0.00  0.00    -0.152 NA
BRANCH   2  12
ATOM      8  C   UNL     1       2.383   1.421  -0.024  0.00  0.00    +0.001 A 
ATOM      9  C   UNL     1       1.170   2.087  -0.015  0.00  0.00    +0.001 A 
ATOM     10  C   UNL     1      -0.017   1.377  -0.009  0.00  0.00    +0.016 A 
ATOM     11  C   UNL     1       0.002  -0.004  -0.011  0.00  0.00    +0.029 A 
ATOM     12  C   UNL     1       1.223  -0.682  -0.019  0.00  0.00    +0.035 A 
ATOM     13  C   UNL     1       2.416   0.042  -0.026  0.00  0.00    +0.013 A 
ATOM     14 BR   UNL     1      -1.621  -0.974  -0.002  0.00  0.00    -0.050 Br
ENDBRANCH   2  12
ENDBRANCH   1   5
BRANCH   1  15
ATOM     15  C   UNL     1       1.590  -6.960  -0.050  0.00  0.00    +0.153 C 
BRANCH  15  16
ATOM     16  C   UNL     1       2.214  -8.332  -0.064  0.00  0.00    +0.146 A 
ATOM     17  N   UNL     1       2.470  -8.928  -1.215  0.00  0.00    -0.199 NA
ATOM     18  C   UNL     1       3.024 -10.138  -1.231  0.00  0.00    +0.217 A 
ATOM     19  N   UNL     1       3.311 -10.750  -0.088  0.00  0.00    -0.181 NA
ATOM     20  C   UNL     1       3.048 -10.150   1.068  0.00  0.00    +0.217 A 
ATOM     21  N   UNL     1       2.498  -8.938   1.075  0.00  0.00    -0.199 NA
ATOM     22  N   UNL     1       3.344 -10.782   2.258  0.00  0.00    -0.327 N 
ATOM     23  N   UNL     1       3.296 -10.757  -2.434  0.00  0.00    -0.327 N 
ATOM     24  H   UNL     1       3.125 -10.284   3.214  0.00  0.00    +0.145 HD
ATOM     25  H   UNL     1       3.798 -11.784   2.251  0.00  0.00    +0.145 HD
ATOM     26  H   UNL     1       3.754 -11.757  -2.446  0.00  0.00    +0.145 HD
ATOM     27  H   UNL     1       3.054 -10.251  -3.380  0.00  0.00    +0.145 HD
ENDBRANCH  15  16
ENDBRANCH   1  15
TORSDOF 4
