REMARK  Name = ZINC39481413
REMARK  8 active torsions:
REMARK  status: ('A' for Active; 'I' for Inactive)
REMARK    1  A    between atoms: C_1  and  C_2
REMARK    2  A    between atoms: C_2  and  C_3
REMARK    3  A    between atoms: C_3  and  C_4
REMARK    4  A    between atoms: C_7  and  N_18
REMARK    5  A    between atoms: C_8  and  N_10
REMARK    6  A    between atoms: N_18  and  S_19
REMARK    7  A    between atoms: S_19  and  C_22
REMARK    8  A    between atoms: C_27  and  O_28
REMARK                            x       y       z     vdW  Elec       q    Type
REMARK                         _______ _______ _______ _____ _____    ______ ____
ROOT
ATOM      1  C   UNL     1      -0.077  -2.364  -0.331  0.00  0.00    -0.046 A 
ATOM      2  C   UNL     1       1.135  -2.904   0.060  0.00  0.00    +0.005 A 
ATOM      3  C   UNL     1       1.409  -4.238  -0.174  0.00  0.00    +0.026 A 
ATOM      4  C   UNL     1       0.468  -5.040  -0.802  0.00  0.00    +0.069 A 
ATOM      5  C   UNL     1      -0.755  -4.495  -1.196  0.00  0.00    +0.053 A 
ATOM      6  C   UNL     1      -1.023  -3.157  -0.953  0.00  0.00    +0.028 A 
ENDROOT
BRANCH   5   7
ATOM      7  N   UNL     1      -1.709  -5.299  -1.831  0.00  0.00    -0.325 N 
ATOM      8  C   UNL     1      -2.723  -6.026  -1.052  0.00  0.00    +0.120 C 
ATOM      9  C   UNL     1      -2.709  -7.495  -1.487  0.00  0.00    +0.101 C 
ATOM     10  N   UNL     1      -2.873  -7.572  -2.945  0.00  0.00    -0.302 NA
ATOM     11  C   UNL     1      -1.751  -6.930  -3.642  0.00  0.00    +0.135 C 
ATOM     12  C   UNL     1      -1.729  -5.433  -3.296  0.00  0.00    +0.134 C 
ATOM     13  I   UNL     1      -1.995  -7.171  -5.777  0.00  0.00    -0.063 I 
ATOM     14  H   UNL     1      -2.987  -8.529  -3.246  0.00  0.00    +0.123 HD
ENDBRANCH   5   7
BRANCH   4  15
ATOM     15  N   UNL     1       0.743  -6.392  -1.040  0.00  0.00    -0.214 N 
ATOM     16  H   UNL     1       0.412  -6.819  -1.846  0.00  0.00    +0.174 HD
BRANCH  15  17
ATOM     17  S   UNL     1       1.635  -7.260   0.052  0.00  0.00    +0.076 S 
ATOM     18  O   UNL     1       1.108  -6.959   1.337  0.00  0.00    -0.150 OA
ATOM     19  O   UNL     1       1.709  -8.588  -0.449  0.00  0.00    -0.150 OA
BRANCH  17  20
ATOM     20  C   UNL     1       3.274  -6.616   0.016  0.00  0.00    +0.150 A 
ATOM     21  C   UNL     1       3.807  -6.018   1.142  0.00  0.00    +0.032 A 
ATOM     22  C   UNL     1       5.093  -5.512   1.114  0.00  0.00    +0.002 A 
ATOM     23  C   UNL     1       5.850  -5.603  -0.040  0.00  0.00    +0.004 A 
ATOM     24  C   UNL     1       5.322  -6.200  -1.168  0.00  0.00    +0.047 A 
ATOM     25  C   UNL     1       4.033  -6.714  -1.141  0.00  0.00    +0.143 A 
BRANCH  25  26
ATOM     26  O   UNL     1       3.514  -7.307  -2.248  0.00  0.00    -0.505 OA
ATOM     27  H   UNL     1       3.067  -6.695  -2.849  0.00  0.00    +0.292 HD
ENDBRANCH  25  26
ENDBRANCH  17  20
ENDBRANCH  15  17
ENDBRANCH   4  15
BRANCH   1  28
ATOM     28  C   UNL     1      -0.369  -0.908  -0.072  0.00  0.00    +0.035 C 
BRANCH  28  30
ATOM     29  C   UNL     1      -1.323   0.722   1.563  0.00  0.00    +0.004 C 
ATOM     30  C   UNL     1      -1.027  -0.756   1.300  0.00  0.00    +0.001 C 
ENDBRANCH  28  30
ENDBRANCH   1  28
TORSDOF 7
