REMARK  Name = ZINC33161939
REMARK  3 active torsions:
REMARK  status: ('A' for Active; 'I' for Inactive)
REMARK    1  A    between atoms: C_1  and  N_2
REMARK    2  A    between atoms: C_10  and  O_22
REMARK    3  A    between atoms: C_12  and  C_15
REMARK                            x       y       z     vdW  Elec       q    Type
REMARK                         _______ _______ _______ _____ _____    ______ ____
ROOT
ATOM      1  C   UNL     1      -2.424   7.193   0.585  0.00  0.00    -0.096 C 
ATOM      2  N   UNL     1      -1.521   6.086   0.243  0.00  0.00    +0.381 N 
ATOM      3  C   UNL     1      -1.787   4.910   1.084  0.00  0.00    -0.074 C 
ATOM      4  C   UNL     1      -1.121   3.671   0.480  0.00  0.00    +0.018 C 
ATOM      5  C   UNL     1       0.345   3.999   0.217  0.00  0.00    -0.027 A 
ATOM      6  C   UNL     1       0.750   5.291   0.171  0.00  0.00    -0.021 A 
ATOM      7  S   UNL     1       2.490   5.210  -0.156  0.00  0.00    -0.080 S 
ATOM      8  C   UNL     1       2.667   3.509  -0.234  0.00  0.00    +0.080 A 
ATOM      9  C   UNL     1       1.381   3.006   0.005  0.00  0.00    +0.067 A 
ATOM     10  C   UNL     1       1.217   1.530  -0.001  0.00  0.00    +0.220 C 
ATOM     11  N   UNL     1       2.297   0.798  -0.010  0.00  0.00    -0.223 NA
ATOM     12  C   UNL     1       3.655   1.320   0.069  0.00  0.00    +0.224 C 
ATOM     13  N   UNL     1       3.745   2.691  -0.469  0.00  0.00    -0.313 N 
ATOM     14  C   UNL     1      -0.110   6.500   0.358  0.00  0.00    -0.036 C 
ATOM     15  H   UNL     1       4.641   3.006  -1.023  0.00  0.00    +0.149 HD
ATOM     16  H   UNL     1      -1.716   5.807  -0.803  0.00  0.00    -0.082 HD
ENDROOT
BRANCH  12  17
ATOM     17  C   UNL     1       4.089   1.329   1.512  0.00  0.00    -0.005 A 
ATOM     18  C   UNL     1       5.027   2.247   1.946  0.00  0.00    +0.010 A 
ATOM     19  C   UNL     1       5.420   2.259   3.271  0.00  0.00    +0.039 A 
ATOM     20  C   UNL     1       4.884   1.344   4.161  0.00  0.00    +0.123 A 
ATOM     21  C   UNL     1       3.950   0.421   3.723  0.00  0.00    +0.039 A 
ATOM     22  C   UNL     1       3.553   0.414   2.400  0.00  0.00    +0.010 A 
ATOM     23  F   UNL     1       5.274   1.351   5.454  0.00  0.00    -0.205 F 
ENDBRANCH  12  17
BRANCH  10  24
ATOM     24  O   UNL     1      -0.011   0.963   0.007  0.00  0.00    -0.492 OA
ATOM     25  H   UNL     1      -0.111  -0.133   0.002  0.00  0.00    +0.294 HD
ENDBRANCH  10  24
TORSDOF 2
