REMARK  Name = ZINC63752958
REMARK  7 active torsions:
REMARK  status: ('A' for Active; 'I' for Inactive)
REMARK    1  A    between atoms: C_1  and  C_2
REMARK    2  A    between atoms: C_6  and  C_8
REMARK    3  A    between atoms: N_10  and  C_11
REMARK    4  A    between atoms: C_14  and  C_36
REMARK    5  A    between atoms: C_19  and  C_21
REMARK    6  A    between atoms: N_26  and  C_29
REMARK    7  A    between atoms: C_33  and  C_35
REMARK                            x       y       z     vdW  Elec       q    Type
REMARK                         _______ _______ _______ _____ _____    ______ ____
ROOT
ATOM      1  C   UNL     1       0.158  -4.878   3.612  0.00  0.00    +0.051 C 
ATOM      2  C   UNL     1       0.163  -4.356   4.895  0.00  0.00    +0.018 A 
ATOM      3  C   UNL     1       0.051  -3.035   5.389  0.00  0.00    +0.015 A 
ATOM      4  C   UNL     1       0.090  -2.811   6.726  0.00  0.00    -0.050 A 
ATOM      5  C   UNL     1       0.239  -3.858   7.640  0.00  0.00    +0.005 A 
ATOM      6  C   UNL     1       0.352  -5.147   7.239  0.00  0.00    +0.026 A 
ATOM      7  C   UNL     1       0.320  -5.462   5.856  0.00  0.00    +0.045 A 
ATOM      8  N   UNL     1       0.409  -6.614   5.221  0.00  0.00    -0.369 N 
ATOM      9  C   UNL     1       0.312  -6.374   3.777  0.00  0.00    +0.211 C 
ATOM     10  C   UNL     1      -0.030  -1.399   7.239  0.00  0.00    +0.044 C 
ATOM     11  H   UNL     1       0.517  -7.481   5.641  0.00  0.00    +0.161 HD
ENDROOT
BRANCH   9  12
ATOM     12  C   UNL     1      -0.888  -7.086   3.209  0.00  0.00    +0.244 C 
ATOM     13  O   UNL     1      -1.765  -7.480   3.949  0.00  0.00    -0.273 OA
ATOM     14  N   UNL     1      -0.987  -7.285   1.880  0.00  0.00    -0.296 N 
ATOM     15  C   UNL     1       0.071  -6.819   0.973  0.00  0.00    +0.126 C 
ATOM     16  C   UNL     1       0.561  -8.009   0.139  0.00  0.00    +0.124 C 
ATOM     17  N   UNL     1      -0.607  -8.697  -0.429  0.00  0.00    -0.327 N 
ATOM     18  C   UNL     1      -1.665  -9.163   0.478  0.00  0.00    +0.124 C 
ATOM     19  C   UNL     1      -2.152  -7.978   1.312  0.00  0.00    +0.126 C 
BRANCH  17  20
ATOM     20  C   UNL     1      -0.710  -8.903  -1.807  0.00  0.00    +0.030 A 
ATOM     21  C   UNL     1       0.349  -8.566  -2.642  0.00  0.00    +0.023 A 
ATOM     22  C   UNL     1       0.244  -8.772  -4.003  0.00  0.00    +0.002 A 
ATOM     23  C   UNL     1      -0.912  -9.312  -4.536  0.00  0.00    +0.003 A 
ATOM     24  C   UNL     1      -1.968  -9.648  -3.708  0.00  0.00    -0.049 A 
ATOM     25  C   UNL     1      -1.867  -9.450  -2.345  0.00  0.00    +0.026 A 
ATOM     26  C   UNL     1      -3.226 -10.235  -4.293  0.00  0.00    +0.044 C 
ENDBRANCH  17  20
ENDBRANCH   9  12
BRANCH   1  29
ATOM     27  C   UNL     1       0.516  -2.935   2.349  0.00  0.00    +0.248 C 
ATOM     28  O   UNL     1       1.031  -2.406   3.314  0.00  0.00    -0.270 OA
ATOM     29  N   UNL     1       0.033  -4.189   2.446  0.00  0.00    -0.282 N 
ATOM     30  H   UNL     1      -0.404  -4.601   1.684  0.00  0.00    +0.155 HD
BRANCH  27  36
ATOM     31  C   UNL     1       1.361   1.179  -0.344  0.00  0.00    +0.044 C 
ATOM     32  C   UNL     1       0.824  -0.224  -0.231  0.00  0.00    -0.050 A 
ATOM     33  C   UNL     1       0.236  -0.829  -1.328  0.00  0.00    +0.003 A 
ATOM     34  C   UNL     1      -0.260  -2.117  -1.233  0.00  0.00    +0.001 A 
ATOM     35  C   UNL     1      -0.173  -2.807  -0.041  0.00  0.00    +0.013 A 
ATOM     36  C   UNL     1       0.419  -2.202   1.070  0.00  0.00    +0.037 A 
ATOM     37  C   UNL     1       0.923  -0.904   0.965  0.00  0.00    +0.016 A 
ENDBRANCH  27  36
ENDBRANCH   1  29
TORSDOF 4
