REMARK  Name = ZINC49514463
REMARK  6 active torsions:
REMARK  status: ('A' for Active; 'I' for Inactive)
REMARK    1  A    between atoms: C_1  and  O_2
REMARK    2  A    between atoms: O_2  and  C_3
REMARK    3  A    between atoms: C_3  and  C_4
REMARK    4  A    between atoms: C_8  and  N_10
REMARK    5  A    between atoms: N_10  and  C_11
REMARK    6  A    between atoms: C_16  and  N_17
REMARK                            x       y       z     vdW  Elec       q    Type
REMARK                         _______ _______ _______ _____ _____    ______ ____
ROOT
ATOM      1  N   UNL     1      -1.486  -4.870  -2.047  0.00  0.00    -0.313 N 
ATOM      2  H   UNL     1      -2.241  -4.377  -2.405  0.00  0.00    +0.152 HD
ENDROOT
BRANCH   1   3
ATOM      3  C   UNL     1      -1.497  -6.268  -2.058  0.00  0.00    +0.062 A 
ATOM      4  C   UNL     1      -1.233  -6.957  -3.235  0.00  0.00    +0.026 A 
ATOM      5  C   UNL     1      -1.244  -8.338  -3.242  0.00  0.00    +0.017 A 
ATOM      6  C   UNL     1      -1.518  -9.035  -2.078  0.00  0.00    +0.020 A 
ATOM      7  C   UNL     1      -1.781  -8.351  -0.905  0.00  0.00    +0.050 A 
ATOM      8  C   UNL     1      -1.765  -6.970  -0.890  0.00  0.00    +0.148 A 
ATOM      9 BR   UNL     1      -1.534 -10.926  -2.093  0.00  0.00    -0.050 Br
BRANCH   8  10
ATOM     10  N   UNL     1      -2.041  -6.239   0.367  0.00  0.00    +0.058 N 
ATOM     11  O   UNL     1      -2.160  -6.847   1.406  0.00  0.00    -0.126 OA
ATOM     12  O   UNL     1      -2.146  -5.035   0.356  0.00  0.00    -0.126 OA
ENDBRANCH   8  10
ENDBRANCH   1   3
BRANCH   1  17
ATOM     13  C   UNL     1       0.750  -2.122  -1.071  0.00  0.00    -0.020 A 
ATOM     14  C   UNL     1       1.785  -2.824  -0.481  0.00  0.00    +0.006 A 
ATOM     15  C   UNL     1       1.736  -4.204  -0.410  0.00  0.00    +0.002 A 
ATOM     16  C   UNL     1       0.653  -4.886  -0.928  0.00  0.00    +0.023 A 
ATOM     17  C   UNL     1      -0.389  -4.184  -1.521  0.00  0.00    +0.032 A 
ATOM     18  C   UNL     1      -0.339  -2.796  -1.586  0.00  0.00    +0.029 A 
BRANCH  13  19
ATOM     19  C   UNL     1       0.808  -0.618  -1.147  0.00  0.00    +0.194 C 
BRANCH  19  21
ATOM     20  C   UNL     1       0.213   1.370   0.053  0.00  0.00    +0.194 C 
ATOM     21  O   UNL     1       0.210  -0.059   0.024  0.00  0.00    -0.378 OA
ENDBRANCH  19  21
ENDBRANCH  13  19
ENDBRANCH   1  17
TORSDOF 5
