REMARK  Name = ZINC13800331
REMARK  7 active torsions:
REMARK  status: ('A' for Active; 'I' for Inactive)
REMARK    1  A    between atoms: C_3  and  C_9
REMARK    2  A    between atoms: C_5  and  C_7
REMARK    3  A    between atoms: C_9  and  N_10
REMARK    4  A    between atoms: C_13  and  N_17
REMARK    5  A    between atoms: N_17  and  S_18
REMARK    6  A    between atoms: S_18  and  C_21
REMARK    7  A    between atoms: C_24  and  C_27
REMARK                            x       y       z     vdW  Elec       q    Type
REMARK                         _______ _______ _______ _____ _____    ______ ____
ROOT
ATOM      1  N   UNL     1      -4.182   6.777   3.751  0.00  0.00    -0.296 N 
ATOM      2  C   UNL     1      -5.186   7.847   3.786  0.00  0.00    +0.110 C 
ATOM      3  C   UNL     1      -5.105   8.534   2.405  0.00  0.00    +0.049 C 
ATOM      4  C   UNL     1      -4.543   7.397   1.520  0.00  0.00    +0.164 C 
ATOM      5  C   UNL     1      -3.807   6.501   2.490  0.00  0.00    +0.235 C 
ATOM      6  O   UNL     1      -2.996   5.655   2.177  0.00  0.00    -0.274 OA
ENDROOT
BRANCH   4   7
ATOM      7  N   UNL     1      -5.634   6.665   0.872  0.00  0.00    -0.178 NA
ATOM      8  H   UNL     1      -6.474   6.532   1.340  0.00  0.00    +0.149 HD
BRANCH   7   9
ATOM      9  S   UNL     1      -5.435   6.064  -0.658  0.00  0.00    +0.059 S 
ATOM     10  O   UNL     1      -4.910   7.124  -1.445  0.00  0.00    -0.153 OA
ATOM     11  O   UNL     1      -6.642   5.393  -0.992  0.00  0.00    -0.153 OA
BRANCH   9  12
ATOM     12  C   UNL     1      -4.180   4.830  -0.573  0.00  0.00    +0.105 A 
ATOM     13  C   UNL     1      -4.523   3.514  -0.322  0.00  0.00    +0.029 A 
ATOM     14  C   UNL     1      -3.544   2.544  -0.254  0.00  0.00    +0.010 A 
ATOM     15  C   UNL     1      -2.208   2.892  -0.440  0.00  0.00    -0.018 A 
ATOM     16  C   UNL     1      -1.867   4.220  -0.687  0.00  0.00    +0.010 A 
ATOM     17  C   UNL     1      -2.854   5.181  -0.758  0.00  0.00    +0.029 A 
BRANCH  15  18
ATOM     18  C   UNL     1      -1.151   1.853  -0.368  0.00  0.00    -0.015 A 
ATOM     19  C   UNL     1      -1.475   0.516  -0.121  0.00  0.00    +0.030 A 
ATOM     20  C   UNL     1      -0.461  -0.418  -0.058  0.00  0.00    +0.134 A 
ATOM     21  N   UNL     1       0.798  -0.064  -0.237  0.00  0.00    -0.147 N 
ATOM     22  O   UNL     1       1.807  -1.056  -0.169  0.00  0.00    -0.164 OA
ATOM     23  C   UNL     1       1.145   1.187  -0.477  0.00  0.00    +0.134 A 
ATOM     24  C   UNL     1       0.195   2.184  -0.552  0.00  0.00    +0.030 A 
ENDBRANCH  15  18
ENDBRANCH   9  12
ENDBRANCH   7   9
ENDBRANCH   4   7
BRANCH   1  25
ATOM     25  C   UNL     1      -3.656   6.099   4.938  0.00  0.00    +0.143 C 
BRANCH  25  28
ATOM     26  C   UNL     1      -6.390   3.927   6.382  0.00  0.00    +0.001 A 
ATOM     27  C   UNL     1      -5.598   5.024   6.095  0.00  0.00    +0.005 A 
ATOM     28  C   UNL     1      -4.510   4.897   5.250  0.00  0.00    -0.029 A 
ATOM     29  C   UNL     1      -4.203   3.671   4.696  0.00  0.00    +0.016 A 
ATOM     30  C   UNL     1      -4.994   2.560   4.985  0.00  0.00    +0.012 A 
ATOM     31  C   UNL     1      -6.093   2.696   5.834  0.00  0.00    +0.011 A 
BRANCH  30  32
ATOM     32  C   UNL     1      -4.669   1.242   4.394  0.00  0.00    +0.094 C 
ATOM     33  N   UNL     1      -5.453   0.146   4.682  0.00  0.00    -0.345 N 
ATOM     34  H   UNL     1      -3.349   0.296   3.167  0.00  0.00    +0.157 HD
ATOM     35  H   UNL     1      -6.218   0.238   5.272  0.00  0.00    +0.144 HD
ATOM     36  H   UNL     1      -5.241  -0.718   4.295  0.00  0.00    +0.144 HD
ATOM     37  N   UNL     1      -3.613   1.182   3.598  0.00  0.00    -0.387 N 
ATOM     38  H   UNL     1      -3.060   2.028   3.414  0.00  0.00    +0.157 HD
ENDBRANCH  30  32
ENDBRANCH  25  28
ENDBRANCH   1  25
TORSDOF 7
