REMARK  Name = ZINC02459746
REMARK  7 active torsions:
REMARK  status: ('A' for Active; 'I' for Inactive)
REMARK    1  A    between atoms: C_1  and  C_2
REMARK    2  A    between atoms: C_5  and  S_23
REMARK    3  A    between atoms: C_10  and  C_11
REMARK    4  A    between atoms: N_13  and  C_14
REMARK    5  A    between atoms: C_20  and  C_22
REMARK    6  A    between atoms: S_23  and  N_26
REMARK    7  A    between atoms: C_29  and  C_32
REMARK                            x       y       z     vdW  Elec       q    Type
REMARK                         _______ _______ _______ _____ _____    ______ ____
ROOT
ATOM      1  C   UNL     1       1.060  -4.400  -4.979  0.00  0.00    +0.048 C 
ATOM      2  C   UNL     1       0.955  -4.872  -3.552  0.00  0.00    +0.008 A 
ATOM      3  C   UNL     1       0.937  -6.258  -3.083  0.00  0.00    +0.026 A 
ATOM      4  C   UNL     1       1.003  -7.501  -3.717  0.00  0.00    +0.040 A 
ATOM      5  C   UNL     1       0.961  -8.645  -2.971  0.00  0.00    +0.106 A 
ATOM      6  C   UNL     1       0.853  -8.579  -1.588  0.00  0.00    +0.032 A 
ATOM      7  C   UNL     1       0.786  -7.362  -0.944  0.00  0.00    +0.049 A 
ATOM      8  C   UNL     1       0.827  -6.185  -1.682  0.00  0.00    +0.136 A 
ATOM      9  O   UNL     1       0.788  -4.882  -1.344  0.00  0.00    -0.450 OA
ATOM     10  C   UNL     1       0.858  -4.098  -2.440  0.00  0.00    +0.193 A 
ENDROOT
BRANCH  10  11
ATOM     11  C   UNL     1       0.838  -2.628  -2.432  0.00  0.00    +0.280 C 
ATOM     12  O   UNL     1       0.911  -2.013  -3.479  0.00  0.00    -0.267 OA
ATOM     13  N   UNL     1       0.738  -1.962  -1.265  0.00  0.00    -0.306 N 
ATOM     14  H   UNL     1       0.679  -2.453  -0.430  0.00  0.00    +0.149 HD
BRANCH  13  15
ATOM     15  C   UNL     1       0.718  -0.497  -1.257  0.00  0.00    +0.076 C 
ATOM     16  C   UNL     1       2.154   0.032  -1.268  0.00  0.00    +0.022 C 
ATOM     17  C   UNL     1       2.133   1.562  -1.259  0.00  0.00    +0.002 C 
ATOM     18  C   UNL     1       1.417   2.055  -0.000  0.00  0.00    +0.000 C 
ATOM     19  C   UNL     1      -0.019   1.526   0.010  0.00  0.00    +0.005 C 
ATOM     20  C   UNL     1       0.002  -0.004   0.002  0.00  0.00    +0.006 C 
ATOM     21  C   UNL     1      -1.433  -0.534   0.013  0.00  0.00    +0.009 C 
ENDBRANCH  13  15
ENDBRANCH  10  11
BRANCH   5  22
ATOM     22  S   UNL     1       1.045 -10.213  -3.769  0.00  0.00    +0.061 S 
ATOM     23  O   UNL     1       0.437 -11.149  -2.889  0.00  0.00    -0.153 OA
ATOM     24  O   UNL     1       0.593 -10.016  -5.101  0.00  0.00    -0.153 OA
BRANCH  22  25
ATOM     25  N   UNL     1       2.645 -10.628  -3.868  0.00  0.00    -0.177 NA
ATOM     26  C   UNL     1       3.446 -10.245  -5.038  0.00  0.00    +0.110 C 
ATOM     27  C   UNL     1       4.696  -9.497  -4.551  0.00  0.00    +0.020 C 
ATOM     28  C   UNL     1       5.442 -10.368  -3.537  0.00  0.00    -0.012 C 
ATOM     29  C   UNL     1       4.540 -10.634  -2.330  0.00  0.00    +0.020 C 
ATOM     30  C   UNL     1       3.289 -11.390  -2.789  0.00  0.00    +0.110 C 
ATOM     31  C   UNL     1       6.708  -9.643  -3.077  0.00  0.00    +0.007 C 
ENDBRANCH  22  25
ENDBRANCH   5  22
TORSDOF 4
