REMARK  Name = ZINC49504588
REMARK  7 active torsions:
REMARK  status: ('A' for Active; 'I' for Inactive)
REMARK    1  A    between atoms: C_1  and  C_2
REMARK    2  A    between atoms: C_2  and  N_3
REMARK    3  A    between atoms: C_5  and  S_9
REMARK    4  A    between atoms: S_9  and  N_12
REMARK    5  A    between atoms: N_12  and  C_13
REMARK    6  A    between atoms: C_13  and  C_15
REMARK    7  A    between atoms: C_13  and  C_16
REMARK                            x       y       z     vdW  Elec       q    Type
REMARK                         _______ _______ _______ _____ _____    ______ ____
ROOT
ATOM      1  S   UNL     1      -4.205  -2.626  -1.285  0.00  0.00    +0.064 S 
ATOM      2  O   UNL     1      -5.393  -1.861  -1.426  0.00  0.00    -0.153 OA
ATOM      3  O   UNL     1      -3.466  -3.098  -2.404  0.00  0.00    -0.153 OA
ENDROOT
BRANCH   1   6
ATOM      4  N   UNL     1      -2.235  -0.021   0.843  0.00  0.00    -0.268 N 
ATOM      5  C   UNL     1      -3.328  -0.414   0.157  0.00  0.00    +0.138 A 
ATOM      6  C   UNL     1      -3.093  -1.658  -0.320  0.00  0.00    +0.164 A 
ATOM      7  C   UNL     1      -1.806  -2.041   0.091  0.00  0.00    +0.165 A 
ATOM      8  N   UNL     1      -1.291  -1.054   0.785  0.00  0.00    -0.154 NA
ATOM      9  N   UNL     1      -1.180  -3.260  -0.194  0.00  0.00    -0.340 N 
ATOM     10  H   UNL     1      -1.611  -3.901  -0.781  0.00  0.00    +0.144 HD
ATOM     11  H   UNL     1      -0.315  -3.464   0.194  0.00  0.00    +0.144 HD
BRANCH   4  13
ATOM     12  C   UNL     1      -1.693   1.020   2.989  0.00  0.00    +0.029 C 
ATOM     13  C   UNL     1      -2.064   1.265   1.525  0.00  0.00    +0.140 C 
ENDBRANCH   4  13
ENDBRANCH   1   6
BRANCH   1  14
ATOM     14  N   UNL     1      -4.603  -3.958  -0.385  0.00  0.00    -0.183 NA
ATOM     15  H   UNL     1      -4.336  -4.842  -0.682  0.00  0.00    +0.149 HD
BRANCH  14  16
ATOM     16  C   UNL     1      -5.358  -3.801   0.861  0.00  0.00    +0.103 C 
ATOM     17  C   UNL     1      -6.846  -4.024   0.586  0.00  0.00    +0.031 C 
BRANCH  16  18
ATOM     18  C   UNL     1      -4.877  -4.811   1.871  0.00  0.00    -0.029 A 
ATOM     19  C   UNL     1      -4.569  -6.097   1.468  0.00  0.00    +0.008 A 
ATOM     20  C   UNL     1      -4.127  -7.024   2.393  0.00  0.00    +0.038 A 
ATOM     21  C   UNL     1      -3.993  -6.663   3.724  0.00  0.00    +0.123 A 
ATOM     22  C   UNL     1      -4.301  -5.375   4.125  0.00  0.00    +0.038 A 
ATOM     23  C   UNL     1      -4.737  -4.448   3.197  0.00  0.00    +0.008 A 
ATOM     24  F   UNL     1      -3.561  -7.569   4.629  0.00  0.00    -0.205 F 
ENDBRANCH  16  18
ENDBRANCH  14  16
ENDBRANCH   1  14
TORSDOF 5
