REMARK  Name = ZINC54397408
REMARK  7 active torsions:
REMARK  status: ('A' for Active; 'I' for Inactive)
REMARK    1  A    between atoms: C_1  and  C_2
REMARK    2  A    between atoms: C_2  and  C_3
REMARK    3  A    between atoms: C_2  and  N_4
REMARK    4  A    between atoms: C_5  and  C_7
REMARK    5  A    between atoms: C_7  and  N_8
REMARK    6  A    between atoms: C_10  and  C_15
REMARK    7  A    between atoms: C_15  and  N_17
REMARK                            x       y       z     vdW  Elec       q    Type
REMARK                         _______ _______ _______ _____ _____    ______ ____
ROOT
ATOM      1  N   UNL     1      -0.151  -1.206   4.705  0.00  0.00    -0.319 N 
ATOM      2  C   UNL     1       0.294  -1.637   5.942  0.00  0.00    +0.147 A 
ATOM      3  C   UNL     1      -0.568  -1.607   7.053  0.00  0.00    +0.131 A 
ATOM      4  N   UNL     1      -0.128  -2.024   8.237  0.00  0.00    -0.248 NA
ATOM      5  C   UNL     1       1.108  -2.462   8.365  0.00  0.00    +0.131 A 
ATOM      6  C   UNL     1       1.958  -2.490   7.269  0.00  0.00    +0.132 A 
ATOM      7  N   UNL     1       1.535  -2.085   6.085  0.00  0.00    -0.237 NA
ATOM      8  H   UNL     1      -1.080  -0.953   4.585  0.00  0.00    +0.148 HD
ENDROOT
BRANCH   3   9
ATOM      9  C   UNL     1      -1.950  -1.116   6.905  0.00  0.00    +0.099 C 
ATOM     10  S   UNL     1      -3.227  -2.223   6.627  0.00  0.00    -0.033 S 
BRANCH   9  11
ATOM     11  N   UNL     1      -2.210   0.203   6.990  0.00  0.00    -0.350 N 
ATOM     12  H   UNL     1      -1.486   0.831   7.147  0.00  0.00    +0.143 HD
ATOM     13  H   UNL     1      -3.119   0.526   6.893  0.00  0.00    +0.143 HD
ENDBRANCH   9  11
ENDBRANCH   3   9
BRANCH   1  14
ATOM     14  C   UNL     1       0.780  -1.132   3.577  0.00  0.00    +0.198 C 
BRANCH  14  16
ATOM     15  N   UNL     1       0.710  -0.488   1.189  0.00  0.00    -0.312 N 
ATOM     16  C   UNL     1       0.050  -0.637   2.355  0.00  0.00    +0.230 C 
ATOM     17  O   UNL     1      -1.132  -0.372   2.420  0.00  0.00    -0.274 OA
ATOM     18  H   UNL     1       1.655  -0.700   1.137  0.00  0.00    +0.149 HD
BRANCH  15  20
ATOM     19  C   UNL     1      -0.030   1.522   0.010  0.00  0.00    +0.027 C 
ATOM     20  C   UNL     1       0.000  -0.007   0.001  0.00  0.00    +0.067 C 
ATOM     21  C   UNL     1       0.721  -0.496  -1.256  0.00  0.00    +0.027 C 
ENDBRANCH  15  20
ENDBRANCH  14  16
ENDBRANCH   1  14
TORSDOF 5
