REMARK  Name = ZINC12494170
REMARK  5 active torsions:
REMARK  status: ('A' for Active; 'I' for Inactive)
REMARK    1  A    between atoms: C_1  and  C_2
REMARK    2  A    between atoms: C_15  and  S_17
REMARK    3  A    between atoms: S_17  and  C_18
REMARK    4  A    between atoms: C_18  and  C_19
REMARK    5  A    between atoms: N_21  and  C_22
REMARK                            x       y       z     vdW  Elec       q    Type
REMARK                         _______ _______ _______ _____ _____    ______ ____
ROOT
ATOM      1  C   UNL     1      14.379   8.586  -1.141  0.00  0.00    +0.008 C 
ATOM      2  C   UNL     1      12.876   8.368  -1.333  0.00  0.00    -0.009 C 
ATOM      3  C   UNL     1      12.096   9.409  -0.525  0.00  0.00    +0.008 C 
ATOM      4  C   UNL     1      10.615   9.357  -0.904  0.00  0.00    +0.037 C 
ATOM      5  C   UNL     1      10.123   7.918  -0.775  0.00  0.00    -0.023 A 
ATOM      6  C   UNL     1      10.997   6.892  -0.749  0.00  0.00    -0.004 A 
ATOM      7  S   UNL     1       9.995   5.438  -0.592  0.00  0.00    -0.073 S 
ATOM      8  C   UNL     1       8.400   6.216  -0.563  0.00  0.00    +0.117 A 
ATOM      9  C   UNL     1       8.701   7.583  -0.676  0.00  0.00    +0.075 A 
ATOM     10  C   UNL     1       7.579   8.471  -0.680  0.00  0.00    +0.261 A 
ATOM     11  O   UNL     1       7.744   9.675  -0.773  0.00  0.00    -0.267 OA
ATOM     12  N   UNL     1       6.339   7.958  -0.578  0.00  0.00    -0.301 N 
ATOM     13  H   UNL     1       5.575   8.556  -0.580  0.00  0.00    +0.171 HD
ATOM     14  C   UNL     1       6.136   6.612  -0.472  0.00  0.00    +0.170 A 
ATOM     15  N   UNL     1       7.152   5.774  -0.461  0.00  0.00    -0.216 NA
ATOM     16  C   UNL     1      12.491   6.968  -0.835  0.00  0.00    +0.046 C 
ENDROOT
BRANCH  14  17
ATOM     17  S   UNL     1       4.493   5.989  -0.343  0.00  0.00    -0.078 S 
BRANCH  17  18
ATOM     18  C   UNL     1       4.837   4.215  -0.235  0.00  0.00    +0.173 C 
BRANCH  18  19
ATOM     19  C   UNL     1       3.540   3.458  -0.114  0.00  0.00    +0.228 C 
ATOM     20  O   UNL     1       2.486   4.059  -0.101  0.00  0.00    -0.275 OA
ATOM     21  N   UNL     1       3.550   2.114  -0.019  0.00  0.00    -0.279 N 
ATOM     22  H   UNL     1       4.394   1.638   0.039  0.00  0.00    +0.155 HD
BRANCH  21  23
ATOM     23  C   UNL     1       2.339   1.400  -0.006  0.00  0.00    +0.115 A 
ATOM     24  C   UNL     1       2.076   0.473  -0.957  0.00  0.00    +0.116 A 
ATOM     25  N   UNL     1       0.888  -0.212  -0.925  0.00  0.00    -0.313 N 
ATOM     26  H   UNL     1       0.693  -0.897  -1.627  0.00  0.00    +0.170 HD
ATOM     27  C   UNL     1      -0.017   0.029   0.040  0.00  0.00    +0.327 A 
ATOM     28  O   UNL     1      -1.063  -0.591   0.048  0.00  0.00    -0.247 OA
ATOM     29  N   UNL     1       0.217   0.945   0.998  0.00  0.00    -0.274 N 
ATOM     30  H   UNL     1      -0.469   1.109   1.707  0.00  0.00    +0.173 HD
ATOM     31  C   UNL     1       1.371   1.642   1.006  0.00  0.00    +0.275 A 
ATOM     32  O   UNL     1       1.582   2.471   1.873  0.00  0.00    -0.266 OA
ENDBRANCH  21  23
ENDBRANCH  18  19
ENDBRANCH  17  18
ENDBRANCH  14  17
TORSDOF 4
