REMARK  Name = ZINC33428825
REMARK  5 active torsions:
REMARK  status: ('A' for Active; 'I' for Inactive)
REMARK    1  A    between atoms: C_1  and  O_2
REMARK    2  A    between atoms: O_2  and  C_3
REMARK    3  A    between atoms: C_6  and  C_9
REMARK    4  A    between atoms: N_14  and  N_15
REMARK    5  A    between atoms: C_16  and  C_17
REMARK                            x       y       z     vdW  Elec       q    Type
REMARK                         _______ _______ _______ _____ _____    ______ ____
ROOT
ATOM      1  C   UNL     1       0.010  -0.060  -0.941  0.00  0.00    +0.055 A 
ATOM      2  C   UNL     1      -1.084  -0.630  -0.353  0.00  0.00    +0.075 A 
ATOM      3  S   UNL     1      -0.455  -2.265   0.005  0.00  0.00    -0.056 S 
ATOM      4  C   UNL     1       1.187  -2.022  -0.658  0.00  0.00    +0.192 A 
ATOM      5  N   UNL     1       1.117  -0.773  -1.083  0.00  0.00    -0.332 N 
ATOM      6  N   UNL     1       2.248  -2.910  -0.717  0.00  0.00    -0.124 NA
ATOM      7  H   UNL     1       2.001  -0.327  -1.563  0.00  0.00    +0.168 HD
ENDROOT
BRANCH   1  11
ATOM      8  C   UNL     1      -0.143   3.962  -2.315  0.00  0.00    +0.120 A 
ATOM      9  C   UNL     1       1.023   3.224  -2.463  0.00  0.00    +0.046 A 
ATOM     10  C   UNL     1       1.076   1.919  -2.018  0.00  0.00    +0.013 A 
ATOM     11  C   UNL     1      -0.043   1.343  -1.420  0.00  0.00    -0.001 A 
ATOM     12  C   UNL     1      -1.214   2.085  -1.278  0.00  0.00    +0.013 A 
ATOM     13  C   UNL     1      -1.259   3.391  -1.720  0.00  0.00    +0.046 A 
BRANCH   8  15
ATOM     14  C   UNL     1      -1.423   5.949  -2.571  0.00  0.00    +0.277 C 
ATOM     15  O   UNL     1      -0.192   5.248  -2.755  0.00  0.00    -0.495 OA
ENDBRANCH   8  15
ENDBRANCH   1  11
BRANCH   6  16
ATOM     16  N   UNL     1       2.106  -4.207  -0.207  0.00  0.00    -0.155 NA
ATOM     17  C   UNL     1       3.132  -5.000  -0.153  0.00  0.00    +0.143 C 
BRANCH  17  18
ATOM     18  C   UNL     1       4.497  -4.441  -0.163  0.00  0.00    -0.005 A 
ATOM     19  C   UNL     1       5.595  -5.276  -0.382  0.00  0.00    +0.012 A 
ATOM     20  C   UNL     1       6.868  -4.747  -0.395  0.00  0.00    +0.039 A 
ATOM     21  C   UNL     1       7.061  -3.391  -0.180  0.00  0.00    +0.123 A 
ATOM     22  C   UNL     1       5.975  -2.559   0.043  0.00  0.00    +0.039 A 
ATOM     23  C   UNL     1       4.697  -3.075   0.053  0.00  0.00    +0.012 A 
ATOM     24  F   UNL     1       8.311  -2.879  -0.188  0.00  0.00    -0.205 F 
ENDBRANCH  17  18
ENDBRANCH   6  16
TORSDOF 4
