REMARK  Name = ZINC59109493
REMARK  7 active torsions:
REMARK  status: ('A' for Active; 'I' for Inactive)
REMARK    1  A    between atoms: C_1  and  C_2
REMARK    2  A    between atoms: C_4  and  N_9
REMARK    3  A    between atoms: C_10  and  C_32
REMARK    4  A    between atoms: C_12  and  C_15
REMARK    5  A    between atoms: C_13  and  C_14
REMARK    6  A    between atoms: N_22  and  C_25
REMARK    7  A    between atoms: C_25  and  C_26
REMARK                            x       y       z     vdW  Elec       q    Type
REMARK                         _______ _______ _______ _____ _____    ______ ____
ROOT
ATOM      1  C   UNL     1       1.438  -4.929  -4.914  0.00  0.00    +0.028 C 
ATOM      2  C   UNL     1       0.805  -5.904  -5.675  0.00  0.00    +0.102 C 
ATOM      3  C   UNL     1       1.570  -6.894  -6.446  0.00  0.00    +0.276 C 
ATOM      4  O   UNL     1       2.920  -6.882  -6.437  0.00  0.00    -0.268 OA
ATOM      5  N   UNL     1       0.906  -7.795  -7.150  0.00  0.00    -0.123 NA
ATOM      6  C   UNL     1      -0.424  -7.831  -7.177  0.00  0.00    +0.336 C 
ATOM      7  O   UNL     1      -0.963  -8.692  -7.849  0.00  0.00    -0.250 OA
ATOM      8  N   UNL     1      -1.202  -6.970  -6.505  0.00  0.00    -0.216 N 
ATOM      9  C   UNL     1      -0.666  -5.996  -5.739  0.00  0.00    +0.259 C 
ATOM     10  O   UNL     1      -1.372  -5.218  -5.126  0.00  0.00    -0.269 OA
ENDROOT
BRANCH   1  14
ATOM     11  N   UNL     1      -0.109  -2.402  -2.895  0.00  0.00    -0.317 N 
ATOM     12  C   UNL     1      -0.808  -2.218  -4.057  0.00  0.00    +0.022 A 
ATOM     13  C   UNL     1      -0.374  -3.091  -4.979  0.00  0.00    +0.031 A 
ATOM     14  C   UNL     1       0.684  -3.884  -4.335  0.00  0.00    -0.003 A 
ATOM     15  C   UNL     1       0.792  -3.391  -3.041  0.00  0.00    +0.028 A 
ATOM     16  C   UNL     1       1.749  -3.879  -1.984  0.00  0.00    +0.064 C 
ATOM     17  C   UNL     1      -1.895  -1.195  -4.268  0.00  0.00    +0.064 C 
BRANCH  11  21
ATOM     18  C   UNL     1       0.094   1.901  -0.524  0.00  0.00    +0.045 C 
ATOM     19  C   UNL     1      -0.210   0.426  -0.544  0.00  0.00    -0.035 A 
ATOM     20  C   UNL     1      -0.020  -0.302  -1.703  0.00  0.00    +0.030 A 
ATOM     21  C   UNL     1      -0.300  -1.662  -1.721  0.00  0.00    +0.047 A 
ATOM     22  C   UNL     1      -0.770  -2.287  -0.573  0.00  0.00    +0.027 A 
ATOM     23  C   UNL     1      -0.958  -1.555   0.583  0.00  0.00    +0.017 A 
ATOM     24  C   UNL     1      -0.673  -0.201   0.599  0.00  0.00    +0.021 A 
ATOM     25 BR   UNL     1      -0.924   0.797   2.186  0.00  0.00    -0.050 Br
ENDBRANCH  11  21
ENDBRANCH   1  14
BRANCH   8  26
ATOM     26  C   UNL     1      -2.659  -7.092  -6.600  0.00  0.00    +0.153 C 
BRANCH  26  27
ATOM     27  C   UNL     1      -3.159  -8.008  -5.513  0.00  0.00    -0.030 A 
ATOM     28  C   UNL     1      -3.257  -9.367  -5.745  0.00  0.00    +0.005 A 
ATOM     29  C   UNL     1      -3.715 -10.207  -4.747  0.00  0.00    +0.000 A 
ATOM     30  C   UNL     1      -4.075  -9.688  -3.517  0.00  0.00    +0.000 A 
ATOM     31  C   UNL     1      -3.976  -8.329  -3.285  0.00  0.00    +0.000 A 
ATOM     32  C   UNL     1      -3.514  -7.489  -4.281  0.00  0.00    +0.005 A 
ENDBRANCH  26  27
ENDBRANCH   8  26
TORSDOF 4
