REMARK  Name = ZINC39323687
REMARK  6 active torsions:
REMARK  status: ('A' for Active; 'I' for Inactive)
REMARK    1  A    between atoms: C_1  and  C_2
REMARK    2  A    between atoms: C_10  and  N_31
REMARK    3  A    between atoms: C_11  and  C_15
REMARK    4  A    between atoms: N_17  and  C_18
REMARK    5  A    between atoms: C_23  and  O_24
REMARK    6  A    between atoms: O_24  and  C_25
REMARK                            x       y       z     vdW  Elec       q    Type
REMARK                         _______ _______ _______ _____ _____    ______ ____
ROOT
ATOM      1  C   UNL     1      -0.589   1.431   0.175  0.00  0.00    +0.008 C 
ATOM      2  C   UNL     1      -0.703  -0.087   0.329  0.00  0.00    -0.009 C 
ATOM      3  C   UNL     1      -2.019  -0.438   1.032  0.00  0.00    +0.010 C 
ATOM      4  C   UNL     1      -2.220  -1.949   0.953  0.00  0.00    +0.056 C 
ATOM      5  C   UNL     1      -0.989  -2.673   1.435  0.00  0.00    +0.046 A 
ATOM      6  C   UNL     1       0.244  -2.057   1.533  0.00  0.00    -0.025 A 
ATOM      7  C   UNL     1       1.342  -2.772   1.973  0.00  0.00    +0.017 A 
ATOM      8  C   UNL     1       1.192  -4.133   2.327  0.00  0.00    +0.029 A 
ATOM      9  C   UNL     1       2.198  -5.067   2.811  0.00  0.00    +0.053 A 
ATOM     10  C   UNL     1       1.809  -6.357   3.096  0.00  0.00    +0.097 A 
ATOM     11  S   UNL     1       0.067  -6.356   2.719  0.00  0.00    -0.062 S 
ATOM     12  C   UNL     1      -0.110  -4.668   2.197  0.00  0.00    +0.111 A 
ATOM     13  N   UNL     1      -1.121  -3.949   1.770  0.00  0.00    -0.244 NA
ATOM     14  C   UNL     1       0.454  -0.606   1.181  0.00  0.00    +0.040 C 
ENDROOT
BRANCH  10  15
ATOM     15  C   UNL     1       2.603  -7.429   3.574  0.00  0.00    +0.257 C 
ATOM     16  O   UNL     1       3.791  -7.260   3.782  0.00  0.00    -0.269 OA
ATOM     17  N   UNL     1       2.044  -8.634   3.798  0.00  0.00    -0.278 N 
ATOM     18  H   UNL     1       1.093  -8.762   3.654  0.00  0.00    +0.155 HD
BRANCH  17  19
ATOM     19  C   UNL     1       2.835  -9.703   4.237  0.00  0.00    +0.076 A 
ATOM     20  C   UNL     1       4.034  -9.457   4.891  0.00  0.00    +0.027 A 
ATOM     21  C   UNL     1       4.814 -10.513   5.324  0.00  0.00    +0.002 A 
ATOM     22  C   UNL     1       4.402 -11.815   5.107  0.00  0.00    +0.004 A 
ATOM     23  C   UNL     1       3.209 -12.068   4.457  0.00  0.00    +0.048 A 
ATOM     24  C   UNL     1       2.418 -11.015   4.025  0.00  0.00    +0.150 A 
BRANCH  24  25
ATOM     25  O   UNL     1       1.242 -11.262   3.390  0.00  0.00    -0.454 OA
BRANCH  25  26
ATOM     26  C   UNL     1       0.827 -12.552   3.295  0.00  0.00    +0.129 A 
ATOM     27  C   UNL     1       0.301 -13.197   4.406  0.00  0.00    +0.046 A 
ATOM     28  C   UNL     1      -0.120 -14.509   4.306  0.00  0.00    +0.004 A 
ATOM     29  C   UNL     1      -0.018 -15.180   3.101  0.00  0.00    +0.000 A 
ATOM     30  C   UNL     1       0.505 -14.539   1.993  0.00  0.00    +0.004 A 
ATOM     31  C   UNL     1       0.922 -13.226   2.086  0.00  0.00    +0.046 A 
ENDBRANCH  25  26
ENDBRANCH  24  25
ENDBRANCH  17  19
ENDBRANCH  10  15
BRANCH   9  32
ATOM     32  N   UNL     1       3.516  -4.667   2.982  0.00  0.00    -0.356 N 
ATOM     33  H   UNL     1       3.777  -3.755   2.777  0.00  0.00    +0.142 HD
ATOM     34  H   UNL     1       4.176  -5.299   3.305  0.00  0.00    +0.142 HD
ENDBRANCH   9  32
TORSDOF 5
