REMARK  Name = ZINC01445045
REMARK  8 active torsions:
REMARK  status: ('A' for Active; 'I' for Inactive)
REMARK    1  A    between atoms: C_1  and  C_2
REMARK    2  A    between atoms: C_2  and  S_3
REMARK    3  A    between atoms: S_3  and  C_4
REMARK    4  A    between atoms: C_5  and  C_28
REMARK    5  A    between atoms: C_6  and  C_21
REMARK    6  A    between atoms: C_8  and  C_12
REMARK    7  A    between atoms: C_9  and  C_11
REMARK    8  A    between atoms: N_14  and  C_15
REMARK                            x       y       z     vdW  Elec       q    Type
REMARK                         _______ _______ _______ _____ _____    ______ ____
ROOT
ATOM      1  C   UNL     1      -1.593   3.675   2.804  0.00  0.00    +0.080 C 
ATOM      2  C   UNL     1      -1.829   4.949   3.216  0.00  0.00    +0.069 C 
ATOM      3  C   UNL     1      -2.561   5.231   4.498  0.00  0.00    +0.100 C 
ATOM      4  C   UNL     1      -3.274   4.004   4.988  0.00  0.00    +0.044 C 
ATOM      5  C   UNL     1      -2.981   2.781   4.517  0.00  0.00    +0.014 C 
ATOM      6  N   UNL     1      -2.020   2.606   3.559  0.00  0.00    -0.312 N 
ATOM      7  C   UNL     1      -3.723   1.583   5.052  0.00  0.00    +0.061 C 
ATOM      8  H   UNL     1      -1.589   1.607   3.393  0.00  0.00    +0.152 HD
ENDROOT
BRANCH   3   9
ATOM      9  C   UNL     1      -1.569   5.678   5.540  0.00  0.00    -0.016 A 
ATOM     10  C   UNL     1      -0.551   4.830   5.934  0.00  0.00    +0.006 A 
ATOM     11  C   UNL     1       0.359   5.239   6.891  0.00  0.00    +0.000 A 
ATOM     12  C   UNL     1       0.251   6.498   7.454  0.00  0.00    +0.001 A 
ATOM     13  C   UNL     1      -0.766   7.346   7.061  0.00  0.00    +0.020 A 
ATOM     14  C   UNL     1      -1.674   6.939   6.100  0.00  0.00    +0.045 A 
ATOM     15 CL   UNL     1      -2.948   8.007   5.600  0.00  0.00    -0.083 Cl
ENDBRANCH   3   9
BRANCH   4  16
ATOM     16  C   UNL     1      -4.282   4.140   5.973  0.00  0.00    +0.247 C 
ATOM     17  O   UNL     1      -4.871   3.155   6.382  0.00  0.00    -0.270 OA
ATOM     18  N   UNL     1      -4.590   5.359   6.458  0.00  0.00    -0.282 N 
ATOM     19  H   UNL     1      -4.008   6.238   6.145  0.00  0.00    +0.155 HD
BRANCH  18  20
ATOM     20  C   UNL     1      -5.650   5.506   7.359  0.00  0.00    +0.034 A 
ATOM     21  C   UNL     1      -6.437   6.649   7.326  0.00  0.00    +0.023 A 
ATOM     22  C   UNL     1      -7.486   6.789   8.213  0.00  0.00    +0.002 A 
ATOM     23  C   UNL     1      -7.745   5.797   9.141  0.00  0.00    +0.000 A 
ATOM     24  C   UNL     1      -6.960   4.660   9.180  0.00  0.00    +0.002 A 
ATOM     25  C   UNL     1      -5.913   4.511   8.292  0.00  0.00    +0.023 A 
ENDBRANCH  18  20
ENDBRANCH   4  16
BRANCH   2  26
ATOM     26  C   UNL     1      -1.377   6.043   2.411  0.00  0.00    +0.098 C 
ATOM     27  N   UNL     1      -1.018   6.912   1.772  0.00  0.00    -0.191 NA
ENDBRANCH   2  26
BRANCH   1  28
ATOM     28  S   UNL     1      -0.726   3.390   1.296  0.00  0.00    -0.109 S 
BRANCH  28  30
ATOM     29  C   UNL     1       0.014   1.088   0.026  0.00  0.00    +0.015 C 
ATOM     30  C   UNL     1      -0.709   1.580   1.281  0.00  0.00    +0.072 C 
ENDBRANCH  28  30
ENDBRANCH   1  28
TORSDOF 6
