REMARK  Name = ZINC49750310
REMARK  6 active torsions:
REMARK  status: ('A' for Active; 'I' for Inactive)
REMARK    1  A    between atoms: C_1  and  C_2
REMARK    2  A    between atoms: N_6  and  C_9
REMARK    3  A    between atoms: C_9  and  C_10
REMARK    4  A    between atoms: N_12  and  C_13
REMARK    5  A    between atoms: C_14  and  C_21
REMARK    6  A    between atoms: C_16  and  C_20
REMARK                            x       y       z     vdW  Elec       q    Type
REMARK                         _______ _______ _______ _____ _____    ______ ____
ROOT
ATOM      1  C   UNL     1       1.278  -2.446   4.190  0.00  0.00    +0.237 C 
ATOM      2  O   UNL     1       1.977  -1.605   4.715  0.00  0.00    -0.274 OA
ATOM      3  N   UNL     1       1.740  -3.703   4.032  0.00  0.00    -0.283 N 
ATOM      4  H   UNL     1       1.157  -4.393   3.679  0.00  0.00    +0.155 HD
ENDROOT
BRANCH   3   5
ATOM      5  C   UNL     1       3.062  -4.011   4.376  0.00  0.00    +0.055 A 
ATOM      6  C   UNL     1       3.353  -4.511   5.638  0.00  0.00    -0.028 A 
ATOM      7  C   UNL     1       4.658  -4.815   5.974  0.00  0.00    +0.008 A 
ATOM      8  C   UNL     1       5.674  -4.621   5.056  0.00  0.00    -0.049 A 
ATOM      9  C   UNL     1       5.388  -4.124   3.799  0.00  0.00    +0.025 A 
ATOM     10  C   UNL     1       4.083  -3.823   3.453  0.00  0.00    +0.063 A 
ATOM     11 CL   UNL     1       3.724  -3.205   1.872  0.00  0.00    -0.082 Cl
ATOM     12  C   UNL     1       7.096  -4.953   5.428  0.00  0.00    +0.044 C 
ATOM     13  C   UNL     1       2.247  -4.722   6.640  0.00  0.00    +0.046 C 
ENDBRANCH   3   5
BRANCH   1  14
ATOM     14  C   UNL     1      -0.106  -2.087   3.715  0.00  0.00    +0.220 C 
BRANCH  14  20
ATOM     15  C   UNL     1      -1.798   1.429   6.772  0.00  0.00    +0.049 C 
ATOM     16  C   UNL     1      -1.178   1.029   5.458  0.00  0.00    +0.014 A 
ATOM     17  C   UNL     1      -0.859   1.976   4.530  0.00  0.00    +0.010 A 
ATOM     18  C   UNL     1      -0.284   1.579   3.315  0.00  0.00    +0.018 A 
ATOM     19  C   UNL     1      -0.051   0.267   3.075  0.00  0.00    +0.089 A 
ATOM     20  N   UNL     1      -0.369  -0.674   4.000  0.00  0.00    -0.306 N 
ATOM     21  C   UNL     1      -0.918  -0.324   5.178  0.00  0.00    +0.255 A 
ATOM     22  O   UNL     1      -1.194  -1.181   6.002  0.00  0.00    -0.267 OA
ENDBRANCH  14  20
ENDBRANCH   1  14
TORSDOF 3
