REMARK  Name = ZINC65147743
REMARK  7 active torsions:
REMARK  status: ('A' for Active; 'I' for Inactive)
REMARK    1  A    between atoms: C_1  and  C_2
REMARK    2  A    between atoms: C_7  and  C_21
REMARK    3  A    between atoms: C_8  and  C_10
REMARK    4  A    between atoms: N_12  and  C_13
REMARK    5  A    between atoms: C_21  and  N_22
REMARK    6  A    between atoms: N_22  and  C_23
REMARK    7  A    between atoms: N_22  and  C_24
REMARK                            x       y       z     vdW  Elec       q    Type
REMARK                         _______ _______ _______ _____ _____    ______ ____
ROOT
ATOM      1  C   UNL     1      -0.193   1.136  -0.509  0.00  0.00    +0.024 C 
ATOM      2  C   UNL     1       0.047  -0.351  -0.241  0.00  0.00    +0.073 C 
ATOM      3  C   UNL     1      -1.256  -1.114  -0.221  0.00  0.00    +0.016 C 
ATOM      4  C   UNL     1      -1.600  -1.734   0.923  0.00  0.00    +0.076 C 
ATOM      5  C   UNL     1      -0.672  -1.617   2.070  0.00  0.00    +0.040 C 
ATOM      6  C   UNL     1      -1.206  -2.305   3.099  0.00  0.00    +0.013 C 
ATOM      7  C   UNL     1      -2.428  -2.848   2.646  0.00  0.00    +0.136 C 
ATOM      8  N   UNL     1      -2.639  -2.508   1.391  0.00  0.00    -0.241 NA
ATOM      9  S   UNL     1       0.668  -0.620   1.468  0.00  0.00    -0.115 S 
ENDROOT
BRANCH   7  10
ATOM     10  C   UNL     1      -3.338  -3.676   3.460  0.00  0.00    +0.297 C 
ATOM     11  O   UNL     1      -4.488  -4.145   2.924  0.00  0.00    -0.264 OA
ATOM     12  N   UNL     1      -3.033  -3.956   4.702  0.00  0.00    -0.205 NA
BRANCH  12  13
ATOM     13  C   UNL     1      -3.924  -4.631   5.489  0.00  0.00    +0.104 A 
ATOM     14  C   UNL     1      -5.250  -4.202   5.575  0.00  0.00    +0.031 A 
ATOM     15  C   UNL     1      -6.144  -4.887   6.371  0.00  0.00    +0.004 A 
ATOM     16  C   UNL     1      -5.731  -5.999   7.085  0.00  0.00    +0.023 A 
ATOM     17  C   UNL     1      -4.419  -6.431   7.007  0.00  0.00    +0.078 A 
ATOM     18  C   UNL     1      -3.512  -5.758   6.209  0.00  0.00    +0.167 A 
ATOM     19  F   UNL     1      -2.233  -6.184   6.128  0.00  0.00    -0.202 F 
ATOM     20 CL   UNL     1      -3.911  -7.827   7.907  0.00  0.00    -0.081 Cl
ENDBRANCH  12  13
ENDBRANCH   7  10
BRANCH   6  21
ATOM     21  C   UNL     1      -0.611  -2.465   4.474  0.00  0.00    +0.122 C 
BRANCH  21  22
ATOM     22  N   UNL     1      -1.172  -1.447   5.372  0.00  0.00    -0.304 NA
ATOM     23  C   UNL     1      -0.801  -1.715   6.768  0.00  0.00    +0.104 C 
ATOM     24  C   UNL     1      -0.755  -0.099   4.966  0.00  0.00    +0.104 C 
ENDBRANCH  21  22
ENDBRANCH   6  21
TORSDOF 4
