REMARK  Name = ZINC61822737
REMARK  6 active torsions:
REMARK  status: ('A' for Active; 'I' for Inactive)
REMARK    1  A    between atoms: C_1  and  C_2
REMARK    2  A    between atoms: C_2  and  C_19
REMARK    3  A    between atoms: C_11  and  C_13
REMARK    4  A    between atoms: C_13  and  C_14
REMARK    5  A    between atoms: C_14  and  C_15
REMARK    6  A    between atoms: C_15  and  C_16
REMARK                            x       y       z     vdW  Elec       q    Type
REMARK                         _______ _______ _______ _____ _____    ______ ____
ROOT
ATOM      1  C   UNL     1      -0.024   1.524   0.003  0.00  0.00    +0.011 C 
ATOM      2  C   UNL     1       0.000  -0.006  -0.003  0.00  0.00    -0.032 C 
ATOM      3  C   UNL     1      -1.435  -0.538   0.004  0.00  0.00    +0.025 C 
ATOM      4  C   UNL     1      -1.408  -2.069  -0.036  0.00  0.00    +0.110 C 
ATOM      5  N   UNL     1      -0.578  -2.557   1.074  0.00  0.00    -0.285 N 
ATOM      6  C   UNL     1       0.790  -2.040   1.214  0.00  0.00    +0.110 C 
ATOM      7  C   UNL     1       0.739  -0.509   1.240  0.00  0.00    +0.025 C 
ATOM      8  C   UNL     1      -1.063  -3.461   1.948  0.00  0.00    +0.308 C 
ATOM      9  O   UNL     1      -2.225  -3.810   1.880  0.00  0.00    -0.252 OA
ATOM     10  N   UNL     1      -0.259  -3.978   2.898  0.00  0.00    -0.240 N 
ATOM     11  C   UNL     1      -0.713  -4.956   3.707  0.00  0.00    +0.220 C 
ATOM     12  O   UNL     1      -1.846  -5.370   3.580  0.00  0.00    -0.275 OA
ATOM     13  C   UNL     1       0.721  -0.500  -1.259  0.00  0.00    +0.011 C 
ATOM     14  H   UNL     1       0.647  -3.647   3.000  0.00  0.00    +0.159 HD
ENDROOT
BRANCH  11  15
ATOM     15  C   UNL     1       0.186  -5.535   4.769  0.00  0.00    +0.097 C 
BRANCH  15  16
ATOM     16  C   UNL     1      -0.569  -6.619   5.540  0.00  0.00    +0.020 C 
BRANCH  16  17
ATOM     17  C   UNL     1       0.344  -7.207   6.619  0.00  0.00    +0.125 C 
BRANCH  17  18
ATOM     18  C   UNL     1      -0.399  -8.275   7.379  0.00  0.00    +0.356 C 
ATOM     19  O   UNL     1      -1.552  -8.541   7.085  0.00  0.00    -0.246 OA
ATOM     20  O   UNL     1       0.152  -8.872   8.287  0.00  0.00    -0.246 OA
ENDBRANCH  17  18
ENDBRANCH  16  17
ENDBRANCH  15  16
ENDBRANCH  11  15
TORSDOF 4
