REMARK  Name = ZINC03663692
REMARK  12 active torsions:
REMARK  status: ('A' for Active; 'I' for Inactive)
REMARK    1  A    between atoms: C_1  and  C_2
REMARK    2  A    between atoms: C_2  and  O_3
REMARK    3  A    between atoms: O_3  and  C_4
REMARK    4  A    between atoms: C_4  and  C_6
REMARK    5  A    between atoms: C_7  and  N_36
REMARK    6  A    between atoms: N_8  and  C_29
REMARK    7  A    between atoms: C_11  and  C_13
REMARK    8  A    between atoms: C_16  and  O_20
REMARK    9  A    between atoms: C_17  and  O_19
REMARK   10  A    between atoms: O_20  and  C_21
REMARK   11  A    between atoms: C_25  and  C_27
REMARK   12  A    between atoms: C_25  and  C_28
REMARK                            x       y       z     vdW  Elec       q    Type
REMARK                         _______ _______ _______ _____ _____    ______ ____
ROOT
ATOM      1  C   UNL     1       3.489   1.932   0.272  0.00  0.00    +0.084 C 
ATOM      2  C   UNL     1       3.495   3.252  -0.062  0.00  0.00    +0.103 C 
ATOM      3  N   UNL     1       2.312   3.902  -0.320  0.00  0.00    -0.261 N 
ATOM      4  C   UNL     1       1.184   3.193  -0.642  0.00  0.00    +0.025 C 
ATOM      5  C   UNL     1       1.083   1.883  -0.333  0.00  0.00    +0.025 C 
ATOM      6  C   UNL     1       2.204   1.165   0.375  0.00  0.00    +0.094 C 
ATOM      7  C   UNL     1      -0.070   1.147  -0.660  0.00  0.00    +0.162 C 
ATOM      8  O   UNL     1      -0.123  -0.034  -0.382  0.00  0.00    -0.292 OA
ATOM      9  C   UNL     1      -1.238   1.795  -1.353  0.00  0.00    +0.086 C 
ATOM     10  C   UNL     1      -1.277   3.282  -0.972  0.00  0.00    -0.023 C 
ATOM     11  C   UNL     1       0.064   3.912  -1.354  0.00  0.00    +0.058 C 
ATOM     12  C   UNL     1      -1.502   3.425   0.535  0.00  0.00    +0.011 C 
ATOM     13  C   UNL     1      -2.408   3.980  -1.729  0.00  0.00    +0.011 C 
ENDROOT
BRANCH   3  14
ATOM     14  C   UNL     1       2.259   5.300  -0.253  0.00  0.00    +0.040 A 
ATOM     15  C   UNL     1       2.513   6.061  -1.387  0.00  0.00    +0.025 A 
ATOM     16  C   UNL     1       2.455   7.439  -1.319  0.00  0.00    +0.022 A 
ATOM     17  C   UNL     1       2.154   8.062  -0.121  0.00  0.00    +0.041 A 
ATOM     18  C   UNL     1       1.905   7.306   1.012  0.00  0.00    +0.022 A 
ATOM     19  C   UNL     1       1.957   5.928   0.948  0.00  0.00    +0.025 A 
ATOM     20 CL   UNL     1       2.088   9.795  -0.038  0.00  0.00    -0.084 Cl
ENDBRANCH   3  14
BRANCH   6  21
ATOM     21  C   UNL     1       1.844   0.999   1.829  0.00  0.00    -0.031 A 
ATOM     22  C   UNL     1       1.606   2.114   2.612  0.00  0.00    +0.008 A 
ATOM     23  C   UNL     1       1.275   1.967   3.946  0.00  0.00    +0.050 A 
ATOM     24  C   UNL     1       1.181   0.701   4.501  0.00  0.00    +0.161 A 
ATOM     25  C   UNL     1       1.421  -0.421   3.713  0.00  0.00    +0.159 A 
ATOM     26  C   UNL     1       1.747  -0.267   2.376  0.00  0.00    +0.053 A 
BRANCH  25  27
ATOM     27  O   UNL     1       1.330  -1.665   4.254  0.00  0.00    -0.503 OA
ATOM     28  H   UNL     1       0.448  -2.057   4.194  0.00  0.00    +0.292 HD
ENDBRANCH  25  27
BRANCH  24  29
ATOM     29  O   UNL     1       0.856   0.555   5.814  0.00  0.00    -0.491 OA
ATOM     30  C   UNL     1       0.623   1.750   6.561  0.00  0.00    +0.277 C 
ENDBRANCH  24  29
ENDBRANCH   6  21
BRANCH   2  31
ATOM     31  N   UNL     1       4.682   3.933  -0.141  0.00  0.00    -0.346 N 
ATOM     32  H   UNL     1       5.460   3.508  -0.534  0.00  0.00    +0.143 HD
ATOM     33  H   UNL     1       4.744   4.841   0.196  0.00  0.00    +0.143 HD
ENDBRANCH   2  31
BRANCH   1  34
ATOM     34  C   UNL     1       4.704   1.279   0.524  0.00  0.00    +0.339 C 
ATOM     35  O   UNL     1       5.745   1.913   0.537  0.00  0.00    -0.245 OA
BRANCH  34  36
ATOM     36  O   UNL     1       4.721  -0.052   0.753  0.00  0.00    -0.462 OA
BRANCH  36  38
ATOM     37  C   UNL     1       5.813  -2.152   1.238  0.00  0.00    +0.048 C 
ATOM     38  C   UNL     1       5.994  -0.651   1.003  0.00  0.00    +0.229 C 
ENDBRANCH  36  38
ENDBRANCH  34  36
ENDBRANCH   1  34
TORSDOF 8
