REMARK  Name = ZINC04010282
REMARK  7 active torsions:
REMARK  status: ('A' for Active; 'I' for Inactive)
REMARK    1  A    between atoms: C_1  and  O_2
REMARK    2  A    between atoms: O_2  and  C_3
REMARK    3  A    between atoms: C_3  and  C_5
REMARK    4  A    between atoms: C_5  and  C_6
REMARK    5  A    between atoms: C_13  and  N_26
REMARK    6  A    between atoms: C_14  and  C_24
REMARK    7  A    between atoms: C_15  and  C_17
REMARK                            x       y       z     vdW  Elec       q    Type
REMARK                         _______ _______ _______ _____ _____    ______ ____
ROOT
ATOM      1  C   UNL     1       1.453  -2.339  -2.345  0.00  0.00    +0.081 A 
ATOM      2  C   UNL     1       0.859  -2.563  -3.580  0.00  0.00    +0.046 A 
ATOM      3  C   UNL     1       1.838  -2.927  -4.461  0.00  0.00    +0.222 A 
ATOM      4  N   UNL     1       3.004  -2.928  -3.796  0.00  0.00    -0.246 N 
ATOM      5  H   UNL     1       3.873  -3.146  -4.166  0.00  0.00    +0.192 HD
ATOM      6  N   UNL     1       2.742  -2.551  -2.469  0.00  0.00    -0.175 NA
ATOM      7  O   UNL     1       1.582  -3.219  -5.761  0.00  0.00    -0.423 OA
ATOM      8  C   UNL     1       0.295  -3.411  -6.115  0.00  0.00    +0.200 C 
ATOM      9  C   UNL     1      -0.758  -3.080  -5.335  0.00  0.00    +0.094 C 
ATOM     10  C   UNL     1      -0.591  -2.450  -3.975  0.00  0.00    +0.078 C 
ENDROOT
BRANCH  10  11
ATOM     11  C   UNL     1      -0.997  -0.976  -4.035  0.00  0.00    +0.024 C 
ATOM     12  C   UNL     1      -0.657  -0.302  -2.704  0.00  0.00    +0.009 C 
ATOM     13  C   UNL     1      -1.300   1.091  -2.687  0.00  0.00    +0.005 C 
ATOM     14  C   UNL     1      -2.820   0.921  -2.644  0.00  0.00    +0.027 C 
ATOM     15  C   UNL     1      -3.262  -0.048  -3.702  0.00  0.00    -0.031 C 
ATOM     16  C   UNL     1      -2.470  -0.876  -4.300  0.00  0.00    -0.027 C 
ENDBRANCH  10  11
BRANCH   8  17
ATOM     17  N   UNL     1       0.040  -3.977  -7.340  0.00  0.00    -0.328 N 
ATOM     18  H   UNL     1       0.775  -4.225  -7.922  0.00  0.00    +0.145 HD
ATOM     19  H   UNL     1      -0.876  -4.128  -7.623  0.00  0.00    +0.145 HD
ENDBRANCH   8  17
BRANCH   9  20
ATOM     20  C   UNL     1      -2.081  -3.337  -5.819  0.00  0.00    +0.100 C 
ATOM     21  N   UNL     1      -3.131  -3.541  -6.202  0.00  0.00    -0.191 NA
ENDBRANCH   9  20
BRANCH   1  22
ATOM     22  C   UNL     1       0.743  -1.920  -1.084  0.00  0.00    +0.178 C 
BRANCH  22  23
ATOM     23  C   UNL     1       1.232  -2.756   0.070  0.00  0.00    +0.313 C 
ATOM     24  O   UNL     1       2.068  -3.609  -0.113  0.00  0.00    -0.250 OA
BRANCH  23  26
ATOM     25  C   UNL     1       1.164  -3.455   2.327  0.00  0.00    +0.280 C 
ATOM     26  O   UNL     1       0.740  -2.554   1.302  0.00  0.00    -0.468 OA
ENDBRANCH  23  26
ENDBRANCH  22  23
ENDBRANCH   1  22
TORSDOF 6
