REMARK  Name = ZINC04882978
REMARK  5 active torsions:
REMARK  status: ('A' for Active; 'I' for Inactive)
REMARK    1  A    between atoms: C_1  and  C_2
REMARK    2  A    between atoms: C_6  and  C_8
REMARK    3  A    between atoms: N_12  and  C_16
REMARK    4  A    between atoms: C_21  and  O_22
REMARK    5  A    between atoms: O_22  and  C_23
REMARK                            x       y       z     vdW  Elec       q    Type
REMARK                         _______ _______ _______ _____ _____    ______ ____
ROOT
ATOM      1  C   UNL     1      -1.063  -0.842   0.008  0.00  0.00    +0.036 C 
ATOM      2  C   UNL     1       0.000  -0.002  -0.021  0.00  0.00    +0.097 C 
ATOM      3  C   UNL     1      -0.023   1.469  -0.079  0.00  0.00    +0.271 C 
ATOM      4  O   UNL     1      -1.007   2.184  -0.116  0.00  0.00    -0.268 OA
ATOM      5  N   UNL     1       1.267   1.864  -0.089  0.00  0.00    -0.213 N 
ATOM      6  C   UNL     1       2.071   0.791  -0.044  0.00  0.00    +0.148 C 
ATOM      7  S   UNL     1       3.782   0.862  -0.039  0.00  0.00    -0.018 S 
ATOM      8  N   UNL     1       1.357  -0.347  -0.002  0.00  0.00    -0.292 N 
ATOM      9  H   UNL     1       1.717  -1.247   0.035  0.00  0.00    +0.154 HD
ENDROOT
BRANCH   1  15
ATOM     10  C   UNL     1       1.712  -4.692  -1.518  0.00  0.00    +0.044 C 
ATOM     11  C   UNL     1       0.476  -4.153  -0.846  0.00  0.00    -0.050 A 
ATOM     12  C   UNL     1      -0.472  -5.027  -0.340  0.00  0.00    +0.003 A 
ATOM     13  C   UNL     1      -1.611  -4.542   0.279  0.00  0.00    +0.001 A 
ATOM     14  C   UNL     1      -1.811  -3.183   0.396  0.00  0.00    +0.008 A 
ATOM     15  C   UNL     1      -0.858  -2.293  -0.113  0.00  0.00    -0.023 A 
ATOM     16  C   UNL     1       0.288  -2.791  -0.742  0.00  0.00    +0.011 A 
ENDBRANCH   1  15
BRANCH   5  17
ATOM     17  C   UNL     1       1.702   3.197  -0.141  0.00  0.00    +0.085 A 
ATOM     18  C   UNL     1       1.913   3.905   1.033  0.00  0.00    +0.027 A 
ATOM     19  C   UNL     1       2.342   5.217   0.981  0.00  0.00    +0.002 A 
ATOM     20  C   UNL     1       2.562   5.828  -0.240  0.00  0.00    +0.004 A 
ATOM     21  C   UNL     1       2.355   5.128  -1.415  0.00  0.00    +0.047 A 
ATOM     22  C   UNL     1       1.929   3.810  -1.370  0.00  0.00    +0.142 A 
BRANCH  22  23
ATOM     23  O   UNL     1       1.729   3.119  -2.524  0.00  0.00    -0.493 OA
ATOM     24  C   UNL     1       1.982   3.813  -3.747  0.00  0.00    +0.277 C 
ENDBRANCH  22  23
ENDBRANCH   5  17
TORSDOF 3
