REMARK  Name = ZINC20115283
REMARK  9 active torsions:
REMARK  status: ('A' for Active; 'I' for Inactive)
REMARK    1  A    between atoms: C_1  and  C_2
REMARK    2  A    between atoms: C_7  and  O_8
REMARK    3  A    between atoms: O_8  and  C_9
REMARK    4  A    between atoms: C_9  and  C_10
REMARK    5  A    between atoms: N_12  and  N_13
REMARK    6  A    between atoms: C_14  and  C_15
REMARK    7  A    between atoms: C_14  and  C_16
REMARK    8  A    between atoms: C_18  and  O_23
REMARK    9  A    between atoms: C_21  and  O_22
REMARK                            x       y       z     vdW  Elec       q    Type
REMARK                         _______ _______ _______ _____ _____    ______ ____
ROOT
ATOM      1  C   UNL     1      -1.046   0.798   4.397  0.00  0.00    +0.270 C 
ATOM      2  O   UNL     1       0.075   1.031   4.798  0.00  0.00    -0.270 OA
ATOM      3  N   UNL     1      -2.114   1.267   5.071  0.00  0.00    -0.204 N 
ATOM      4  H   UNL     1      -3.010   1.081   4.750  0.00  0.00    +0.177 HD
ENDROOT
BRANCH   3   5
ATOM      5  N   UNL     1      -1.930   2.024   6.236  0.00  0.00    -0.184 NA
ATOM      6  C   UNL     1      -2.953   2.556   6.833  0.00  0.00    +0.067 C 
ATOM      7  C   UNL     1      -2.745   3.474   8.010  0.00  0.00    +0.068 C 
BRANCH   6   8
ATOM      8  C   UNL     1      -4.317   2.261   6.359  0.00  0.00    +0.042 A 
ATOM      9  C   UNL     1      -4.830   0.966   6.458  0.00  0.00    +0.058 A 
ATOM     10  C   UNL     1      -6.112   0.697   6.012  0.00  0.00    +0.118 A 
ATOM     11  C   UNL     1      -6.888   1.712   5.468  0.00  0.00    +0.049 A 
ATOM     12  C   UNL     1      -6.387   2.996   5.366  0.00  0.00    +0.049 A 
ATOM     13  C   UNL     1      -5.108   3.281   5.814  0.00  0.00    +0.126 A 
BRANCH  13  14
ATOM     14  O   UNL     1      -4.619   4.545   5.718  0.00  0.00    -0.506 OA
ATOM     15  H   UNL     1      -4.095   4.705   4.922  0.00  0.00    +0.292 HD
ENDBRANCH  13  14
BRANCH  10  16
ATOM     16  O   UNL     1      -6.612  -0.564   6.107  0.00  0.00    -0.507 OA
ATOM     17  H   UNL     1      -7.076  -0.741   6.937  0.00  0.00    +0.292 HD
ENDBRANCH  10  16
ENDBRANCH   6   8
ENDBRANCH   3   5
BRANCH   1  18
ATOM     18  C   UNL     1      -1.244  -0.016   3.144  0.00  0.00    +0.326 C 
BRANCH  18  19
ATOM     19  O   UNL     1       0.029  -0.394   2.616  0.00  0.00    -0.481 OA
BRANCH  19  26
ATOM     20  C   UNL     1       0.083   0.990   0.155  0.00  0.00    +0.047 C 
ATOM     21  C   UNL     1       0.055  -0.514   0.240  0.00  0.00    -0.007 A 
ATOM     22  C   UNL     1       0.061  -1.272  -0.915  0.00  0.00    +0.022 A 
ATOM     23  C   UNL     1       0.035  -2.653  -0.838  0.00  0.00    +0.019 A 
ATOM     24  C   UNL     1       0.003  -3.278   0.396  0.00  0.00    +0.034 A 
ATOM     25  C   UNL     1      -0.004  -2.524   1.554  0.00  0.00    +0.061 A 
ATOM     26  C   UNL     1       0.029  -1.138   1.478  0.00  0.00    +0.138 A 
ATOM     27 BR   UNL     1      -0.049  -3.379   3.240  0.00  0.00    -0.046 Br
ATOM     28 BR   UNL     1       0.042  -3.687  -2.421  0.00  0.00    -0.050 Br
ENDBRANCH  19  26
ENDBRANCH  18  19
ENDBRANCH   1  18
TORSDOF 7
