REMARK  Name = ZINC40982836
REMARK  7 active torsions:
REMARK  status: ('A' for Active; 'I' for Inactive)
REMARK    1  A    between atoms: C_1  and  C_2
REMARK    2  A    between atoms: C_2  and  C_3
REMARK    3  A    between atoms: C_3  and  S_4
REMARK    4  A    between atoms: S_4  and  C_5
REMARK    5  A    between atoms: C_10  and  C_19
REMARK    6  A    between atoms: C_12  and  C_16
REMARK    7  A    between atoms: C_13  and  C_15
REMARK                            x       y       z     vdW  Elec       q    Type
REMARK                         _______ _______ _______ _____ _____    ______ ____
ROOT
ATOM      1  C   UNL     1      -3.132  -2.870  -0.433  0.00  0.00    +0.210 A 
ATOM      2  N   UNL     1      -4.145  -1.993  -0.377  0.00  0.00    -0.187 NA
ATOM      3  C   UNL     1      -5.265  -2.633  -0.173  0.00  0.00    +0.219 A 
ATOM      4  N   UNL     1      -4.984  -3.957  -0.088  0.00  0.00    -0.219 N 
ATOM      5  N   UNL     1      -3.608  -4.086  -0.267  0.00  0.00    -0.141 NA
ATOM      6  C   UNL     1      -5.996  -4.984   0.147  0.00  0.00    +0.184 C 
ATOM      7  C   UNL     1      -7.367  -4.385  -0.023  0.00  0.00    +0.060 C 
ATOM      8  C   UNL     1      -7.584  -3.065  -0.105  0.00  0.00    +0.018 C 
ATOM      9  N   UNL     1      -6.561  -2.150  -0.052  0.00  0.00    -0.287 N 
ATOM     10  C   UNL     1      -8.998  -2.567  -0.262  0.00  0.00    +0.061 C 
ATOM     11  H   UNL     1      -6.737  -1.204   0.067  0.00  0.00    +0.155 HD
ENDROOT
BRANCH   7  12
ATOM     12  C   UNL     1      -8.478  -5.258  -0.100  0.00  0.00    +0.241 C 
ATOM     13  O   UNL     1      -8.680  -5.899  -1.115  0.00  0.00    -0.271 OA
ATOM     14  N   UNL     1      -9.314  -5.378   0.951  0.00  0.00    -0.325 N 
ATOM     15  H   UNL     1      -9.154  -4.866   1.759  0.00  0.00    +0.145 HD
ATOM     16  H   UNL     1     -10.076  -5.976   0.898  0.00  0.00    +0.145 HD
ENDBRANCH   7  12
BRANCH   6  17
ATOM     17  C   UNL     1      -5.851  -5.520   1.548  0.00  0.00    +0.019 A 
ATOM     18  C   UNL     1      -5.592  -6.786   1.955  0.00  0.00    +0.013 A 
ATOM     19  C   UNL     1      -5.501  -7.050   3.308  0.00  0.00    +0.008 A 
ATOM     20  C   UNL     1      -5.675  -6.035   4.189  0.00  0.00    +0.045 A 
ATOM     21  S   UNL     1      -5.970  -4.650   3.102  0.00  0.00    -0.099 S 
ENDBRANCH   6  17
BRANCH   1  22
ATOM     22  S   UNL     1      -1.438  -2.461  -0.694  0.00  0.00    -0.084 S 
BRANCH  22  23
ATOM     23  C   UNL     1      -1.442  -0.653  -0.846  0.00  0.00    +0.077 C 
BRANCH  23  25
ATOM     24  C   UNL     1      -0.016   1.367  -1.207  0.00  0.00    +0.004 C 
ATOM     25  C   UNL     1      -0.013  -0.158  -1.079  0.00  0.00    +0.008 C 
ENDBRANCH  23  25
ENDBRANCH  22  23
ENDBRANCH   1  22
TORSDOF 5
