REMARK  Name = ZINC01070341
REMARK  7 active torsions:
REMARK  status: ('A' for Active; 'I' for Inactive)
REMARK    1  A    between atoms: C_1  and  O_2
REMARK    2  A    between atoms: O_2  and  C_3
REMARK    3  A    between atoms: C_5  and  C_10
REMARK    4  A    between atoms: C_8  and  O_9
REMARK    5  A    between atoms: C_13  and  C_24
REMARK    6  A    between atoms: C_19  and  N_23
REMARK    7  A    between atoms: C_20  and  C_21
REMARK                            x       y       z     vdW  Elec       q    Type
REMARK                         _______ _______ _______ _____ _____    ______ ____
ROOT
ATOM      1  C   UNL     1       2.403   0.379  -4.230  0.00  0.00    +0.102 C 
ATOM      2  C   UNL     1       3.872   0.066  -4.342  0.00  0.00    +0.055 A 
ATOM      3  C   UNL     1       4.919   0.407  -3.478  0.00  0.00    +0.107 A 
ATOM      4  N   UNL     1       6.037  -0.083  -3.982  0.00  0.00    -0.170 NA
ATOM      5  N   UNL     1       5.728  -0.748  -5.179  0.00  0.00    -0.246 N 
ATOM      6  H   UNL     1       6.359  -1.202  -5.759  0.00  0.00    +0.192 HD
ATOM      7  C   UNL     1       4.398  -0.644  -5.382  0.00  0.00    +0.223 A 
ATOM      8  O   UNL     1       3.639  -1.122  -6.400  0.00  0.00    -0.423 OA
ATOM      9  C   UNL     1       2.381  -0.652  -6.516  0.00  0.00    +0.200 C 
ATOM     10  C   UNL     1       1.749   0.053  -5.550  0.00  0.00    +0.098 C 
ENDROOT
BRANCH   1  13
ATOM     11  C   UNL     1       0.606  -0.608  -1.056  0.00  0.00    +0.162 A 
ATOM     12  C   UNL     1       1.173   0.159  -2.062  0.00  0.00    +0.054 A 
ATOM     13  C   UNL     1       1.787  -0.456  -3.137  0.00  0.00    -0.031 A 
ATOM     14  C   UNL     1       1.837  -1.836  -3.212  0.00  0.00    +0.008 A 
ATOM     15  C   UNL     1       1.273  -2.606  -2.212  0.00  0.00    +0.049 A 
ATOM     16  C   UNL     1       0.662  -1.996  -1.129  0.00  0.00    +0.158 A 
BRANCH  11  18
ATOM     17  C   UNL     1      -0.017   1.425   0.010  0.00  0.00    +0.277 C 
ATOM     18  O   UNL     1       0.002  -0.004   0.002  0.00  0.00    -0.491 OA
ENDBRANCH  11  18
BRANCH  16  19
ATOM     19  O   UNL     1       0.112  -2.753  -0.142  0.00  0.00    -0.503 OA
ATOM     20  H   UNL     1      -0.816  -2.979  -0.291  0.00  0.00    +0.292 HD
ENDBRANCH  16  19
ENDBRANCH   1  13
BRANCH   3  21
ATOM     21  C   UNL     1       4.795   1.180  -2.223  0.00  0.00    +0.041 A 
ATOM     22  C   UNL     1       5.498   1.048  -1.056  0.00  0.00    +0.019 A 
ATOM     23  C   UNL     1       5.205   1.893  -0.007  0.00  0.00    +0.028 A 
ATOM     24  C   UNL     1       4.231   2.827  -0.162  0.00  0.00    +0.079 A 
ATOM     25  S   UNL     1       3.695   2.533  -1.840  0.00  0.00    -0.075 S 
ATOM     26 CL   UNL     1       3.659   4.006   0.976  0.00  0.00    -0.076 Cl
ENDBRANCH   3  21
BRANCH   9  27
ATOM     27  N   UNL     1       1.701  -0.902  -7.682  0.00  0.00    -0.328 N 
ATOM     28  H   UNL     1       2.128  -1.405  -8.393  0.00  0.00    +0.145 HD
ATOM     29  H   UNL     1       0.794  -0.577  -7.794  0.00  0.00    +0.145 HD
ENDBRANCH   9  27
BRANCH  10  30
ATOM     30  C   UNL     1       0.411   0.506  -5.787  0.00  0.00    +0.101 C 
ATOM     31  N   UNL     1      -0.650   0.866  -5.976  0.00  0.00    -0.191 NA
ENDBRANCH  10  30
TORSDOF 6
