REMARK  Name = ZINC15669047
REMARK  8 active torsions:
REMARK  status: ('A' for Active; 'I' for Inactive)
REMARK    1  A    between atoms: C_1  and  C_2
REMARK    2  A    between atoms: C_21  and  C_23
REMARK    3  A    between atoms: C_25  and  O_33
REMARK    4  A    between atoms: C_26  and  O_31
REMARK    5  A    between atoms: C_28  and  O_29
REMARK    6  A    between atoms: O_29  and  C_30
REMARK    7  A    between atoms: O_31  and  C_32
REMARK    8  A    between atoms: O_33  and  C_34
REMARK                            x       y       z     vdW  Elec       q    Type
REMARK                         _______ _______ _______ _____ _____    ______ ____
ROOT
ATOM      1  C   UNL     1      -2.656  -7.000   0.057  0.00  0.00    +0.068 C 
ATOM      2  C   UNL     1      -1.532  -5.996   0.086  0.00  0.00    +0.067 A 
ATOM      3  C   UNL     1      -0.176  -6.274  -0.193  0.00  0.00    +0.033 A 
ATOM      4  C   UNL     1       0.515  -5.120  -0.067  0.00  0.00    +0.136 A 
ATOM      5  N   UNL     1      -0.392  -4.144   0.290  0.00  0.00    -0.193 N 
ATOM      6  N   UNL     1      -1.654  -4.732   0.372  0.00  0.00    -0.168 NA
ATOM      7  C   UNL     1      -0.099  -2.805   0.522  0.00  0.00    +0.196 A 
ATOM      8  N   UNL     1       1.060  -2.193   0.461  0.00  0.00    -0.221 NA
ATOM      9  C   UNL     1       1.199  -0.874   0.714  0.00  0.00    +0.081 A 
ATOM     10  C   UNL     1       2.381  -0.099   0.683  0.00  0.00    +0.029 A 
ATOM     11  C   UNL     1       2.348   1.241   0.968  0.00  0.00    +0.002 A 
ATOM     12  C   UNL     1       1.162   1.883   1.295  0.00  0.00    +0.001 A 
ATOM     13  C   UNL     1      -0.013   1.156   1.335  0.00  0.00    +0.017 A 
ATOM     14  C   UNL     1       0.010  -0.187   1.050  0.00  0.00    +0.041 A 
ATOM     15  S   UNL     1      -1.207  -1.479   0.979  0.00  0.00    -0.048 S 
ATOM     16  N   UNL     1       1.850  -4.832  -0.208  0.00  0.00    -0.269 N 
ATOM     17  C   UNL     1       2.903  -5.505  -0.565  0.00  0.00    +0.228 C 
ATOM     18  O   UNL     1       3.916  -4.848  -0.674  0.00  0.00    -0.275 OA
ATOM     19  C   UNL     1       3.061  -6.945  -0.859  0.00  0.00    +0.166 C 
ATOM     20  S   UNL     1       1.652  -7.641  -1.733  0.00  0.00    -0.138 S 
ATOM     21  C   UNL     1       0.294  -7.646  -0.560  0.00  0.00    +0.115 C 
ATOM     22  H   UNL     1       2.055  -3.908   0.004  0.00  0.00    +0.156 HD
ENDROOT
BRANCH  21  23
ATOM     23  C   UNL     1      -0.859  -8.407  -1.162  0.00  0.00    +0.015 A 
ATOM     24  C   UNL     1      -1.380  -8.019  -2.383  0.00  0.00    +0.058 A 
ATOM     25  C   UNL     1      -2.436  -8.720  -2.941  0.00  0.00    +0.162 A 
ATOM     26  C   UNL     1      -2.982  -9.808  -2.266  0.00  0.00    +0.165 A 
ATOM     27  C   UNL     1      -2.463 -10.192  -1.041  0.00  0.00    +0.095 A 
ATOM     28  C   UNL     1      -1.401  -9.491  -0.489  0.00  0.00    +0.128 A 
BRANCH  28  29
ATOM     29  O   UNL     1      -0.891  -9.867   0.715  0.00  0.00    -0.495 OA
ATOM     30  C   UNL     1      -1.497 -10.993   1.353  0.00  0.00    +0.277 C 
ENDBRANCH  28  29
BRANCH  26  31
ATOM     31  O   UNL     1      -4.022 -10.494  -2.810  0.00  0.00    -0.491 OA
ATOM     32  C   UNL     1      -4.531 -11.601  -2.062  0.00  0.00    +0.277 C 
ENDBRANCH  26  31
BRANCH  25  33
ATOM     33  O   UNL     1      -2.944  -8.341  -4.145  0.00  0.00    -0.491 OA
ATOM     34  C   UNL     1      -2.336  -7.215  -4.781  0.00  0.00    +0.277 C 
ENDBRANCH  25  33
ENDBRANCH  21  23
TORSDOF 4
