REMARK  Name = ZINC40933442
REMARK  8 active torsions:
REMARK  status: ('A' for Active; 'I' for Inactive)
REMARK    1  A    between atoms: C_1  and  C_2
REMARK    2  A    between atoms: C_2  and  C_3
REMARK    3  A    between atoms: C_3  and  N_4
REMARK    4  A    between atoms: C_5  and  C_12
REMARK    5  A    between atoms: C_6  and  N_11
REMARK    6  A    between atoms: N_9  and  C_10
REMARK    7  A    between atoms: C_12  and  C_13
REMARK    8  A    between atoms: C_12  and  C_14
REMARK                            x       y       z     vdW  Elec       q    Type
REMARK                         _______ _______ _______ _____ _____    ______ ____
ROOT
ATOM      1  N   UNL     1       0.890  -1.928  -1.292  0.00  0.00    -0.284 N 
ATOM      2  C   UNL     1      -0.018  -2.832  -1.785  0.00  0.00    +0.064 A 
ATOM      3  C   UNL     1       0.380  -4.075  -1.438  0.00  0.00    +0.113 A 
ATOM      4  C   UNL     1       1.621  -3.937  -0.675  0.00  0.00    +0.288 A 
ATOM      5  O   UNL     1       2.279  -4.840  -0.192  0.00  0.00    -0.264 OA
ATOM      6  N   UNL     1       1.901  -2.618  -0.614  0.00  0.00    -0.251 N 
ATOM      7  C   UNL     1       3.058  -2.014   0.051  0.00  0.00    +0.174 C 
ENDROOT
BRANCH   3   8
ATOM      8  N   UNL     1      -0.280  -5.282  -1.751  0.00  0.00    -0.352 N 
ATOM      9  H   UNL     1      -1.103  -5.266  -2.264  0.00  0.00    +0.143 HD
ATOM     10  H   UNL     1       0.089  -6.128  -1.452  0.00  0.00    +0.143 HD
ENDBRANCH   3   8
BRANCH   2  11
ATOM     11  C   UNL     1      -1.252  -2.494  -2.581  0.00  0.00    +0.033 C 
ATOM     12  C   UNL     1      -1.170  -3.160  -3.956  0.00  0.00    +0.014 C 
ATOM     13  C   UNL     1      -2.491  -3.002  -1.841  0.00  0.00    +0.014 C 
ENDBRANCH   2  11
BRANCH   1  14
ATOM     14  C   UNL     1       0.816  -0.474  -1.456  0.00  0.00    +0.141 C 
BRANCH  14  16
ATOM     15  C   UNL     1      -0.009   1.650  -0.431  0.00  0.00    +0.005 C 
ATOM     16  C   UNL     1      -0.032   0.123  -0.331  0.00  0.00    +0.020 C 
ENDBRANCH  14  16
ENDBRANCH   1  14
TORSDOF 4
