REMARK  Name = ZINC32536161
REMARK  5 active torsions:
REMARK  status: ('A' for Active; 'I' for Inactive)
REMARK    1  A    between atoms: C_6  and  C_7
REMARK    2  A    between atoms: C_7  and  N_8
REMARK    3  A    between atoms: N_8  and  C_9
REMARK    4  A    between atoms: C_16  and  S_18
REMARK    5  A    between atoms: S_18  and  C_21
REMARK                            x       y       z     vdW  Elec       q    Type
REMARK                         _______ _______ _______ _____ _____    ______ ____
ROOT
ATOM      1  C   UNL     1      -0.013   1.086   0.008  0.00  0.00    -0.024 C 
ATOM      2  C   UNL     1      -0.857   1.574  -1.190  0.00  0.00    +0.152 C 
ATOM      3  S   UNL     1       0.078   3.082  -1.699  0.00  0.00    -0.031 S 
ATOM      4  O   UNL     1      -0.299   4.172  -0.868  0.00  0.00    -0.174 OA
ATOM      5  O   UNL     1       0.019   3.218  -3.112  0.00  0.00    -0.174 OA
ATOM      6  C   UNL     1       1.758   2.495  -1.210  0.00  0.00    +0.190 C 
ATOM      7  C   UNL     1       1.422   1.591  -0.003  0.00  0.00    +0.144 C 
ENDROOT
BRANCH   1   8
ATOM      8  N   UNL     1      -0.659   1.537   1.247  0.00  0.00    +0.386 N 
ATOM      9  H   UNL     1      -1.083   2.538   1.079  0.00  0.00    -0.085 HD
ATOM     10  H   UNL     1       0.099   1.589   2.042  0.00  0.00    -0.085 HD
BRANCH   8  11
ATOM     11  C   UNL     1      -1.728   0.614   1.650  0.00  0.00    -0.046 C 
BRANCH  11  17
ATOM     12  C   UNL     1      -3.447   1.968   2.863  0.00  0.00    +0.005 A 
ATOM     13  C   UNL     1      -4.036   2.425   4.027  0.00  0.00    +0.050 A 
ATOM     14  C   UNL     1      -3.544   2.022   5.258  0.00  0.00    +0.166 A 
ATOM     15  C   UNL     1      -2.455   1.155   5.318  0.00  0.00    +0.166 A 
ATOM     16  C   UNL     1      -1.873   0.698   4.147  0.00  0.00    +0.051 A 
ATOM     17  C   UNL     1      -2.366   1.109   2.922  0.00  0.00    -0.061 A 
ATOM     18  O   UNL     1      -2.165   0.910   6.629  0.00  0.00    -0.453 OA
ATOM     19  C   UNL     1      -3.337   1.308   7.363  0.00  0.00    +0.466 C 
ATOM     20  O   UNL     1      -3.936   2.319   6.531  0.00  0.00    -0.453 OA
ENDBRANCH  11  17
ENDBRANCH   8  11
ENDBRANCH   1   8
BRANCH   7  21
ATOM     21  S   UNL     1       2.539   0.162  -0.021  0.00  0.00    -0.000 S 
ATOM     22  O   UNL     1       2.454  -0.542   1.210  0.00  0.00    -0.169 OA
ATOM     23  O   UNL     1       2.430  -0.529  -1.259  0.00  0.00    -0.169 OA
BRANCH  21  24
ATOM     24  C   UNL     1       4.160   0.853  -0.033  0.00  0.00    +0.089 A 
ATOM     25  C   UNL     1       4.788   1.126  -1.234  0.00  0.00    +0.027 A 
ATOM     26  C   UNL     1       6.056   1.670  -1.235  0.00  0.00    +0.006 A 
ATOM     27  C   UNL     1       6.711   1.936  -0.039  0.00  0.00    -0.044 A 
ATOM     28  C   UNL     1       6.085   1.663   1.157  0.00  0.00    -0.042 A 
ATOM     29  C   UNL     1       4.807   1.118   1.155  0.00  0.00    +0.030 A 
ATOM     30  C   UNL     1       6.728   1.941   2.490  0.00  0.00    +0.035 C 
ATOM     31  C   UNL     1       8.237   2.119   2.333  0.00  0.00    +0.005 C 
ATOM     32  C   UNL     1       8.490   3.145   1.222  0.00  0.00    +0.005 C 
ATOM     33  C   UNL     1       8.099   2.517  -0.113  0.00  0.00    +0.035 C 
ENDBRANCH  21  24
ENDBRANCH   7  21
TORSDOF 5
