REMARK  Name = ZINC20803423
REMARK  9 active torsions:
REMARK  status: ('A' for Active; 'I' for Inactive)
REMARK    1  A    between atoms: C_1  and  C_2
REMARK    2  A    between atoms: C_4  and  C_27
REMARK    3  A    between atoms: C_6  and  C_14
REMARK    4  A    between atoms: C_17  and  O_22
REMARK    5  A    between atoms: C_18  and  O_20
REMARK    6  A    between atoms: O_20  and  C_21
REMARK    7  A    between atoms: O_22  and  C_23
REMARK    8  A    between atoms: C_23  and  C_24
REMARK    9  A    between atoms: N_29  and  C_30
REMARK                            x       y       z     vdW  Elec       q    Type
REMARK                         _______ _______ _______ _____ _____    ______ ____
ROOT
ATOM      1  C   UNL     1      -2.357   0.377   1.826  0.00  0.00    +0.028 C 
ATOM      2  C   UNL     1      -1.379   1.046   0.858  0.00  0.00    +0.084 C 
ATOM      3  C   UNL     1      -0.681  -0.024   0.010  0.00  0.00    +0.124 C 
ATOM      4  C   UNL     1       0.259   0.647  -0.999  0.00  0.00    +0.154 C 
ATOM      5  N   UNL     1       1.090   1.621  -0.292  0.00  0.00    -0.225 N 
ATOM      6  C   UNL     1       0.793   2.139   0.924  0.00  0.00    +0.214 A 
ATOM      7  N   UNL     1       1.746   2.969   1.254  0.00  0.00    -0.202 NA
ATOM      8  C   UNL     1       2.660   3.009   0.279  0.00  0.00    +0.247 A 
ATOM      9  N   UNL     1       2.297   2.201  -0.685  0.00  0.00    -0.156 NA
ATOM     10  N   UNL     1      -0.354   1.784   1.621  0.00  0.00    -0.310 N 
ATOM     11  H   UNL     1      -0.524   2.022   2.682  0.00  0.00    +0.149 HD
ENDROOT
BRANCH   4  12
ATOM     12  C   UNL     1       1.136  -0.396  -1.642  0.00  0.00    -0.019 A 
ATOM     13  C   UNL     1       0.751  -0.980  -2.835  0.00  0.00    +0.009 A 
ATOM     14  C   UNL     1       1.552  -1.937  -3.429  0.00  0.00    +0.050 A 
ATOM     15  C   UNL     1       2.744  -2.313  -2.830  0.00  0.00    +0.163 A 
ATOM     16  C   UNL     1       3.131  -1.725  -1.630  0.00  0.00    +0.162 A 
ATOM     17  C   UNL     1       2.326  -0.763  -1.042  0.00  0.00    +0.055 A 
BRANCH  16  18
ATOM     18  O   UNL     1       4.300  -2.090  -1.038  0.00  0.00    -0.491 OA
ATOM     19  C   UNL     1       4.634  -1.445   0.192  0.00  0.00    +0.277 C 
ENDBRANCH  16  18
BRANCH  15  20
ATOM     20  O   UNL     1       3.533  -3.255  -3.414  0.00  0.00    -0.479 OA
BRANCH  20  21
ATOM     21  C   UNL     1       3.071  -3.816  -4.644  0.00  0.00    +0.324 C 
BRANCH  21  22
ATOM     22  C   UNL     1       4.068  -4.833  -5.138  0.00  0.00    +0.248 C 
ATOM     23  O   UNL     1       5.074  -5.056  -4.498  0.00  0.00    -0.272 OA
ATOM     24  N   UNL     1       3.841  -5.495  -6.289  0.00  0.00    -0.327 N 
ATOM     25  H   UNL     1       4.568  -6.238  -6.649  0.00  0.00    +0.145 HD
ATOM     26  H   UNL     1       2.928  -5.293  -6.869  0.00  0.00    +0.145 HD
ENDBRANCH  21  22
ENDBRANCH  20  21
ENDBRANCH  15  20
ENDBRANCH   4  12
BRANCH   3  27
ATOM     27  C   UNL     1       0.115  -0.935   0.908  0.00  0.00    +0.224 C 
ATOM     28  O   UNL     1       0.816  -0.466   1.780  0.00  0.00    -0.275 OA
ATOM     29  N   UNL     1       0.050  -2.271   0.742  0.00  0.00    -0.285 N 
ATOM     30  H   UNL     1      -0.505  -2.693  -0.109  0.00  0.00    +0.155 HD
BRANCH  29  31
ATOM     31  C   UNL     1       0.687  -3.121   1.653  0.00  0.00    +0.033 A 
ATOM     32  C   UNL     1       1.880  -2.733   2.249  0.00  0.00    +0.023 A 
ATOM     33  C   UNL     1       2.503  -3.572   3.151  0.00  0.00    +0.002 A 
ATOM     34  C   UNL     1       1.948  -4.802   3.453  0.00  0.00    +0.000 A 
ATOM     35  C   UNL     1       0.763  -5.193   2.857  0.00  0.00    +0.002 A 
ATOM     36  C   UNL     1       0.131  -4.356   1.958  0.00  0.00    +0.023 A 
ENDBRANCH  29  31
ENDBRANCH   3  27
TORSDOF 7
