REMARK  Name = ZINC06528627
REMARK  6 active torsions:
REMARK  status: ('A' for Active; 'I' for Inactive)
REMARK    1  A    between atoms: C_4  and  N_21
REMARK    2  A    between atoms: C_5  and  C_7
REMARK    3  A    between atoms: N_9  and  N_10
REMARK    4  A    between atoms: N_10  and  C_11
REMARK    5  A    between atoms: C_11  and  N_13
REMARK    6  A    between atoms: C_14  and  C_16
REMARK                            x       y       z     vdW  Elec       q    Type
REMARK                         _______ _______ _______ _____ _____    ______ ____
ROOT
ATOM      1  C   UNL     1      -6.288   0.594  -0.555  0.00  0.00    +0.262 C 
ATOM      2  O   UNL     1      -7.200   1.367  -0.335  0.00  0.00    -0.269 OA
ATOM      3  N   UNL     1      -5.129   1.049  -1.071  0.00  0.00    -0.231 N 
ATOM      4  H   UNL     1      -4.401   0.432  -1.247  0.00  0.00    +0.173 HD
ENDROOT
BRANCH   1   9
ATOM      5  C   UNL     1      -5.519  -3.052  -0.089  0.00  0.00    +0.001 A 
ATOM      6  C   UNL     1      -6.754  -3.539   0.304  0.00  0.00    +0.002 A 
ATOM      7  C   UNL     1      -7.836  -2.686   0.419  0.00  0.00    +0.033 A 
ATOM      8  C   UNL     1      -7.692  -1.342   0.142  0.00  0.00    +0.138 A 
ATOM      9  C   UNL     1      -6.450  -0.845  -0.255  0.00  0.00    +0.068 A 
ATOM     10  C   UNL     1      -5.363  -1.712  -0.374  0.00  0.00    +0.015 A 
BRANCH   8  11
ATOM     11  N   UNL     1      -8.851  -0.431   0.265  0.00  0.00    +0.057 N 
ATOM     12  O   UNL     1      -9.515  -0.424   1.286  0.00  0.00    -0.126 OA
ATOM     13  O   UNL     1      -9.142   0.313  -0.656  0.00  0.00    -0.126 OA
ENDBRANCH   8  11
ENDBRANCH   1   9
BRANCH   3  14
ATOM     14  N   UNL     1      -4.976   2.412  -1.355  0.00  0.00    -0.245 N 
ATOM     15  H   UNL     1      -5.703   3.029  -1.179  0.00  0.00    +0.172 HD
BRANCH  14  16
ATOM     16  C   UNL     1      -3.817   2.867  -1.872  0.00  0.00    +0.153 C 
ATOM     17  S   UNL     1      -3.629   4.533  -2.218  0.00  0.00    -0.017 S 
BRANCH  16  18
ATOM     18  N   UNL     1      -2.806   2.010  -2.116  0.00  0.00    -0.262 N 
ATOM     19  C   UNL     1      -1.647   2.464  -2.632  0.00  0.00    +0.256 C 
ATOM     20  O   UNL     1      -1.514   3.648  -2.879  0.00  0.00    -0.269 OA
ATOM     21  H   UNL     1      -2.912   1.066  -1.919  0.00  0.00    +0.157 HD
BRANCH  19  22
ATOM     22  C   UNL     1      -0.548   1.533  -2.897  0.00  0.00    +0.074 A 
ATOM     23  C   UNL     1       0.709   1.790  -3.425  0.00  0.00    +0.021 A 
ATOM     24  C   UNL     1       1.554   0.721  -3.575  0.00  0.00    +0.008 A 
ATOM     25  C   UNL     1       1.131  -0.517  -3.208  0.00  0.00    +0.046 A 
ATOM     26  S   UNL     1      -0.480  -0.230  -2.633  0.00  0.00    -0.092 S 
ENDBRANCH  19  22
ENDBRANCH  16  18
ENDBRANCH  14  16
ENDBRANCH   3  14
TORSDOF 6
