REMARK  Name = ZINC01574092
REMARK  1 active torsions:
REMARK  status: ('A' for Active; 'I' for Inactive)
REMARK    1  A    between atoms: C_1  and  C_2
REMARK                            x       y       z     vdW  Elec       q    Type
REMARK                         _______ _______ _______ _____ _____    ______ ____
ROOT
ATOM      1  C   UNL     1      -0.013   1.086   0.008  0.00  0.00    +0.031 C 
ATOM      2  C   UNL     1      -0.729   1.579   1.267  0.00  0.00    +0.116 C 
ATOM      3  C   UNL     1       0.011   1.072   2.506  0.00  0.00    +0.211 C 
ATOM      4  C   UNL     1      -0.248  -0.404   2.670  0.00  0.00    +0.258 C 
ATOM      5  O   UNL     1       0.617  -1.127   3.115  0.00  0.00    -0.272 OA
ATOM      6  N   UNL     1      -1.442  -0.919   2.320  0.00  0.00    -0.238 N 
ATOM      7  C   UNL     1      -2.383  -0.154   1.743  0.00  0.00    +0.306 C 
ATOM      8  O   UNL     1      -3.516  -0.583   1.642  0.00  0.00    -0.252 OA
ATOM      9  N   UNL     1      -2.103   1.073   1.276  0.00  0.00    -0.293 N 
ATOM     10 CL   UNL     1       1.781   1.354   2.309  0.00  0.00    -0.089 Cl
ATOM     11 CL   UNL     1      -0.581   1.953   3.964  0.00  0.00    -0.089 Cl
ATOM     12  H   UNL     1      -1.625  -1.857   2.488  0.00  0.00    +0.159 HD
ATOM     13  H   UNL     1      -2.821   1.633   0.941  0.00  0.00    +0.151 HD
ENDROOT
TORSDOF 0
