REMARK  Name = ZINC26901651
REMARK  8 active torsions:
REMARK  status: ('A' for Active; 'I' for Inactive)
REMARK    1  A    between atoms: C_1  and  C_2
REMARK    2  A    between atoms: C_2  and  C_3
REMARK    3  A    between atoms: C_3  and  C_5
REMARK    4  A    between atoms: C_3  and  C_6
REMARK    5  A    between atoms: C_6  and  C_8
REMARK    6  A    between atoms: C_6  and  N_23
REMARK    7  A    between atoms: N_10  and  C_11
REMARK    8  A    between atoms: C_20  and  C_22
REMARK                            x       y       z     vdW  Elec       q    Type
REMARK                         _______ _______ _______ _____ _____    ______ ____
ROOT
ATOM      1  C   UNL     1      -1.050   4.087  -0.408  0.00  0.00    +0.238 C 
ATOM      2  O   UNL     1      -0.350   5.051  -0.636  0.00  0.00    -0.273 OA
ATOM      3  N   UNL     1      -0.504   2.856  -0.355  0.00  0.00    -0.284 N 
ATOM      4  H   UNL     1      -1.121   1.993  -0.064  0.00  0.00    +0.155 HD
ENDROOT
BRANCH   3   5
ATOM      5  C   UNL     1       0.848   2.675  -0.671  0.00  0.00    +0.034 A 
ATOM      6  C   UNL     1       1.447   3.459  -1.648  0.00  0.00    +0.025 A 
ATOM      7  C   UNL     1       2.776   3.277  -1.963  0.00  0.00    +0.025 A 
ATOM      8  C   UNL     1       3.531   2.304  -1.304  0.00  0.00    +0.040 A 
ATOM      9  C   UNL     1       2.927   1.525  -0.330  0.00  0.00    -0.023 A 
ATOM     10  C   UNL     1       1.595   1.707  -0.013  0.00  0.00    +0.028 A 
ATOM     11  C   UNL     1       3.953   0.561   0.221  0.00  0.00    +0.056 C 
ATOM     12  C   UNL     1       5.240   0.878  -0.558  0.00  0.00    +0.118 C 
ATOM     13  N   UNL     1       4.879   1.964  -1.473  0.00  0.00    -0.271 N 
ATOM     14  C   UNL     1       5.720   2.550  -2.347  0.00  0.00    +0.217 C 
ATOM     15  O   UNL     1       5.350   3.505  -2.998  0.00  0.00    -0.276 OA
ATOM     16  C   UNL     1       7.120   2.019  -2.517  0.00  0.00    +0.109 C 
ENDBRANCH   3   5
BRANCH   1  17
ATOM     17  C   UNL     1      -2.529   4.266  -0.183  0.00  0.00    +0.163 C 
BRANCH  17  18
ATOM     18  N   UNL     1      -2.869   5.688  -0.279  0.00  0.00    -0.288 N 
ATOM     19  C   UNL     1      -4.061   6.063  -0.784  0.00  0.00    +0.298 C 
ATOM     20  O   UNL     1      -4.892   5.223  -1.069  0.00  0.00    -0.253 OA
ATOM     21  N   UNL     1      -4.332   7.370  -0.972  0.00  0.00    -0.313 N 
ATOM     22  H   UNL     1      -2.151   6.449   0.060  0.00  0.00    +0.151 HD
ATOM     23  H   UNL     1      -5.305   7.676  -1.384  0.00  0.00    +0.146 HD
ATOM     24  H   UNL     1      -3.580   8.130  -0.714  0.00  0.00    +0.146 HD
ENDBRANCH  17  18
BRANCH  17  25
ATOM     25  C   UNL     1      -2.901   3.746   1.207  0.00  0.00    +0.015 C 
ATOM     26  C   UNL     1      -4.422   3.767   1.369  0.00  0.00    +0.010 C 
BRANCH  25  28
ATOM     27  C   UNL     1      -0.742   4.469   2.235  0.00  0.00    +0.004 C 
ATOM     28  C   UNL     1      -2.262   4.638   2.273  0.00  0.00    +0.002 C 
ENDBRANCH  25  28
ENDBRANCH  17  25
ENDBRANCH   1  17
TORSDOF 5
