REMARK  Name = ZINC39584381
REMARK  6 active torsions:
REMARK  status: ('A' for Active; 'I' for Inactive)
REMARK    1  A    between atoms: C_1  and  C_2
REMARK    2  A    between atoms: C_5  and  C_9
REMARK    3  A    between atoms: C_7  and  C_8
REMARK    4  A    between atoms: C_11  and  C_15
REMARK    5  A    between atoms: N_17  and  N_18
REMARK    6  A    between atoms: C_19  and  C_20
REMARK                            x       y       z     vdW  Elec       q    Type
REMARK                         _______ _______ _______ _____ _____    ______ ____
ROOT
ATOM      1  C   UNL     1       1.327  -7.184  -1.032  0.00  0.00    +0.263 C 
ATOM      2  O   UNL     1       2.260  -7.308  -0.267  0.00  0.00    -0.271 OA
ATOM      3  N   UNL     1       1.405  -7.688  -2.279  0.00  0.00    -0.205 N 
ATOM      4  H   UNL     1       0.659  -7.589  -2.891  0.00  0.00    +0.177 HD
ENDROOT
BRANCH   1   7
ATOM      5  C   UNL     1       0.054  -4.288   0.012  0.00  0.00    +0.092 C 
ATOM      6  C   UNL     1       0.068  -5.038  -1.107  0.00  0.00    +0.041 C 
ATOM      7  C   UNL     1       0.079  -6.465  -0.588  0.00  0.00    +0.240 C 
ATOM      8  N   UNL     1       0.068  -6.290   0.874  0.00  0.00    -0.170 NA
ATOM      9  N   UNL     1       0.061  -5.081   1.115  0.00  0.00    -0.153 NA
BRANCH   5  14
ATOM     10  C   UNL     1      -0.003   1.470   0.105  0.00  0.00    +0.044 C 
ATOM     11  C   UNL     1       0.011  -0.036   0.080  0.00  0.00    -0.047 A 
ATOM     12  C   UNL     1       0.020  -0.706  -1.130  0.00  0.00    +0.004 A 
ATOM     13  C   UNL     1       0.034  -2.086  -1.158  0.00  0.00    +0.010 A 
ATOM     14  C   UNL     1       0.040  -2.804   0.036  0.00  0.00    +0.002 A 
ATOM     15  C   UNL     1       0.031  -2.125   1.252  0.00  0.00    +0.013 A 
ATOM     16  C   UNL     1       0.022  -0.744   1.268  0.00  0.00    -0.047 A 
ATOM     17  C   UNL     1       0.019  -0.008   2.583  0.00  0.00    +0.044 C 
ENDBRANCH   5  14
ENDBRANCH   1   7
BRANCH   3  18
ATOM     18  N   UNL     1       2.566  -8.357  -2.692  0.00  0.00    -0.188 NA
ATOM     19  C   UNL     1       2.642  -8.844  -3.897  0.00  0.00    +0.139 C 
BRANCH  19  20
ATOM     20  C   UNL     1       3.855  -9.543  -4.329  0.00  0.00    +0.010 A 
ATOM     21  C   UNL     1       3.905 -10.174  -5.589  0.00  0.00    -0.009 A 
ATOM     22  C   UNL     1       2.799 -10.149  -6.458  0.00  0.00    +0.009 A 
ATOM     23  C   UNL     1       2.880 -10.766  -7.666  0.00  0.00    +0.001 A 
ATOM     24  C   UNL     1       4.036 -11.430  -8.073  0.00  0.00    +0.001 A 
ATOM     25  C   UNL     1       5.138 -11.491  -7.282  0.00  0.00    +0.008 A 
ATOM     26  C   UNL     1       5.121 -10.870  -6.014  0.00  0.00    -0.017 A 
ATOM     27  C   UNL     1       6.237 -10.914  -5.178  0.00  0.00    +0.017 A 
ATOM     28  C   UNL     1       6.196 -10.292  -3.929  0.00  0.00    -0.017 A 
ATOM     29  C   UNL     1       4.989  -9.588  -3.492  0.00  0.00    -0.009 A 
ATOM     30  C   UNL     1       4.985  -8.968  -2.230  0.00  0.00    +0.009 A 
ATOM     31  C   UNL     1       6.095  -9.030  -1.448  0.00  0.00    +0.001 A 
ATOM     32  C   UNL     1       7.247  -9.695  -1.863  0.00  0.00    +0.001 A 
ATOM     33  C   UNL     1       7.312 -10.324  -3.066  0.00  0.00    +0.008 A 
ENDBRANCH  19  20
ENDBRANCH   3  18
TORSDOF 4
