REMARK  Name = ZINC63479665
REMARK  4 active torsions:
REMARK  status: ('A' for Active; 'I' for Inactive)
REMARK    1  A    between atoms: C_1  and  C_2
REMARK    2  A    between atoms: C_2  and  N_3
REMARK    3  A    between atoms: C_16  and  C_18
REMARK    4  A    between atoms: N_24  and  C_27
REMARK                            x       y       z     vdW  Elec       q    Type
REMARK                         _______ _______ _______ _____ _____    ______ ____
ROOT
ATOM      1  N   UNL     1       1.408  -1.394  -1.482  0.00  0.00    +0.386 N 
ATOM      2  C   UNL     1       0.603  -0.482  -2.299  0.00  0.00    -0.073 C 
ATOM      3  C   UNL     1       0.920  -0.681  -3.792  0.00  0.00    +0.015 C 
ATOM      4  C   UNL     1       0.800  -2.162  -4.051  0.00  0.00    -0.041 C 
ATOM      5  C   UNL     1       0.166  -2.860  -4.981  0.00  0.00    -0.001 A 
ATOM      6  C   UNL     1      -0.548  -2.451  -6.202  0.00  0.00    +0.010 A 
ATOM      7  C   UNL     1      -1.117  -3.449  -6.928  0.00  0.00    +0.001 A 
ATOM      8  C   UNL     1      -1.048  -4.798  -6.567  0.00  0.00    +0.002 A 
ATOM      9  C   UNL     1      -0.403  -5.266  -5.469  0.00  0.00    +0.026 A 
ATOM     10  C   UNL     1       0.244  -4.312  -4.631  0.00  0.00    +0.043 A 
ATOM     11  N   UNL     1       0.949  -4.482  -3.551  0.00  0.00    -0.379 N 
ATOM     12  C   UNL     1       1.465  -3.182  -3.131  0.00  0.00    +0.097 C 
ATOM     13  C   UNL     1       1.048  -2.802  -1.709  0.00  0.00    -0.000 C 
ATOM     14  H   UNL     1       1.105  -5.328  -3.101  0.00  0.00    +0.160 HD
ATOM     15  H   UNL     1       2.383  -1.263  -1.710  0.00  0.00    -0.081 HD
ENDROOT
BRANCH  13  16
ATOM     16  C   UNL     1      -0.440  -2.977  -1.552  0.00  0.00    +0.071 A 
ATOM     17  H   UNL     1      -3.273  -2.074  -2.836  0.00  0.00    +0.173 HD
ATOM     18  C   UNL     1      -1.304  -2.347  -2.398  0.00  0.00    +0.259 A 
ATOM     19  N   UNL     1      -2.655  -2.520  -2.237  0.00  0.00    -0.274 N 
ATOM     20  C   UNL     1      -3.128  -3.305  -1.252  0.00  0.00    +0.337 A 
ATOM     21  O   UNL     1      -4.329  -3.448  -1.125  0.00  0.00    -0.246 OA
ATOM     22  N   UNL     1      -2.293  -3.936  -0.407  0.00  0.00    -0.229 N 
ATOM     23  C   UNL     1      -0.958  -3.797  -0.534  0.00  0.00    +0.266 A 
ATOM     24  O   UNL     1      -0.205  -4.375   0.231  0.00  0.00    -0.267 OA
ATOM     25  O   UNL     1      -0.832  -1.558  -3.387  0.00  0.00    -0.267 OA
BRANCH  22  26
ATOM     26  C   UNL     1      -2.814  -4.748   0.610  0.00  0.00    +0.054 A 
ATOM     27  C   UNL     1      -3.106  -4.203   1.854  0.00  0.00    +0.027 A 
ATOM     28  C   UNL     1      -3.619  -5.005   2.854  0.00  0.00    +0.017 A 
ATOM     29  C   UNL     1      -3.842  -6.350   2.618  0.00  0.00    +0.018 A 
ATOM     30  C   UNL     1      -3.552  -6.895   1.380  0.00  0.00    +0.017 A 
ATOM     31  C   UNL     1      -3.044  -6.096   0.374  0.00  0.00    +0.027 A 
ATOM     32 BR   UNL     1      -4.545  -7.445   3.990  0.00  0.00    -0.050 Br
ENDBRANCH  22  26
ENDBRANCH  13  16
BRANCH   1  34
ATOM     33  C   UNL     1       1.692   0.353   0.211  0.00  0.00    -0.017 C 
ATOM     34  C   UNL     1       1.204  -1.071  -0.063  0.00  0.00    -0.081 C 
ENDBRANCH   1  34
TORSDOF 3
