REMARK  Name = ZINC63130601
REMARK  8 active torsions:
REMARK  status: ('A' for Active; 'I' for Inactive)
REMARK    1  A    between atoms: C_1  and  C_2
REMARK    2  A    between atoms: C_3  and  N_11
REMARK    3  A    between atoms: C_7  and  N_8
REMARK    4  A    between atoms: N_11  and  C_12
REMARK    5  A    between atoms: C_12  and  C_13
REMARK    6  A    between atoms: C_13  and  O_14
REMARK    7  A    between atoms: O_14  and  C_15
REMARK    8  A    between atoms: C_19  and  N_21
REMARK                            x       y       z     vdW  Elec       q    Type
REMARK                         _______ _______ _______ _____ _____    ______ ____
ROOT
ATOM      1  N   UNL     1      -0.720  -0.045  -2.327  0.00  0.00    -0.340 N 
ATOM      2  H   UNL     1      -0.908   0.906  -2.297  0.00  0.00    +0.146 HD
ENDROOT
BRANCH   1   5
ATOM      3  C   UNL     1      -0.538   1.447   0.089  0.00  0.00    +0.048 C 
ATOM      4  C   UNL     1      -0.246  -0.031   0.040  0.00  0.00    +0.001 A 
ATOM      5  C   UNL     1      -0.348  -0.720  -1.163  0.00  0.00    +0.032 A 
ATOM      6  C   UNL     1      -0.078  -2.082  -1.204  0.00  0.00    +0.023 A 
ATOM      7  C   UNL     1       0.290  -2.746  -0.050  0.00  0.00    +0.004 A 
ATOM      8  C   UNL     1       0.389  -2.058   1.145  0.00  0.00    +0.033 A 
ATOM      9  C   UNL     1       0.127  -0.700   1.188  0.00  0.00    +0.131 A 
BRANCH   9  10
ATOM     10  N   UNL     1       0.241   0.034   2.468  0.00  0.00    +0.057 N 
ATOM     11  O   UNL     1       0.675   1.163   2.481  0.00  0.00    -0.126 OA
ATOM     12  O   UNL     1      -0.101  -0.494   3.500  0.00  0.00    -0.126 OA
ENDBRANCH   9  10
ENDBRANCH   1   5
BRANCH   1  13
ATOM     13  C   UNL     1      -0.826  -0.773  -3.594  0.00  0.00    +0.142 C 
BRANCH  13  14
ATOM     14  C   UNL     1      -1.247   0.192  -4.704  0.00  0.00    +0.247 C 
BRANCH  14  15
ATOM     15  O   UNL     1      -0.216   1.160  -4.909  0.00  0.00    -0.490 OA
BRANCH  15  16
ATOM     16  C   UNL     1      -0.433   2.098  -5.868  0.00  0.00    +0.122 A 
ATOM     17  C   UNL     1      -1.617   2.091  -6.592  0.00  0.00    +0.046 A 
ATOM     18  C   UNL     1      -1.839   3.044  -7.567  0.00  0.00    +0.005 A 
ATOM     19  C   UNL     1      -0.884   4.008  -7.825  0.00  0.00    +0.023 A 
ATOM     20  C   UNL     1       0.303   4.021  -7.104  0.00  0.00    +0.028 A 
ATOM     21  C   UNL     1       0.526   3.067  -6.120  0.00  0.00    +0.068 A 
BRANCH  20  22
ATOM     22  N   UNL     1       1.270   4.995  -7.364  0.00  0.00    -0.358 N 
ATOM     23  H   UNL     1       1.112   5.663  -8.049  0.00  0.00    +0.142 HD
ATOM     24  H   UNL     1       2.098   5.003  -6.860  0.00  0.00    +0.142 HD
ENDBRANCH  20  22
ENDBRANCH  15  16
ENDBRANCH  14  15
ENDBRANCH  13  14
ENDBRANCH   1  13
TORSDOF 7
