REMARK  Name = ZINC36056506
REMARK  9 active torsions:
REMARK  status: ('A' for Active; 'I' for Inactive)
REMARK    1  A    between atoms: C_1  and  C_2
REMARK    2  A    between atoms: C_5  and  C_8
REMARK    3  A    between atoms: C_8  and  C_10
REMARK    4  A    between atoms: C_12  and  C_24
REMARK    5  A    between atoms: C_18  and  C_19
REMARK    6  A    between atoms: C_18  and  O_23
REMARK    7  A    between atoms: C_27  and  O_32
REMARK    8  A    between atoms: C_28  and  O_30
REMARK    9  A    between atoms: O_30  and  C_31
REMARK                            x       y       z     vdW  Elec       q    Type
REMARK                         _______ _______ _______ _____ _____    ______ ____
ROOT
ATOM      1  C   UNL     1       0.113  -4.977   1.569  0.00  0.00    +0.144 C 
ATOM      2  C   UNL     1      -0.356  -6.429   1.429  0.00  0.00    +0.120 C 
ATOM      3  N   UNL     1       0.098  -7.195   2.591  0.00  0.00    -0.292 N 
ATOM      4  C   UNL     1       1.219  -6.864   3.250  0.00  0.00    +0.302 C 
ATOM      5  O   UNL     1       1.558  -7.540   4.202  0.00  0.00    -0.253 OA
ATOM      6  N   UNL     1       1.980  -5.817   2.900  0.00  0.00    -0.264 N 
ATOM      7  C   UNL     1       1.633  -4.968   1.758  0.00  0.00    +0.243 C 
ATOM      8  H   UNL     1      -0.421  -7.957   2.891  0.00  0.00    +0.151 HD
ATOM      9  H   UNL     1       2.777  -5.615   3.415  0.00  0.00    +0.153 HD
ENDROOT
BRANCH   2  10
ATOM     10  C   UNL     1      -1.861  -6.468   1.357  0.00  0.00    -0.023 A 
ATOM     11  C   UNL     1      -2.610  -6.368   2.515  0.00  0.00    +0.009 A 
ATOM     12  C   UNL     1      -3.991  -6.403   2.454  0.00  0.00    +0.049 A 
ATOM     13  C   UNL     1      -4.627  -6.537   1.230  0.00  0.00    +0.158 A 
ATOM     14  C   UNL     1      -3.873  -6.637   0.065  0.00  0.00    +0.162 A 
ATOM     15  C   UNL     1      -2.490  -6.597   0.133  0.00  0.00    +0.055 A 
BRANCH  14  16
ATOM     16  O   UNL     1      -4.493  -6.769  -1.139  0.00  0.00    -0.491 OA
ATOM     17  C   UNL     1      -3.655  -6.866  -2.292  0.00  0.00    +0.277 C 
ENDBRANCH  14  16
BRANCH  13  18
ATOM     18  O   UNL     1      -5.985  -6.572   1.168  0.00  0.00    -0.503 OA
ATOM     19  H   UNL     1      -6.396  -5.703   1.063  0.00  0.00    +0.292 HD
ENDBRANCH  13  18
ENDBRANCH   2  10
BRANCH   7  20
ATOM     20  C   UNL     1       2.108  -3.537   2.017  0.00  0.00    +0.436 C 
ATOM     21  F   UNL     1       1.396  -2.997   3.094  0.00  0.00    -0.166 F 
ATOM     22  F   UNL     1       3.474  -3.545   2.318  0.00  0.00    -0.166 F 
ATOM     23  F   UNL     1       1.887  -2.758   0.876  0.00  0.00    -0.166 F 
ENDBRANCH   7  20
BRANCH   1  24
ATOM     24  C   UNL     1      -0.248  -4.207   0.325  0.00  0.00    +0.173 C 
ATOM     25  O   UNL     1       0.165  -4.572  -0.755  0.00  0.00    -0.292 OA
BRANCH  24  30
ATOM     26  C   UNL     1      -3.578   0.464   0.700  0.00  0.00    +0.044 C 
ATOM     27  C   UNL     1      -2.704  -0.760   0.602  0.00  0.00    -0.050 A 
ATOM     28  C   UNL     1      -2.122  -1.095  -0.608  0.00  0.00    +0.004 A 
ATOM     29  C   UNL     1      -1.321  -2.213  -0.706  0.00  0.00    +0.011 A 
ATOM     30  C   UNL     1      -1.100  -3.011   0.421  0.00  0.00    +0.018 A 
ATOM     31  C   UNL     1      -1.692  -2.666   1.641  0.00  0.00    +0.011 A 
ATOM     32  C   UNL     1      -2.485  -1.541   1.724  0.00  0.00    +0.004 A 
ENDBRANCH  24  30
ENDBRANCH   1  24
BRANCH   7  33
ATOM     33  O   UNL     1       2.264  -5.476   0.581  0.00  0.00    -0.364 OA
ATOM     34  H   UNL     1       3.229  -5.498   0.630  0.00  0.00    +0.212 HD
ENDBRANCH   7  33
TORSDOF 7
