REMARK  Name = ZINC14241783
REMARK  11 active torsions:
REMARK  status: ('A' for Active; 'I' for Inactive)
REMARK    1  A    between atoms: C_4  and  C_7
REMARK    2  A    between atoms: C_7  and  C_8
REMARK    3  A    between atoms: C_7  and  C_31
REMARK    4  A    between atoms: C_7  and  O_35
REMARK    5  A    between atoms: C_8  and  C_9
REMARK    6  A    between atoms: N_11  and  N_12
REMARK    7  A    between atoms: C_13  and  C_15
REMARK    8  A    between atoms: C_15  and  O_16
REMARK    9  A    between atoms: O_16  and  C_17
REMARK   10  A    between atoms: C_20  and  C_23
REMARK   11  A    between atoms: C_26  and  C_29
REMARK                            x       y       z     vdW  Elec       q    Type
REMARK                         _______ _______ _______ _____ _____    ______ ____
ROOT
ATOM      1  N   UNL     1      -7.266   3.830   1.195  0.00  0.00    -0.232 N 
ATOM      2  C   UNL     1      -8.320   3.376   1.903  0.00  0.00    +0.267 C 
ATOM      3  O   UNL     1      -8.172   2.472   2.697  0.00  0.00    -0.271 OA
ATOM      4  H   UNL     1      -7.384   4.554   0.560  0.00  0.00    +0.173 HD
ENDROOT
BRANCH   1   7
ATOM      5  C   UNL     1      -4.947   3.712   0.671  0.00  0.00    +0.232 C 
ATOM      6  O   UNL     1      -5.094   4.616  -0.124  0.00  0.00    -0.274 OA
ATOM      7  N   UNL     1      -6.001   3.258   1.378  0.00  0.00    -0.234 N 
ATOM      8  H   UNL     1      -5.883   2.534   2.013  0.00  0.00    +0.173 HD
BRANCH   5   9
ATOM      9  C   UNL     1      -3.586   3.096   0.867  0.00  0.00    +0.146 C 
BRANCH   9  10
ATOM     10  C   UNL     1      -2.561   3.838   0.007  0.00  0.00    +0.194 C 
BRANCH  10  14
ATOM     11  C   UNL     1      -2.596   7.989   1.015  0.00  0.00    +0.000 A 
ATOM     12  C   UNL     1      -2.910   7.043   1.972  0.00  0.00    +0.000 A 
ATOM     13  C   UNL     1      -2.894   5.699   1.647  0.00  0.00    +0.007 A 
ATOM     14  C   UNL     1      -2.574   5.303   0.362  0.00  0.00    -0.007 A 
ATOM     15  C   UNL     1      -2.259   6.249  -0.595  0.00  0.00    +0.007 A 
ATOM     16  C   UNL     1      -2.270   7.592  -0.269  0.00  0.00    +0.000 A 
ENDBRANCH  10  14
BRANCH  10  17
ATOM     17  C   UNL     1      -1.167   3.263   0.264  0.00  0.00    +0.423 C 
ATOM     18  F   UNL     1      -0.838   3.423   1.615  0.00  0.00    -0.167 F 
ATOM     19  F   UNL     1      -1.157   1.902  -0.060  0.00  0.00    -0.167 F 
ATOM     20  F   UNL     1      -0.231   3.938  -0.527  0.00  0.00    -0.167 F 
ENDBRANCH  10  17
BRANCH  10  21
ATOM     21  O   UNL     1      -2.894   3.680  -1.374  0.00  0.00    -0.375 OA
ATOM     22  H   UNL     1      -3.767   4.023  -1.609  0.00  0.00    +0.211 HD
ENDBRANCH  10  21
ENDBRANCH   9  10
ENDBRANCH   5   9
ENDBRANCH   1   7
BRANCH   2  23
ATOM     23  C   UNL     1      -9.681   3.992   1.706  0.00  0.00    +0.326 C 
BRANCH  23  24
ATOM     24  O   UNL     1     -10.625   3.345   2.562  0.00  0.00    -0.483 OA
BRANCH  24  25
ATOM     25  C   UNL     1     -11.909   3.784   2.507  0.00  0.00    +0.121 A 
ATOM     26  C   UNL     1     -12.251   4.822   1.651  0.00  0.00    +0.046 A 
ATOM     27  C   UNL     1     -13.554   5.267   1.589  0.00  0.00    +0.012 A 
ATOM     28  C   UNL     1     -14.528   4.681   2.397  0.00  0.00    -0.018 A 
ATOM     29  C   UNL     1     -14.181   3.642   3.261  0.00  0.00    +0.012 A 
ATOM     30  C   UNL     1     -12.877   3.198   3.313  0.00  0.00    +0.046 A 
BRANCH  28  31
ATOM     31  C   UNL     1     -15.929   5.161   2.339  0.00  0.00    -0.018 A 
ATOM     32  C   UNL     1     -16.903   4.570   3.145  0.00  0.00    +0.010 A 
ATOM     33  C   UNL     1     -18.203   5.019   3.096  0.00  0.00    +0.019 A 
ATOM     34  C   UNL     1     -18.550   6.060   2.230  0.00  0.00    +0.052 A 
ATOM     35  C   UNL     1     -17.575   6.648   1.419  0.00  0.00    +0.019 A 
ATOM     36  C   UNL     1     -16.274   6.201   1.475  0.00  0.00    +0.010 A 
BRANCH  34  37
ATOM     37  C   UNL     1     -19.904   6.523   2.173  0.00  0.00    +0.099 C 
ATOM     38  N   UNL     1     -20.978   6.891   2.128  0.00  0.00    -0.191 NA
ENDBRANCH  34  37
ENDBRANCH  28  31
ENDBRANCH  24  25
ENDBRANCH  23  24
ENDBRANCH   2  23
TORSDOF 11
