REMARK  Name = ZINC36093618
REMARK  12 active torsions:
REMARK  status: ('A' for Active; 'I' for Inactive)
REMARK    1  A    between atoms: C_1  and  C_2
REMARK    2  A    between atoms: C_2  and  C_3
REMARK    3  A    between atoms: C_3  and  C_4
REMARK    4  A    between atoms: C_4  and  C_5
REMARK    5  A    between atoms: C_5  and  N_6
REMARK    6  A    between atoms: N_6  and  C_7
REMARK    7  A    between atoms: C_8  and  N_20
REMARK    8  A    between atoms: N_9  and  C_16
REMARK    9  A    between atoms: C_16  and  C_17
REMARK   10  A    between atoms: C_17  and  C_18
REMARK   11  A    between atoms: C_18  and  C_19
REMARK   12  A    between atoms: C_21  and  C_23
REMARK                            x       y       z     vdW  Elec       q    Type
REMARK                         _______ _______ _______ _____ _____    ______ ____
ROOT
ATOM      1  C   UNL     1       0.370  -4.690  -3.050  0.00  0.00    +0.140 A 
ATOM      2  C   UNL     1       0.039  -4.625  -4.388  0.00  0.00    +0.127 A 
ATOM      3  N   UNL     1      -1.047  -5.333  -4.847  0.00  0.00    -0.280 N 
ATOM      4  C   UNL     1      -1.780  -6.080  -4.000  0.00  0.00    +0.331 A 
ATOM      5  O   UNL     1      -2.736  -6.699  -4.425  0.00  0.00    -0.246 OA
ATOM      6  N   UNL     1      -1.473  -6.155  -2.693  0.00  0.00    -0.273 N 
ATOM      7  H   UNL     1      -2.016  -6.700  -2.103  0.00  0.00    +0.173 HD
ATOM      8  C   UNL     1      -0.415  -5.486  -2.194  0.00  0.00    +0.277 A 
ATOM      9  O   UNL     1      -0.142  -5.565  -1.008  0.00  0.00    -0.266 OA
ENDROOT
BRANCH   1  10
ATOM     10  N   UNL     1       1.478  -3.975  -2.549  0.00  0.00    -0.260 N 
ATOM     11  C   UNL     1       2.550  -4.641  -2.074  0.00  0.00    +0.258 C 
ATOM     12  O   UNL     1       2.605  -5.853  -2.169  0.00  0.00    -0.269 OA
BRANCH  11  13
ATOM     13  C   UNL     1       3.649  -3.904  -1.444  0.00  0.00    +0.075 A 
ATOM     14  C   UNL     1       4.877  -4.375  -1.003  0.00  0.00    +0.022 A 
ATOM     15  C   UNL     1       5.712  -3.436  -0.448  0.00  0.00    +0.024 A 
ATOM     16  C   UNL     1       5.294  -2.147  -0.368  0.00  0.00    +0.056 A 
ATOM     17  S   UNL     1       3.759  -2.169  -1.052  0.00  0.00    -0.077 S 
ATOM     18 BR   UNL     1       6.228  -0.664   0.342  0.00  0.00    -0.043 Br
ENDBRANCH  11  13
BRANCH  10  19
ATOM     19  C   UNL     1       1.465  -2.510  -2.545  0.00  0.00    +0.114 C 
BRANCH  19  20
ATOM     20  C   UNL     1       0.902  -2.009  -1.214  0.00  0.00    +0.019 C 
BRANCH  20  21
ATOM     21  C   UNL     1       0.888  -0.479  -1.210  0.00  0.00    +0.001 C 
BRANCH  21  23
ATOM     22  C   UNL     1       0.311   1.552   0.126  0.00  0.00    +0.004 C 
ATOM     23  C   UNL     1       0.325   0.022   0.122  0.00  0.00    -0.003 C 
ENDBRANCH  21  23
ENDBRANCH  20  21
ENDBRANCH  19  20
ENDBRANCH  10  19
ENDBRANCH   1  10
BRANCH   2  24
ATOM     24  N   UNL     1       0.787  -3.862  -5.253  0.00  0.00    -0.343 N 
ATOM     25  H   UNL     1       1.507  -3.308  -4.912  0.00  0.00    +0.144 HD
ATOM     26  H   UNL     1       0.595  -3.878  -6.204  0.00  0.00    +0.144 HD
ENDBRANCH   2  24
BRANCH   3  27
ATOM     27  C   UNL     1      -1.410  -5.273  -6.265  0.00  0.00    +0.128 C 
BRANCH  27  28
ATOM     28  C   UNL     1      -0.685  -6.387  -7.024  0.00  0.00    +0.021 C 
BRANCH  28  29
ATOM     29  C   UNL     1      -1.064  -6.324  -8.505  0.00  0.00    -0.002 C 
ATOM     30  C   UNL     1      -0.339  -7.437  -9.264  0.00  0.00    +0.004 C 
ENDBRANCH  28  29
ENDBRANCH  27  28
ENDBRANCH   3  27
TORSDOF 10
