REMARK  Name = ZINC20572367
REMARK  5 active torsions:
REMARK  status: ('A' for Active; 'I' for Inactive)
REMARK    1  A    between atoms: C_13  and  C_16
REMARK    2  A    between atoms: C_16  and  C_17
REMARK    3  A    between atoms: C_17  and  C_18
REMARK    4  A    between atoms: N_23  and  C_26
REMARK    5  A    between atoms: C_26  and  C_27
REMARK                            x       y       z     vdW  Elec       q    Type
REMARK                         _______ _______ _______ _____ _____    ______ ____
ROOT
ATOM      1  C   UNL     1       0.549   1.587  -0.037  0.00  0.00    +0.022 A 
ATOM      2  C   UNL     1       1.797   2.174   0.000  0.00  0.00    +0.025 A 
ATOM      3  C   UNL     1       2.942   1.381   0.023  0.00  0.00    +0.039 A 
ATOM      4  C   UNL     1       2.805  -0.004   0.008  0.00  0.00    +0.005 A 
ATOM      5  C   UNL     1       1.557  -0.585  -0.030  0.00  0.00    +0.027 A 
ATOM      6  C   UNL     1       0.423   0.210  -0.053  0.00  0.00    +0.041 A 
ATOM      7 CL   UNL     1      -1.151  -0.521  -0.101  0.00  0.00    -0.084 Cl
ATOM      8  C   UNL     1       4.202  -0.555   0.042  0.00  0.00    +0.136 C 
ATOM      9  C   UNL     1       4.490  -1.433  -1.182  0.00  0.00    +0.122 C 
ATOM     10  C   UNL     1       5.406  -2.567  -0.643  0.00  0.00    +0.107 C 
ATOM     11  C   UNL     1       5.605  -2.240   0.852  0.00  0.00    +0.068 C 
ATOM     12  N   UNL     1       4.413  -1.418   1.219  0.00  0.00    -0.295 NA
ATOM     13  C   UNL     1       4.551  -3.806  -0.788  0.00  0.00    +0.227 C 
ATOM     14  O   UNL     1       4.883  -4.927  -0.469  0.00  0.00    -0.275 OA
ATOM     15  N   UNL     1       3.372  -3.471  -1.324  0.00  0.00    -0.239 N 
ATOM     16  C   UNL     1       3.227  -2.154  -1.598  0.00  0.00    +0.228 C 
ATOM     17  O   UNL     1       2.252  -1.629  -2.091  0.00  0.00    -0.275 OA
ATOM     18  C   UNL     1       5.098   0.652   0.076  0.00  0.00    +0.243 C 
ATOM     19  O   UNL     1       6.311   0.652   0.110  0.00  0.00    -0.273 OA
ATOM     20  N   UNL     1       4.294   1.732   0.061  0.00  0.00    -0.283 N 
ATOM     21  H   UNL     1       4.600  -0.866   2.043  0.00  0.00    +0.123 HD
ATOM     22  H   UNL     1       4.616   2.647   0.075  0.00  0.00    +0.155 HD
ENDROOT
BRANCH  11  23
ATOM     23  C   UNL     1       5.624  -3.525   1.681  0.00  0.00    +0.028 C 
BRANCH  23  24
ATOM     24  C   UNL     1       5.947  -3.188   3.138  0.00  0.00    +0.097 C 
BRANCH  24  25
ATOM     25  C   UNL     1       5.965  -4.454   3.955  0.00  0.00    +0.211 C 
ATOM     26  O   UNL     1       5.743  -5.522   3.424  0.00  0.00    -0.276 OA
ATOM     27  N   UNL     1       6.229  -4.401   5.275  0.00  0.00    -0.329 N 
ATOM     28  H   UNL     1       6.407  -3.547   5.700  0.00  0.00    +0.145 HD
ATOM     29  H   UNL     1       6.242  -5.216   5.801  0.00  0.00    +0.145 HD
ENDBRANCH  24  25
ENDBRANCH  23  24
ENDBRANCH  11  23
BRANCH  15  30
ATOM     30  C   UNL     1       2.320  -4.453  -1.600  0.00  0.00    +0.148 C 
BRANCH  30  31
ATOM     31  C   UNL     1       2.415  -4.907  -3.058  0.00  0.00    +0.136 C 
ATOM     32  C   UNL     1       1.256  -5.873  -3.382  0.00  0.00    +0.035 C 
ATOM     33  C   UNL     1       1.949  -6.927  -4.288  0.00  0.00    +0.031 C 
ATOM     34  C   UNL     1       3.364  -6.970  -3.660  0.00  0.00    +0.160 C 
ATOM     35  O   UNL     1       3.642  -5.614  -3.267  0.00  0.00    -0.375 OA
ENDBRANCH  30  31
ENDBRANCH  15  30
TORSDOF 5
