REMARK  Name = ZINC58094295
REMARK  6 active torsions:
REMARK  status: ('A' for Active; 'I' for Inactive)
REMARK    1  A    between atoms: C_1  and  C_2
REMARK    2  A    between atoms: C_4  and  C_12
REMARK    3  A    between atoms: C_12  and  C_14
REMARK    4  A    between atoms: C_12  and  O_17
REMARK    5  A    between atoms: C_14  and  C_15
REMARK    6  A    between atoms: C_14  and  C_16
REMARK                            x       y       z     vdW  Elec       q    Type
REMARK                         _______ _______ _______ _____ _____    ______ ____
ROOT
ATOM      1  C   UNL     1      -0.018   1.503   0.010  0.00  0.00    +0.045 C 
ATOM      2  C   UNL     1       0.002  -0.004   0.002  0.00  0.00    -0.029 A 
ATOM      3  C   UNL     1       0.006  -0.686  -1.198  0.00  0.00    +0.011 A 
ATOM      4  C   UNL     1       0.024  -2.068  -1.216  0.00  0.00    -0.018 A 
ATOM      5  C   UNL     1       0.039  -2.773  -0.024  0.00  0.00    +0.012 A 
ATOM      6  C   UNL     1       0.036  -2.095   1.174  0.00  0.00    -0.017 A 
ATOM      7  C   UNL     1       0.023  -0.706   1.206  0.00  0.00    +0.040 A 
ATOM      8  N   UNL     1       0.029  -0.253   2.525  0.00  0.00    -0.285 N 
ATOM      9  C   UNL     1       0.052  -1.264   3.410  0.00  0.00    +0.222 C 
ATOM     10  O   UNL     1       0.062  -1.164   4.619  0.00  0.00    -0.275 OA
ATOM     11  C   UNL     1       0.049  -2.553   2.614  0.00  0.00    +0.133 C 
ATOM     12  H   UNL     1       0.019   0.684   2.776  0.00  0.00    +0.155 HD
ENDROOT
BRANCH   4  13
ATOM     13  C   UNL     1       0.027  -2.807  -2.530  0.00  0.00    +0.147 C 
BRANCH  13  14
ATOM     14  C   UNL     1       1.463  -2.928  -3.043  0.00  0.00    +0.016 C 
ATOM     15  C   UNL     1       2.306  -3.697  -2.024  0.00  0.00    +0.010 C 
ATOM     16  C   UNL     1       1.466  -3.677  -4.377  0.00  0.00    +0.010 C 
ENDBRANCH  13  14
BRANCH  13  17
ATOM     17  O   UNL     1      -0.761  -2.088  -3.481  0.00  0.00    -0.387 OA
ATOM     18  H   UNL     1      -0.444  -1.192  -3.657  0.00  0.00    +0.210 HD
ENDBRANCH  13  17
ENDBRANCH   4  13
TORSDOF 3
