REMARK  Name = ZINC00253299
REMARK  6 active torsions:
REMARK  status: ('A' for Active; 'I' for Inactive)
REMARK    1  A    between atoms: C_5  and  C_7
REMARK    2  A    between atoms: N_8  and  N_9
REMARK    3  A    between atoms: C_10  and  C_12
REMARK    4  A    between atoms: C_14  and  O_20
REMARK    5  A    between atoms: C_15  and  O_19
REMARK    6  A    between atoms: C_16  and  O_18
REMARK                            x       y       z     vdW  Elec       q    Type
REMARK                         _______ _______ _______ _____ _____    ______ ____
ROOT
ATOM      1  N   UNL     1       3.597   5.954  -0.000  0.00  0.00    -0.203 N 
ATOM      2  C   UNL     1       3.574   7.301   0.007  0.00  0.00    +0.263 C 
ATOM      3  O   UNL     1       2.510   7.891   0.019  0.00  0.00    -0.268 OA
ATOM      4  H   UNL     1       4.445   5.483  -0.010  0.00  0.00    +0.178 HD
ENDROOT
BRANCH   2   5
ATOM      5  C   UNL     1       4.839   8.061  -0.001  0.00  0.00    +0.045 A 
ATOM      6  C   UNL     1       6.061   7.384  -0.009  0.00  0.00    +0.062 A 
ATOM      7  C   UNL     1       7.245   8.098  -0.022  0.00  0.00    +0.163 A 
ATOM      8  C   UNL     1       7.220   9.490  -0.015  0.00  0.00    +0.201 A 
ATOM      9  C   UNL     1       6.003  10.167  -0.001  0.00  0.00    +0.163 A 
ATOM     10  C   UNL     1       4.817   9.458   0.006  0.00  0.00    +0.062 A 
BRANCH   9  11
ATOM     11  O   UNL     1       5.982  11.527   0.007  0.00  0.00    -0.503 OA
ATOM     12  H   UNL     1       5.984  11.915   0.892  0.00  0.00    +0.292 HD
ENDBRANCH   9  11
BRANCH   8  13
ATOM     13  O   UNL     1       8.385  10.190  -0.022  0.00  0.00    -0.501 OA
ATOM     14  H   UNL     1       8.730  10.388   0.859  0.00  0.00    +0.292 HD
ENDBRANCH   8  13
BRANCH   7  15
ATOM     15  O   UNL     1       8.435   7.440  -0.037  0.00  0.00    -0.503 OA
ATOM     16  H   UNL     1       8.788   7.245   0.842  0.00  0.00    +0.292 HD
ENDBRANCH   7  15
ENDBRANCH   2   5
BRANCH   1  18
ATOM     17  C   UNL     1       2.418   3.935   0.000  0.00  0.00    +0.141 C 
ATOM     18  N   UNL     1       2.396   5.233   0.007  0.00  0.00    -0.187 NA
BRANCH  17  23
ATOM     19  C   UNL     1      -0.013   1.076   0.008  0.00  0.00    +0.001 A 
ATOM     20  C   UNL     1      -1.222   1.749   0.017  0.00  0.00    +0.003 A 
ATOM     21  C   UNL     1      -1.251   3.132   0.030  0.00  0.00    +0.039 A 
ATOM     22  C   UNL     1      -0.071   3.851   0.022  0.00  0.00    +0.132 A 
ATOM     23  C   UNL     1       1.154   3.176   0.008  0.00  0.00    +0.030 A 
ATOM     24  C   UNL     1       1.173   1.779   0.000  0.00  0.00    +0.012 A 
ATOM     25  F   UNL     1      -0.101   5.202   0.029  0.00  0.00    -0.205 F 
ENDBRANCH  17  23
ENDBRANCH   1  18
TORSDOF 6
