REMARK  Name = ZINC40516835
REMARK  2 active torsions:
REMARK  status: ('A' for Active; 'I' for Inactive)
REMARK    1  A    between atoms: C_1  and  C_2
REMARK    2  A    between atoms: C_6  and  N_8
REMARK                            x       y       z     vdW  Elec       q    Type
REMARK                         _______ _______ _______ _____ _____    ______ ____
ROOT
ATOM      1  N   UNL     1       0.049  -2.639   2.420  0.00  0.00    -0.220 N 
ATOM      2  C   UNL     1       0.041  -2.042   3.641  0.00  0.00    +0.118 A 
ATOM      3  C   UNL     1       0.060  -3.019   4.576  0.00  0.00    +0.065 A 
ATOM      4  C   UNL     1       0.080  -4.256   3.909  0.00  0.00    +0.139 A 
ATOM      5  N   UNL     1       0.068  -4.025   2.617  0.00  0.00    -0.150 NA
ATOM      6  N   UNL     1       0.103  -5.515   4.517  0.00  0.00    -0.342 N 
ATOM      7  H   UNL     1       0.106  -5.586   5.485  0.00  0.00    +0.144 HD
ATOM      8  H   UNL     1       0.116  -6.317   3.972  0.00  0.00    +0.144 HD
ENDROOT
BRANCH   1  14
ATOM      9  C   UNL     1      -0.018   1.503   0.010  0.00  0.00    +0.065 C 
ATOM     10  C   UNL     1       0.002  -0.004   0.002  0.00  0.00    +0.041 A 
ATOM     11  C   UNL     1       0.005  -0.679  -1.203  0.00  0.00    +0.023 A 
ATOM     12  C   UNL     1       0.024  -2.067  -1.204  0.00  0.00    +0.005 A 
ATOM     13  C   UNL     1       0.039  -2.728   0.012  0.00  0.00    +0.048 A 
ATOM     14  C   UNL     1       0.035  -1.984   1.186  0.00  0.00    +0.154 A 
ATOM     15  N   UNL     1       0.022  -0.661   1.145  0.00  0.00    -0.233 NA
ENDBRANCH   1  14
TORSDOF 1
