REMARK  Name = ZINC43743499
REMARK  9 active torsions:
REMARK  status: ('A' for Active; 'I' for Inactive)
REMARK    1  A    between atoms: C_1  and  C_2
REMARK    2  A    between atoms: C_9  and  C_14
REMARK    3  A    between atoms: C_14  and  N_15
REMARK    4  A    between atoms: C_21  and  O_37
REMARK    5  A    between atoms: C_23  and  C_36
REMARK    6  A    between atoms: C_26  and  O_32
REMARK    7  A    between atoms: C_29  and  O_31
REMARK    8  A    between atoms: O_32  and  C_33
REMARK    9  A    between atoms: C_33  and  C_35
REMARK                            x       y       z     vdW  Elec       q    Type
REMARK                         _______ _______ _______ _____ _____    ______ ____
ROOT
ATOM      1  C   UNL     1      -0.100   1.840   0.522  0.00  0.00    +0.008 C 
ATOM      2  C   UNL     1      -0.244   0.311   0.478  0.00  0.00    -0.003 C 
ATOM      3  C   UNL     1      -1.707  -0.077   0.747  0.00  0.00    +0.048 C 
ATOM      4  C   UNL     1      -1.978  -1.393   0.137  0.00  0.00    +0.183 C 
ATOM      5  C   UNL     1      -1.558  -2.704   0.744  0.00  0.00    +0.071 C 
ATOM      6  C   UNL     1      -2.023  -3.671  -0.386  0.00  0.00    +0.090 C 
ATOM      7  C   UNL     1      -3.053  -2.852  -1.151  0.00  0.00    +0.309 C 
ATOM      8  O   UNL     1      -3.653  -3.219  -2.134  0.00  0.00    -0.251 OA
ATOM      9  O   UNL     1      -3.191  -1.640  -0.550  0.00  0.00    -0.461 OA
ATOM     10  C   UNL     1      -0.047  -2.805   0.930  0.00  0.00    +0.131 C 
ATOM     11  C   UNL     1       0.500  -1.778   1.821  0.00  0.00    +0.027 C 
ATOM     12  C   UNL     1       0.741  -0.351   1.403  0.00  0.00    +0.044 C 
ATOM     13  C   UNL     1       1.187   0.364   2.676  0.00  0.00    +0.183 C 
ATOM     14  C   UNL     1       1.862  -0.749   3.523  0.00  0.00    +0.077 C 
ATOM     15  C   UNL     1       1.703  -2.075   2.725  0.00  0.00    +0.127 C 
ATOM     16  C   UNL     1      -0.522  -1.682   2.936  0.00  0.00    +0.017 C 
ENDROOT
BRANCH  15  17
ATOM     17  O   UNL     1       2.858  -2.341   1.934  0.00  0.00    -0.391 OA
ATOM     18  H   UNL     1       3.652  -2.536   2.450  0.00  0.00    +0.210 HD
ENDBRANCH  15  17
BRANCH  10  19
ATOM     19  O   UNL     1       0.287  -4.103   1.448  0.00  0.00    -0.391 OA
ATOM     20  H   UNL     1       0.338  -4.794   0.773  0.00  0.00    +0.210 HD
ENDBRANCH  10  19
BRANCH   6  21
ATOM     21  C   UNL     1      -2.666  -4.919   0.220  0.00  0.00    -0.064 C 
BRANCH  21  22
ATOM     22  N   UNL     1      -1.631  -5.740   0.861  0.00  0.00    +0.380 N 
ATOM     23  C   UNL     1      -0.729  -6.277  -0.165  0.00  0.00    -0.079 C 
ATOM     24  C   UNL     1       0.398  -7.067   0.504  0.00  0.00    -0.019 C 
ATOM     25  C   UNL     1      -0.203  -8.221   1.311  0.00  0.00    -0.004 C 
ATOM     26  C   UNL     1      -1.198  -7.655   2.328  0.00  0.00    -0.019 C 
ATOM     27  C   UNL     1      -2.266  -6.843   1.592  0.00  0.00    -0.079 C 
ATOM     28  H   UNL     1      -1.102  -5.171   1.506  0.00  0.00    -0.082 HD
ENDBRANCH  21  22
ENDBRANCH   6  21
BRANCH  13  29
ATOM     29  O   UNL     1       0.124   0.984   3.384  0.00  0.00    -0.461 OA
BRANCH  29  30
ATOM     30  C   UNL     1       0.423   2.084   4.092  0.00  0.00    +0.304 C 
ATOM     31  O   UNL     1       1.556   2.503   4.107  0.00  0.00    -0.251 OA
ATOM     32  C   UNL     1      -0.654   2.796   4.870  0.00  0.00    +0.136 C 
ENDBRANCH  29  30
ENDBRANCH  13  29
TORSDOF 6
