REMARK  Name = ZINC41161466
REMARK  5 active torsions:
REMARK  status: ('A' for Active; 'I' for Inactive)
REMARK    1  A    between atoms: C_1  and  C_2
REMARK    2  A    between atoms: C_2  and  C_3
REMARK    3  A    between atoms: C_3  and  C_4
REMARK    4  A    between atoms: C_8  and  C_10
REMARK    5  A    between atoms: C_11  and  C_16
REMARK                            x       y       z     vdW  Elec       q    Type
REMARK                         _______ _______ _______ _____ _____    ______ ____
ROOT
ATOM      1  C   UNL     1      -1.413  -2.041   0.005  0.00  0.00    +0.125 A 
ATOM      2  N   UNL     1      -1.303  -2.834   1.084  0.00  0.00    -0.262 N 
ATOM      3  H   UNL     1      -1.222  -2.551   2.008  0.00  0.00    +0.190 HD
ATOM      4  N   UNL     1      -1.328  -4.155   0.607  0.00  0.00    -0.156 NA
ATOM      5  C   UNL     1      -1.449  -4.086  -0.693  0.00  0.00    +0.168 A 
ATOM      6  N   UNL     1      -1.505  -2.804  -1.054  0.00  0.00    -0.215 NA
ENDROOT
BRANCH   5   7
ATOM      7  C   UNL     1      -1.518  -5.263  -1.630  0.00  0.00    +0.148 C 
ATOM      8  C   UNL     1      -0.153  -5.897  -1.808  0.00  0.00    -0.050 C 
ATOM      9  C   UNL     1      -0.014  -7.133  -1.425  0.00  0.00    +0.034 C 
ATOM     10  C   UNL     1      -1.160  -7.861  -0.845  0.00  0.00    +0.089 C 
ATOM     11  S   UNL     1      -2.471  -6.647  -0.881  0.00  0.00    -0.091 S 
ATOM     12  N   UNL     1      -1.205  -9.091  -0.411  0.00  0.00    -0.293 NA
ATOM     13  C   UNL     1       0.997  -5.128  -2.404  0.00  0.00    +0.041 C 
ATOM     14  H   UNL     1      -0.412  -9.648  -0.450  0.00  0.00    +0.187 HD
ENDBRANCH   5   7
BRANCH   1  15
ATOM     15  C   UNL     1      -1.433  -0.534   0.013  0.00  0.00    +0.075 C 
BRANCH  15  17
ATOM     16  C   UNL     1      -0.019   1.526   0.010  0.00  0.00    +0.004 C 
ATOM     17  C   UNL     1       0.002  -0.004   0.002  0.00  0.00    +0.004 C 
ENDBRANCH  15  17
ENDBRANCH   1  15
TORSDOF 3
