REMARK  Name = ZINC12196309
REMARK  11 active torsions:
REMARK  status: ('A' for Active; 'I' for Inactive)
REMARK    1  A    between atoms: C_1  and  C_2
REMARK    2  A    between atoms: C_3  and  C_4
REMARK    3  A    between atoms: C_4  and  N_5
REMARK    4  A    between atoms: C_8  and  C_12
REMARK    5  A    between atoms: C_8  and  C_21
REMARK    6  A    between atoms: C_12  and  C_13
REMARK    7  A    between atoms: C_13  and  C_14
REMARK    8  A    between atoms: C_14  and  C_15
REMARK    9  A    between atoms: C_26  and  C_27
REMARK   10  A    between atoms: C_26  and  N_67
REMARK   11  A    between atoms: C_32  and  O_33
REMARK                            x       y       z     vdW  Elec       q    Type
REMARK                         _______ _______ _______ _____ _____    ______ ____
ROOT
ATOM      1  N   UNL     1      -1.232   1.929   4.583  0.00  0.00    -0.212 N 
ATOM      2  C   UNL     1      -0.234   2.597   5.195  0.00  0.00    +0.248 C 
ATOM      3  O   UNL     1       0.229   3.672   4.880  0.00  0.00    -0.273 OA
ATOM      4  C   UNL     1       0.188   1.725   6.361  0.00  0.00    +0.115 C 
ATOM      5  N   UNL     1      -0.704   0.557   6.261  0.00  0.00    -0.285 N 
ATOM      6  C   UNL     1      -1.499   0.770   5.196  0.00  0.00    +0.310 C 
ATOM      7  O   UNL     1      -2.361  -0.005   4.831  0.00  0.00    -0.252 OA
ATOM      8  H   UNL     1      -0.718  -0.214   6.849  0.00  0.00    +0.151 HD
ENDROOT
BRANCH   4   9
ATOM      9  C   UNL     1       1.651   1.302   6.215  0.00  0.00    +0.018 C 
ATOM     10  C   UNL     1       2.553   2.536   6.319  0.00  0.00    -0.013 C 
ATOM     11  C   UNL     1       4.010   2.116   6.109  0.00  0.00    -0.078 C 
ATOM     12  C   UNL     1       3.336   0.275   4.685  0.00  0.00    -0.078 C 
ATOM     13  C   UNL     1       1.859   0.640   4.850  0.00  0.00    -0.013 C 
ATOM     14  N   UNL     1       4.147   1.508   4.769  0.00  0.00    +0.382 N 
ATOM     15  H   UNL     1       3.812   2.176   4.064  0.00  0.00    -0.081 HD
BRANCH  14  16
ATOM     16  C   UNL     1       5.566   1.198   4.499  0.00  0.00    -0.039 C 
BRANCH  16  17
ATOM     17  C   UNL     1       6.331   2.491   4.374  0.00  0.00    -0.022 A 
ATOM     18  C   UNL     1       6.628   3.001   3.125  0.00  0.00    +0.005 A 
ATOM     19  C   UNL     1       7.324   4.189   3.010  0.00  0.00    +0.000 A 
ATOM     20  C   UNL     1       7.735   4.865   4.144  0.00  0.00    +0.004 A 
ATOM     21  C   UNL     1       7.445   4.357   5.395  0.00  0.00    +0.045 A 
ATOM     22  C   UNL     1       6.741   3.167   5.513  0.00  0.00    +0.118 A 
BRANCH  22  23
ATOM     23  O   UNL     1       6.455   2.665   6.743  0.00  0.00    -0.507 OA
ATOM     24  H   UNL     1       7.133   2.070   7.092  0.00  0.00    +0.292 HD
ENDBRANCH  22  23
ENDBRANCH  16  17
ENDBRANCH  14  16
ENDBRANCH   4   9
BRANCH   1  25
ATOM     25  C   UNL     1      -1.940   2.414   3.396  0.00  0.00    +0.206 C 
BRANCH  25  28
ATOM     26  C   UNL     1      -0.013   1.086   0.008  0.00  0.00    +0.106 C 
ATOM     27  C   UNL     1      -0.702   1.560   1.219  0.00  0.00    -0.104 C 
ATOM     28  C   UNL     1      -1.251   1.939   2.185  0.00  0.00    -0.083 C 
ENDBRANCH  25  28
ENDBRANCH   1  25
BRANCH   4  29
ATOM     29  C   UNL     1      -0.029   2.456   7.687  0.00  0.00    +0.036 C 
BRANCH  29  30
ATOM     30  C   UNL     1      -1.524   2.709   7.890  0.00  0.00    +0.007 C 
BRANCH  30  31
ATOM     31  C   UNL     1      -1.742   3.441   9.216  0.00  0.00    +0.035 C 
BRANCH  31  32
ATOM     32  C   UNL     1      -3.215   3.691   9.416  0.00  0.00    -0.047 A 
ATOM     33  C   UNL     1      -3.788   4.859   8.950  0.00  0.00    +0.003 A 
ATOM     34  C   UNL     1      -5.139   5.086   9.130  0.00  0.00    +0.000 A 
ATOM     35  C   UNL     1      -5.916   4.149   9.784  0.00  0.00    +0.000 A 
ATOM     36  C   UNL     1      -5.343   2.982  10.255  0.00  0.00    +0.000 A 
ATOM     37  C   UNL     1      -3.992   2.754  10.072  0.00  0.00    +0.003 A 
ENDBRANCH  31  32
ENDBRANCH  30  31
ENDBRANCH  29  30
ENDBRANCH   4  29
TORSDOF 10
