REMARK  Name = ZINC63176414
REMARK  5 active torsions:
REMARK  status: ('A' for Active; 'I' for Inactive)
REMARK    1  A    between atoms: C_3  and  S_11
REMARK    2  A    between atoms: C_6  and  N_7
REMARK    3  A    between atoms: S_11  and  N_14
REMARK    4  A    between atoms: N_14  and  C_15
REMARK    5  A    between atoms: C_20  and  N_22
REMARK                            x       y       z     vdW  Elec       q    Type
REMARK                         _______ _______ _______ _____ _____    ______ ____
ROOT
ATOM      1  S   UNL     1       3.890   2.317  -0.024  0.00  0.00    +0.061 S 
ATOM      2  O   UNL     1       4.688   1.761  -1.061  0.00  0.00    -0.153 OA
ATOM      3  O   UNL     1       3.541   3.694   0.013  0.00  0.00    -0.153 OA
ENDROOT
BRANCH   1   6
ATOM      4  C   UNL     1      -0.017   1.378   0.010  0.00  0.00    +0.035 A 
ATOM      5  C   UNL     1       1.171   2.087   0.002  0.00  0.00    +0.033 A 
ATOM      6  C   UNL     1       2.377   1.414  -0.013  0.00  0.00    +0.140 A 
ATOM      7  C   UNL     1       2.397   0.029  -0.021  0.00  0.00    +0.152 A 
ATOM      8  C   UNL     1       1.208  -0.679  -0.013  0.00  0.00    +0.073 A 
ATOM      9  C   UNL     1       0.002  -0.004   0.002  0.00  0.00    +0.129 A 
ATOM     10  F   UNL     1       3.577  -0.630  -0.037  0.00  0.00    -0.203 F 
BRANCH   9  11
ATOM     11  N   UNL     1      -1.270  -0.761   0.011  0.00  0.00    +0.057 N 
ATOM     12  O   UNL     1      -2.325  -0.171   0.024  0.00  0.00    -0.126 OA
ATOM     13  O   UNL     1      -1.254  -1.970   0.004  0.00  0.00    -0.126 OA
ENDBRANCH   9  11
ENDBRANCH   1   6
BRANCH   1  14
ATOM     14  N   UNL     1       4.668   1.987   1.400  0.00  0.00    -0.188 NA
ATOM     15  H   UNL     1       4.812   2.693   2.049  0.00  0.00    +0.148 HD
BRANCH  14  16
ATOM     16  C   UNL     1       5.137   0.628   1.680  0.00  0.00    +0.062 C 
ATOM     17  C   UNL     1       4.108  -0.116   2.557  0.00  0.00    +0.019 C 
ATOM     18  C   UNL     1       4.974  -0.973   3.514  0.00  0.00    -0.000 C 
ATOM     19  C   UNL     1       6.168  -0.037   3.825  0.00  0.00    -0.015 C 
ATOM     20  C   UNL     1       6.447   0.678   2.485  0.00  0.00    -0.056 C 
BRANCH  20  21
ATOM     21  N   UNL     1       6.834   2.074   2.731  0.00  0.00    +0.381 N 
ATOM     22  H   UNL     1       6.106   2.538   3.253  0.00  0.00    -0.090 HD
ATOM     23  H   UNL     1       7.693   2.097   3.259  0.00  0.00    -0.090 HD
ATOM     24  H   UNL     1       6.968   2.546   1.849  0.00  0.00    -0.090 HD
ENDBRANCH  20  21
ENDBRANCH  14  16
ENDBRANCH   1  14
TORSDOF 5
