REMARK  Name = ZINC42407232
REMARK  7 active torsions:
REMARK  status: ('A' for Active; 'I' for Inactive)
REMARK    1  A    between atoms: C_1  and  C_2
REMARK    2  A    between atoms: C_2  and  C_3
REMARK    3  A    between atoms: C_3  and  C_4
REMARK    4  A    between atoms: C_4  and  C_5
REMARK    5  A    between atoms: C_4  and  C_6
REMARK    6  A    between atoms: C_4  and  N_9
REMARK    7  A    between atoms: C_17  and  C_19
REMARK                            x       y       z     vdW  Elec       q    Type
REMARK                         _______ _______ _______ _____ _____    ______ ____
ROOT
ATOM      1  N   UNL     1       0.825  -2.564  -2.741  0.00  0.00    -0.284 N 
ATOM      2  C   UNL     1       1.165  -3.862  -2.870  0.00  0.00    +0.304 C 
ATOM      3  O   UNL     1       0.833  -4.665  -2.020  0.00  0.00    -0.253 OA
ATOM      4  N   UNL     1       1.872  -4.269  -3.943  0.00  0.00    -0.274 N 
ATOM      5  C   UNL     1       2.373  -3.296  -4.923  0.00  0.00    +0.110 C 
ATOM      6  C   UNL     1       3.881  -3.503  -5.096  0.00  0.00    +0.019 C 
ATOM      7  C   UNL     1       4.153  -4.963  -5.465  0.00  0.00    +0.004 C 
ATOM      8  C   UNL     1       3.668  -5.875  -4.336  0.00  0.00    +0.032 C 
ATOM      9  C   UNL     1       2.162  -5.695  -4.151  0.00  0.00    +0.163 C 
ATOM     10  H   UNL     1       1.149  -1.912  -3.382  0.00  0.00    +0.151 HD
ENDROOT
BRANCH   9  11
ATOM     11  C   UNL     1       1.705  -6.484  -2.951  0.00  0.00    +0.231 C 
ATOM     12  O   UNL     1       2.240  -6.316  -1.875  0.00  0.00    -0.274 OA
ATOM     13  N   UNL     1       0.702  -7.375  -3.073  0.00  0.00    -0.328 N 
ATOM     14  H   UNL     1       0.274  -7.509  -3.933  0.00  0.00    +0.145 HD
ATOM     15  H   UNL     1       0.407  -7.883  -2.300  0.00  0.00    +0.145 HD
ENDBRANCH   9  11
BRANCH   1  16
ATOM     16  C   UNL     1      -0.033  -2.139  -1.632  0.00  0.00    +0.134 C 
ATOM     17  C   UNL     1      -1.376  -2.866  -1.719  0.00  0.00    +0.044 C 
BRANCH  16  18
ATOM     18  C   UNL     1       0.636  -2.473  -0.323  0.00  0.00    +0.379 C 
ATOM     19  O   UNL     1       0.085  -2.200   0.730  0.00  0.00    -0.244 OA
ATOM     20  O   UNL     1       1.727  -3.015  -0.317  0.00  0.00    -0.244 OA
ENDBRANCH  16  18
BRANCH  16  21
ATOM     21  C   UNL     1      -0.264  -0.629  -1.716  0.00  0.00    +0.037 C 
BRANCH  21  23
ATOM     22  C   UNL     1      -1.390   1.326  -0.642  0.00  0.00    +0.004 C 
ATOM     23  C   UNL     1      -1.159  -0.184  -0.558  0.00  0.00    -0.001 C 
ENDBRANCH  21  23
ENDBRANCH  16  21
ENDBRANCH   1  16
TORSDOF 5
