REMARK  Name = ZINC19974053
REMARK  3 active torsions:
REMARK  status: ('A' for Active; 'I' for Inactive)
REMARK    1  A    between atoms: C_4  and  C_7
REMARK    2  A    between atoms: C_8  and  C_9
REMARK    3  A    between atoms: C_12  and  N_18
REMARK                            x       y       z     vdW  Elec       q    Type
REMARK                         _______ _______ _______ _____ _____    ______ ____
ROOT
ATOM      1  C   UNL     1      -0.761   1.597  -1.227  0.00  0.00    +0.021 C 
ATOM      2  C   UNL     1      -0.902   3.118  -1.143  0.00  0.00    +0.030 C 
ATOM      3  C   UNL     1      -1.760   3.493   0.067  0.00  0.00    +0.080 C 
ATOM      4  C   UNL     1      -1.049   3.053   1.351  0.00  0.00    +0.096 C 
ATOM      5  C   UNL     1      -0.728   1.577   1.247  0.00  0.00    +0.136 C 
ATOM      6  O   UNL     1      -1.040   0.812   2.127  0.00  0.00    -0.297 OA
ATOM      7  C   UNL     1      -0.013   1.086   0.008  0.00  0.00    +0.082 C 
ENDROOT
BRANCH   3   8
ATOM      8  N   UNL     1      -3.058   2.821  -0.027  0.00  0.00    -0.320 N 
ATOM      9  C   UNL     1      -4.168   3.361   0.613  0.00  0.00    +0.204 A 
ATOM     10  C   UNL     1      -5.523   2.798   0.604  0.00  0.00    +0.202 A 
ATOM     11  N   UNL     1      -6.295   3.577   1.309  0.00  0.00    -0.032 NA
ATOM     12  O   UNL     1      -5.506   4.648   1.795  0.00  0.00    -0.239 OA
ATOM     13  N   UNL     1      -4.183   4.451   1.328  0.00  0.00    -0.032 NA
ATOM     14  N   UNL     1      -5.917   1.633  -0.046  0.00  0.00    -0.338 N 
ATOM     15  H   UNL     1      -3.155   1.889  -0.604  0.00  0.00    +0.148 HD
ATOM     16  H   UNL     1      -6.963   1.298   0.011  0.00  0.00    +0.144 HD
ATOM     17  H   UNL     1      -5.182   1.047  -0.618  0.00  0.00    +0.144 HD
ENDBRANCH   3   8
BRANCH   1  19
ATOM     18  C   UNL     1      -0.548   0.464  -3.394  0.00  0.00    +0.004 C 
ATOM     19  C   UNL     1       0.010   1.232  -2.469  0.00  0.00    -0.022 C 
BRANCH  18  23
ATOM     20  C   UNL     1       1.625  -0.565  -6.895  0.00  0.00    +0.000 A 
ATOM     21  C   UNL     1       0.335  -1.033  -6.723  0.00  0.00    +0.001 A 
ATOM     22  C   UNL     1      -0.376  -0.702  -5.588  0.00  0.00    +0.008 A 
ATOM     23  C   UNL     1       0.208   0.106  -4.613  0.00  0.00    -0.025 A 
ATOM     24  C   UNL     1       1.508   0.579  -4.795  0.00  0.00    +0.008 A 
ATOM     25  C   UNL     1       2.211   0.237  -5.931  0.00  0.00    +0.001 A 
ENDBRANCH  18  23
ENDBRANCH   1  19
TORSDOF 3
