REMARK  Name = ZINC38685580
REMARK  2 active torsions:
REMARK  status: ('A' for Active; 'I' for Inactive)
REMARK    1  A    between atoms: C_3  and  C_6
REMARK    2  A    between atoms: C_14  and  C_19
REMARK                            x       y       z     vdW  Elec       q    Type
REMARK                         _______ _______ _______ _____ _____    ______ ____
ROOT
ATOM      1  C   UNL     1       3.727   1.669  -0.044  0.00  0.00    +0.255 C 
ATOM      2  O   UNL     1       3.632   2.451  -0.975  0.00  0.00    -0.269 OA
ATOM      3  N   UNL     1       4.702   0.747  -0.039  0.00  0.00    -0.281 N 
ATOM      4  C   UNL     1       5.973   1.122  -0.150  0.00  0.00    +0.036 C 
ATOM      5  C   UNL     1       6.310   2.550  -0.139  0.00  0.00    +0.025 C 
ATOM      6  C   UNL     1       7.589   2.949  -0.250  0.00  0.00    +0.031 C 
ATOM      7  C   UNL     1       8.655   1.935  -0.382  0.00  0.00    +0.084 C 
ATOM      8  N   UNL     1       9.946   2.057  -0.503  0.00  0.00    -0.250 NA
ATOM      9  C   UNL     1      10.544   0.723  -0.601  0.00  0.00    +0.276 C 
ATOM     10  N   UNL     1       9.439  -0.242  -0.524  0.00  0.00    -0.215 NA
ATOM     11  C   UNL     1       8.284   0.503  -0.390  0.00  0.00    +0.077 C 
ATOM     12  C   UNL     1       6.980   0.142  -0.271  0.00  0.00    +0.050 C 
ATOM     13  H   UNL     1       4.479  -0.194   0.045  0.00  0.00    +0.155 HD
ENDROOT
BRANCH   9  14
ATOM     14  C   UNL     1      11.503   0.503   0.541  0.00  0.00    +0.150 A 
ATOM     15  C   UNL     1      12.234   1.454   1.148  0.00  0.00    +0.050 A 
ATOM     16  C   UNL     1      12.988   0.810   2.157  0.00  0.00    +0.057 A 
ATOM     17  C   UNL     1      12.672  -0.497   2.105  0.00  0.00    +0.170 A 
ATOM     18  O   UNL     1      11.768  -0.676   1.128  0.00  0.00    -0.449 OA
ATOM     19 BR   UNL     1      13.376  -1.850   3.223  0.00  0.00    -0.008 Br
ENDBRANCH   9  14
BRANCH   1  22
ATOM     20  C   UNL     1       0.986   2.420   2.416  0.00  0.00    +0.008 A 
ATOM     21  C   UNL     1       1.707   2.602   1.260  0.00  0.00    +0.021 A 
ATOM     22  C   UNL     1       2.774   1.736   1.072  0.00  0.00    +0.074 A 
ATOM     23  S   UNL     1       2.688   0.726   2.538  0.00  0.00    -0.092 S 
ATOM     24  C   UNL     1       1.354   1.435   3.273  0.00  0.00    +0.046 A 
ENDBRANCH   1  22
TORSDOF 2
