REMARK  Name = ZINC02424446
REMARK  7 active torsions:
REMARK  status: ('A' for Active; 'I' for Inactive)
REMARK    1  A    between atoms: C_4  and  C_7
REMARK    2  A    between atoms: C_7  and  C_8
REMARK    3  A    between atoms: C_8  and  C_9
REMARK    4  A    between atoms: C_9  and  N_10
REMARK    5  A    between atoms: C_11  and  N_32
REMARK    6  A    between atoms: C_12  and  S_23
REMARK    7  A    between atoms: S_23  and  C_26
REMARK                            x       y       z     vdW  Elec       q    Type
REMARK                         _______ _______ _______ _____ _____    ______ ____
ROOT
ATOM      1  N   UNL     1      -0.017   1.368   0.010  0.00  0.00    -0.311 N 
ATOM      2  C   UNL     1       0.002  -0.004   0.002  0.00  0.00    +0.126 A 
ATOM      3  C   UNL     1       1.275  -0.465  -0.013  0.00  0.00    +0.160 A 
ATOM      4  C   UNL     1       2.146   0.651  -0.015  0.00  0.00    +0.135 A 
ATOM      5  C   UNL     1       1.280   1.837  -0.000  0.00  0.00    +0.163 A 
ATOM      6  N   UNL     1       1.818   3.035   0.002  0.00  0.00    -0.226 NA
ATOM      7  C   UNL     1       3.151   3.168  -0.010  0.00  0.00    +0.092 A 
ATOM      8  C   UNL     1       3.736   4.448  -0.008  0.00  0.00    +0.030 A 
ATOM      9  C   UNL     1       5.090   4.574  -0.019  0.00  0.00    +0.002 A 
ATOM     10  C   UNL     1       5.915   3.450  -0.034  0.00  0.00    +0.002 A 
ATOM     11  C   UNL     1       5.387   2.197  -0.036  0.00  0.00    +0.030 A 
ATOM     12  C   UNL     1       3.989   2.025  -0.024  0.00  0.00    +0.090 A 
ATOM     13  N   UNL     1       3.461   0.796  -0.026  0.00  0.00    -0.240 NA
ENDROOT
BRANCH   3  14
ATOM     14  S   UNL     1       1.762  -2.158  -0.026  0.00  0.00    +0.030 S 
ATOM     15  O   UNL     1       3.077  -2.207   0.512  0.00  0.00    -0.164 OA
ATOM     16  O   UNL     1       0.683  -2.896   0.532  0.00  0.00    -0.164 OA
BRANCH  14  17
ATOM     17  C   UNL     1       1.890  -2.650  -1.713  0.00  0.00    +0.094 A 
ATOM     18  C   UNL     1       0.792  -3.180  -2.364  0.00  0.00    +0.027 A 
ATOM     19  C   UNL     1       0.891  -3.561  -3.688  0.00  0.00    +0.002 A 
ATOM     20  C   UNL     1       2.091  -3.423  -4.360  0.00  0.00    +0.000 A 
ATOM     21  C   UNL     1       3.191  -2.898  -3.708  0.00  0.00    +0.002 A 
ATOM     22  C   UNL     1       3.091  -2.512  -2.384  0.00  0.00    +0.027 A 
ENDBRANCH  14  17
ENDBRANCH   3  14
BRANCH   2  23
ATOM     23  N   UNL     1      -1.125  -0.806   0.008  0.00  0.00    -0.343 N 
ATOM     24  H   UNL     1      -2.007  -0.403   0.018  0.00  0.00    +0.144 HD
ATOM     25  H   UNL     1      -1.033  -1.772   0.002  0.00  0.00    +0.144 HD
ENDBRANCH   2  23
BRANCH   1  26
ATOM     26  C   UNL     1      -1.221   2.202   0.020  0.00  0.00    +0.125 C 
BRANCH  26  27
ATOM     27  C   UNL     1      -1.634   2.484   1.466  0.00  0.00    +0.026 C 
BRANCH  27  28
ATOM     28  C   UNL     1      -2.892   3.354   1.477  0.00  0.00    +0.037 C 
BRANCH  28  32
ATOM     29  C   UNL     1      -4.043   4.143   5.514  0.00  0.00    +0.000 A 
ATOM     30  C   UNL     1      -3.176   5.000   4.863  0.00  0.00    +0.000 A 
ATOM     31  C   UNL     1      -2.803   4.744   3.557  0.00  0.00    +0.003 A 
ATOM     32  C   UNL     1      -3.298   3.632   2.901  0.00  0.00    -0.047 A 
ATOM     33  C   UNL     1      -4.170   2.778   3.551  0.00  0.00    +0.003 A 
ATOM     34  C   UNL     1      -4.539   3.031   4.859  0.00  0.00    +0.000 A 
ENDBRANCH  28  32
ENDBRANCH  27  28
ENDBRANCH  26  27
ENDBRANCH   1  26
TORSDOF 7
