REMARK  Name = ZINC06233457
REMARK  8 active torsions:
REMARK  status: ('A' for Active; 'I' for Inactive)
REMARK    1  A    between atoms: C_1  and  C_2
REMARK    2  A    between atoms: C_7  and  C_8
REMARK    3  A    between atoms: C_13  and  C_29
REMARK    4  A    between atoms: C_16  and  C_20
REMARK    5  A    between atoms: C_17  and  C_18
REMARK    6  A    between atoms: C_17  and  C_19
REMARK    7  A    between atoms: N_22  and  C_23
REMARK    8  A    between atoms: C_23  and  C_24
REMARK                            x       y       z     vdW  Elec       q    Type
REMARK                         _______ _______ _______ _____ _____    ______ ____
ROOT
ATOM      1  C   UNL     1      -7.484  -1.198  -0.241  0.00  0.00    +0.044 C 
ATOM      2  C   UNL     1      -6.447  -0.635   0.696  0.00  0.00    -0.045 A 
ATOM      3  C   UNL     1      -5.226  -0.278   0.209  0.00  0.00    +0.033 A 
ATOM      4  C   UNL     1      -4.256   0.248   1.079  0.00  0.00    +0.090 A 
ATOM      5  C   UNL     1      -4.566   0.400   2.454  0.00  0.00    +0.090 A 
ATOM      6  C   UNL     1      -5.837   0.022   2.919  0.00  0.00    +0.033 A 
ATOM      7  C   UNL     1      -6.751  -0.485   2.047  0.00  0.00    -0.045 A 
ATOM      8  C   UNL     1      -8.112  -0.890   2.551  0.00  0.00    +0.044 C 
ATOM      9  N   UNL     1      -3.646   0.901   3.289  0.00  0.00    -0.247 NA
ATOM     10  C   UNL     1      -2.473   1.241   2.825  0.00  0.00    +0.079 A 
ATOM     11  C   UNL     1      -2.166   1.090   1.463  0.00  0.00    +0.071 A 
ATOM     12  N   UNL     1      -3.047   0.605   0.627  0.00  0.00    -0.248 NA
ATOM     13  C   UNL     1      -0.729   1.579   1.267  0.00  0.00    +0.018 C 
ATOM     14  C   UNL     1      -0.797   3.127   1.459  0.00  0.00    +0.015 C 
ATOM     15  C   UNL     1      -1.141   3.296   2.984  0.00  0.00    +0.024 C 
ATOM     16  C   UNL     1      -1.233   1.827   3.505  0.00  0.00    +0.096 C 
ATOM     17  C   UNL     1      -0.103   1.151   2.645  0.00  0.00    -0.005 C 
ATOM     18  C   UNL     1      -0.069  -0.368   2.821  0.00  0.00    +0.013 C 
ATOM     19  C   UNL     1       1.269   1.785   2.882  0.00  0.00    +0.013 C 
ATOM     20  C   UNL     1      -0.013   1.086   0.008  0.00  0.00    +0.018 C 
ENDROOT
BRANCH  16  21
ATOM     21  C   UNL     1      -1.143   1.644   4.998  0.00  0.00    +0.226 C 
ATOM     22  O   UNL     1      -0.233   1.002   5.477  0.00  0.00    -0.275 OA
ATOM     23  N   UNL     1      -2.075   2.194   5.801  0.00  0.00    -0.307 N 
ATOM     24  H   UNL     1      -2.804   2.708   5.419  0.00  0.00    +0.149 HD
BRANCH  23  25
ATOM     25  C   UNL     1      -1.988   2.017   7.253  0.00  0.00    +0.178 C 
BRANCH  25  26
ATOM     26  C   UNL     1      -3.141   2.725   7.916  0.00  0.00    +0.122 A 
ATOM     27  C   UNL     1      -4.346   2.188   8.182  0.00  0.00    +0.046 A 
ATOM     28  C   UNL     1      -5.115   3.197   8.806  0.00  0.00    +0.041 A 
ATOM     29  C   UNL     1      -4.337   4.292   8.877  0.00  0.00    +0.195 A 
ATOM     30  O   UNL     1      -3.143   4.000   8.336  0.00  0.00    -0.466 OA
ENDBRANCH  25  26
ENDBRANCH  23  25
ENDBRANCH  16  21
TORSDOF 3
