REMARK  Name = ZINC09350732
REMARK  11 active torsions:
REMARK  status: ('A' for Active; 'I' for Inactive)
REMARK    1  A    between atoms: C_1  and  C_2
REMARK    2  A    between atoms: C_2  and  C_3
REMARK    3  A    between atoms: C_3  and  O_4
REMARK    4  A    between atoms: O_4  and  C_5
REMARK    5  A    between atoms: C_8  and  C_11
REMARK    6  A    between atoms: C_18  and  N_35
REMARK    7  A    between atoms: C_19  and  C_33
REMARK    8  A    between atoms: C_20  and  C_22
REMARK    9  A    between atoms: C_25  and  O_28
REMARK   10  A    between atoms: O_28  and  C_29
REMARK   11  A    between atoms: C_29  and  C_30
REMARK                            x       y       z     vdW  Elec       q    Type
REMARK                         _______ _______ _______ _____ _____    ______ ____
ROOT
ATOM      1  C   UNL     1       3.338  -4.477   5.527  0.00  0.00    +0.100 A 
ATOM      2  C   UNL     1       2.961  -5.689   6.112  0.00  0.00    +0.054 A 
ATOM      3  C   UNL     1       3.840  -5.963   7.120  0.00  0.00    +0.223 A 
ATOM      4  N   UNL     1       4.737  -4.957   7.167  0.00  0.00    -0.246 N 
ATOM      5  H   UNL     1       5.479  -4.883   7.787  0.00  0.00    +0.192 HD
ATOM      6  N   UNL     1       4.410  -4.037   6.158  0.00  0.00    -0.171 NA
ATOM      7  O   UNL     1       3.750  -7.079   7.887  0.00  0.00    -0.423 OA
ATOM      8  C   UNL     1       2.932  -8.064   7.463  0.00  0.00    +0.200 C 
ATOM      9  C   UNL     1       2.014  -7.910   6.484  0.00  0.00    +0.098 C 
ATOM     10  C   UNL     1       1.811  -6.599   5.765  0.00  0.00    +0.102 C 
ENDROOT
BRANCH   1  14
ATOM     11  C   UNL     1       1.385  -2.554   2.273  0.00  0.00    +0.121 A 
ATOM     12  C   UNL     1       1.961  -1.794   3.282  0.00  0.00    +0.046 A 
ATOM     13  C   UNL     1       2.595  -2.415   4.338  0.00  0.00    +0.013 A 
ATOM     14  C   UNL     1       2.656  -3.806   4.392  0.00  0.00    +0.003 A 
ATOM     15  C   UNL     1       2.077  -4.566   3.378  0.00  0.00    +0.013 A 
ATOM     16  C   UNL     1       1.440  -3.940   2.327  0.00  0.00    +0.046 A 
BRANCH  11  17
ATOM     17  O   UNL     1       0.761  -1.940   1.234  0.00  0.00    -0.492 OA
BRANCH  17  18
ATOM     18  C   UNL     1       0.742  -0.511   1.242  0.00  0.00    +0.229 C 
BRANCH  18  20
ATOM     19  C   UNL     1      -0.019   1.526   0.010  0.00  0.00    +0.007 C 
ATOM     20  C   UNL     1       0.002  -0.004   0.002  0.00  0.00    +0.038 C 
ENDBRANCH  18  20
ENDBRANCH  17  18
ENDBRANCH  11  17
ENDBRANCH   1  14
BRANCH  10  21
ATOM     21  C   UNL     1       0.514  -5.971   6.208  0.00  0.00    -0.034 A 
ATOM     22  C   UNL     1       0.313  -5.670   7.542  0.00  0.00    +0.008 A 
ATOM     23  C   UNL     1      -0.875  -5.095   7.950  0.00  0.00    +0.046 A 
ATOM     24  C   UNL     1      -1.866  -4.819   7.020  0.00  0.00    +0.121 A 
ATOM     25  C   UNL     1      -1.662  -5.121   5.681  0.00  0.00    +0.046 A 
ATOM     26  C   UNL     1      -0.470  -5.692   5.278  0.00  0.00    +0.008 A 
BRANCH  24  27
ATOM     27  O   UNL     1      -3.036  -4.253   7.419  0.00  0.00    -0.483 OA
BRANCH  27  28
ATOM     28  C   UNL     1      -4.011  -3.997   6.407  0.00  0.00    +0.324 C 
BRANCH  28  29
ATOM     29  C   UNL     1      -5.232  -3.373   7.032  0.00  0.00    +0.248 C 
ATOM     30  O   UNL     1      -5.264  -3.168   8.227  0.00  0.00    -0.272 OA
ATOM     31  N   UNL     1      -6.289  -3.043   6.263  0.00  0.00    -0.327 N 
ATOM     32  H   UNL     1      -6.263  -3.207   5.308  0.00  0.00    +0.145 HD
ATOM     33  H   UNL     1      -7.075  -2.642   6.666  0.00  0.00    +0.145 HD
ENDBRANCH  28  29
ENDBRANCH  27  28
ENDBRANCH  24  27
ENDBRANCH  10  21
BRANCH   8  34
ATOM     34  N   UNL     1       3.039  -9.294   8.062  0.00  0.00    -0.328 N 
ATOM     35  H   UNL     1       3.689  -9.436   8.768  0.00  0.00    +0.145 HD
ATOM     36  H   UNL     1       2.464 -10.023   7.779  0.00  0.00    +0.145 HD
ENDBRANCH   8  34
BRANCH   9  37
ATOM     37  C   UNL     1       1.204  -9.031   6.115  0.00  0.00    +0.101 C 
ATOM     38  N   UNL     1       0.561  -9.921   5.823  0.00  0.00    -0.191 NA
ENDBRANCH   9  37
TORSDOF 10
