REMARK  Name = ZINC66391929
REMARK  8 active torsions:
REMARK  status: ('A' for Active; 'I' for Inactive)
REMARK    1  A    between atoms: C_1  and  C_2
REMARK    2  A    between atoms: C_2  and  C_4
REMARK    3  A    between atoms: C_2  and  N_15
REMARK    4  A    between atoms: N_6  and  C_7
REMARK    5  A    between atoms: C_11  and  C_13
REMARK    6  A    between atoms: N_15  and  C_16
REMARK    7  A    between atoms: C_16  and  C_17
REMARK    8  A    between atoms: C_17  and  C_23
REMARK                            x       y       z     vdW  Elec       q    Type
REMARK                         _______ _______ _______ _____ _____    ______ ____
ROOT
ATOM      1  N   UNL     1       0.620  -0.364   1.126  0.00  0.00    +0.387 N 
ATOM      2  H   UNL     1       0.383   0.178   1.943  0.00  0.00    -0.085 HD
ATOM      3  H   UNL     1       0.582  -1.347   1.352  0.00  0.00    -0.085 HD
ENDROOT
BRANCH   1   5
ATOM      4  C   UNL     1      -0.372   1.435  -0.207  0.00  0.00    -0.004 C 
ATOM      5  C   UNL     1      -0.338  -0.073   0.050  0.00  0.00    +0.013 C 
BRANCH   5   6
ATOM      6  C   UNL     1      -1.710  -0.544   0.457  0.00  0.00    +0.203 C 
ATOM      7  O   UNL     1      -1.874  -1.071   1.537  0.00  0.00    -0.277 OA
ATOM      8  N   UNL     1      -2.754  -0.380  -0.379  0.00  0.00    -0.287 N 
ATOM      9  H   UNL     1      -2.637   0.101  -1.213  0.00  0.00    +0.155 HD
BRANCH   8  10
ATOM     10  C   UNL     1      -4.008  -0.904  -0.043  0.00  0.00    +0.035 A 
ATOM     11  C   UNL     1      -4.836  -1.415  -1.036  0.00  0.00    +0.023 A 
ATOM     12  C   UNL     1      -6.075  -1.934  -0.710  0.00  0.00    +0.003 A 
ATOM     13  C   UNL     1      -6.499  -1.948   0.603  0.00  0.00    +0.019 A 
ATOM     14  C   UNL     1      -5.675  -1.437   1.608  0.00  0.00    +0.054 A 
ATOM     15  C   UNL     1      -4.422  -0.918   1.280  0.00  0.00    +0.042 A 
BRANCH  14  16
ATOM     16  C   UNL     1      -6.112  -1.450   2.972  0.00  0.00    +0.099 C 
ATOM     17  N   UNL     1      -6.459  -1.460   4.053  0.00  0.00    -0.191 NA
ENDBRANCH  14  16
ENDBRANCH   8  10
ENDBRANCH   5   6
ENDBRANCH   1   5
BRANCH   1  18
ATOM     18  C   UNL     1       1.976  -0.015   0.682  0.00  0.00    -0.070 C 
BRANCH  18  19
ATOM     19  C   UNL     1       2.980  -0.383   1.776  0.00  0.00    -0.015 C 
ATOM     20  C   UNL     1       2.564   0.272   3.096  0.00  0.00    +0.038 C 
ATOM     21  C   UNL     1       2.605   1.794   2.937  0.00  0.00    +0.160 C 
ATOM     22  O   UNL     1       3.918   2.195   2.543  0.00  0.00    -0.380 OA
ATOM     23  C   UNL     1       4.343   1.651   1.292  0.00  0.00    +0.160 C 
ATOM     24  C   UNL     1       4.372   0.123   1.385  0.00  0.00    +0.038 C 
BRANCH  19  25
ATOM     25  C   UNL     1       3.017  -1.880   1.944  0.00  0.00    -0.043 A 
ATOM     26  C   UNL     1       2.340  -2.692   1.052  0.00  0.00    +0.005 A 
ATOM     27  C   UNL     1       2.374  -4.065   1.206  0.00  0.00    +0.020 A 
ATOM     28  C   UNL     1       3.085  -4.627   2.251  0.00  0.00    +0.041 A 
ATOM     29  C   UNL     1       3.762  -3.814   3.142  0.00  0.00    +0.020 A 
ATOM     30  C   UNL     1       3.733  -2.442   2.985  0.00  0.00    +0.005 A 
ATOM     31 CL   UNL     1       3.127  -6.352   2.444  0.00  0.00    -0.084 Cl
ENDBRANCH  19  25
ENDBRANCH  18  19
ENDBRANCH   1  18
TORSDOF 7
