REMARK  Name = ZINC66795120
REMARK  5 active torsions:
REMARK  status: ('A' for Active; 'I' for Inactive)
REMARK    1  A    between atoms: C_1  and  C_2
REMARK    2  A    between atoms: C_6  and  C_22
REMARK    3  A    between atoms: N_9  and  C_10
REMARK    4  A    between atoms: C_10  and  C_11
REMARK    5  A    between atoms: C_12  and  O_21
REMARK                            x       y       z     vdW  Elec       q    Type
REMARK                         _______ _______ _______ _____ _____    ______ ____
ROOT
ATOM      1  C   UNL     1      -0.019   1.526   0.010  0.00  0.00    +0.026 C 
ATOM      2  C   UNL     1       0.002  -0.004   0.002  0.00  0.00    +0.080 C 
ATOM      3  C   UNL     1      -1.434  -0.535   0.015  0.00  0.00    +0.179 C 
ATOM      4  O   UNL     1      -2.075  -0.132   1.228  0.00  0.00    -0.369 OA
ATOM      5  C   UNL     1      -1.412  -0.590   2.410  0.00  0.00    +0.162 C 
ATOM      6  C   UNL     1       0.024  -0.060   2.421  0.00  0.00    +0.121 C 
ATOM      7  N   UNL     1       0.711  -0.492   1.194  0.00  0.00    -0.290 NA
ENDROOT
BRANCH   5   8
ATOM      8  C   UNL     1      -2.145  -0.086   3.626  0.00  0.00    -0.018 A 
ATOM      9  C   UNL     1      -2.747   1.158   3.603  0.00  0.00    +0.006 A 
ATOM     10  C   UNL     1      -3.420   1.621   4.719  0.00  0.00    +0.000 A 
ATOM     11  C   UNL     1      -3.490   0.839   5.857  0.00  0.00    +0.000 A 
ATOM     12  C   UNL     1      -2.889  -0.406   5.879  0.00  0.00    +0.000 A 
ATOM     13  C   UNL     1      -2.220  -0.870   4.762  0.00  0.00    +0.006 A 
ENDBRANCH   5   8
BRANCH   7  14
ATOM     14  C   UNL     1       2.112  -0.051   1.190  0.00  0.00    +0.124 C 
BRANCH  14  15
ATOM     15  C   UNL     1       2.866  -0.763   2.283  0.00  0.00    +0.017 A 
ATOM     16  C   UNL     1       2.935  -0.224   3.537  0.00  0.00    +0.122 A 
ATOM     17  C   UNL     1       3.630  -0.872   4.562  0.00  0.00    +0.046 A 
ATOM     18  C   UNL     1       4.258  -2.060   4.341  0.00  0.00    +0.012 A 
ATOM     19  C   UNL     1       4.207  -2.642   3.066  0.00  0.00    -0.014 A 
ATOM     20  C   UNL     1       3.498  -1.988   2.023  0.00  0.00    +0.008 A 
ATOM     21  C   UNL     1       3.458  -2.594   0.756  0.00  0.00    +0.119 A 
ATOM     22  N   UNL     1       4.065  -3.740   0.560  0.00  0.00    -0.263 NA
ATOM     23  C   UNL     1       4.729  -4.374   1.517  0.00  0.00    +0.111 A 
ATOM     24  C   UNL     1       4.836  -3.866   2.776  0.00  0.00    +0.028 A 
BRANCH  16  25
ATOM     25  O   UNL     1       2.318   0.960   3.791  0.00  0.00    -0.506 OA
ATOM     26  H   UNL     1       1.403   0.871   4.091  0.00  0.00    +0.292 HD
ENDBRANCH  16  25
ENDBRANCH  14  15
ENDBRANCH   7  14
TORSDOF 4
