REMARK  Name = ZINC38578009
REMARK  9 active torsions:
REMARK  status: ('A' for Active; 'I' for Inactive)
REMARK    1  A    between atoms: C_1  and  C_2
REMARK    2  A    between atoms: C_2  and  N_3
REMARK    3  A    between atoms: C_4  and  C_6
REMARK    4  A    between atoms: C_15  and  N_17
REMARK    5  A    between atoms: C_18  and  C_20
REMARK    6  A    between atoms: C_23  and  C_25
REMARK    7  A    between atoms: C_27  and  C_33
REMARK    8  A    between atoms: C_29  and  C_32
REMARK    9  A    between atoms: C_30  and  O_31
REMARK                            x       y       z     vdW  Elec       q    Type
REMARK                         _______ _______ _______ _____ _____    ______ ____
ROOT
ATOM      1  N   UNL     1       3.321  -0.687  -3.161  0.00  0.00    -0.294 N 
ATOM      2  C   UNL     1       4.378  -0.574  -3.990  0.00  0.00    +0.261 C 
ATOM      3  O   UNL     1       4.296  -0.968  -5.138  0.00  0.00    -0.269 OA
ATOM      4  H   UNL     1       3.386  -0.373  -2.246  0.00  0.00    +0.150 HD
ENDROOT
BRANCH   1  13
ATOM      5  C   UNL     1       1.515  -2.273  -2.635  0.00  0.00    +0.045 C 
ATOM      6  C   UNL     1       1.652  -3.554  -2.864  0.00  0.00    -0.046 C 
ATOM      7  C   UNL     1       1.047  -4.672  -2.015  0.00  0.00    +0.032 C 
ATOM      8  C   UNL     1       1.706  -5.974  -2.479  0.00  0.00    +0.004 C 
ATOM      9  C   UNL     1       1.435  -6.256  -3.949  0.00  0.00    +0.002 C 
ATOM     10  C   UNL     1       1.522  -5.007  -4.822  0.00  0.00    +0.018 C 
ATOM     11  C   UNL     1       2.409  -3.966  -4.136  0.00  0.00    +0.075 C 
ATOM     12  S   UNL     1       2.385  -2.393  -5.085  0.00  0.00    -0.126 S 
ATOM     13  C   UNL     1       2.074  -1.285  -3.643  0.00  0.00    +0.167 C 
BRANCH   5  15
ATOM     14  N   UNL     1       0.688  -0.476  -1.203  0.00  0.00    -0.312 N 
ATOM     15  C   UNL     1       0.827  -1.799  -1.425  0.00  0.00    +0.243 C 
ATOM     16  O   UNL     1       0.383  -2.599  -0.625  0.00  0.00    -0.270 OA
ATOM     17  H   UNL     1       1.042   0.162  -1.842  0.00  0.00    +0.149 HD
BRANCH  14  19
ATOM     18  C   UNL     1      -0.019   1.526   0.010  0.00  0.00    +0.024 C 
ATOM     19  C   UNL     1       0.002  -0.004   0.002  0.00  0.00    +0.101 C 
ENDBRANCH  14  19
ENDBRANCH   5  15
ENDBRANCH   1  13
BRANCH   2  20
ATOM     20  C   UNL     1       5.627   0.025  -3.507  0.00  0.00    +0.131 C 
ATOM     21  N   UNL     1       5.877   0.488  -2.311  0.00  0.00    -0.148 NA
ATOM     22  N   UNL     1       7.053   0.957  -2.162  0.00  0.00    -0.153 NA
ATOM     23  C   UNL     1       7.801   0.888  -3.241  0.00  0.00    +0.080 C 
ATOM     24  C   UNL     1       6.914   0.235  -4.288  0.00  0.00    +0.120 C 
BRANCH  23  25
ATOM     25  C   UNL     1       9.186   1.336  -3.398  0.00  0.00    +0.040 A 
ATOM     26  C   UNL     1       9.840   1.193  -4.630  0.00  0.00    +0.016 A 
ATOM     27  C   UNL     1      11.142   1.617  -4.769  0.00  0.00    -0.049 A 
ATOM     28  C   UNL     1      11.812   2.185  -3.696  0.00  0.00    +0.010 A 
ATOM     29  C   UNL     1      11.182   2.333  -2.475  0.00  0.00    -0.008 A 
ATOM     30  C   UNL     1       9.869   1.919  -2.315  0.00  0.00    +0.129 A 
ATOM     31  C   UNL     1      11.922   2.953  -1.318  0.00  0.00    +0.047 C 
ATOM     32  C   UNL     1      11.843   1.462  -6.093  0.00  0.00    +0.044 C 
BRANCH  30  33
ATOM     33  O   UNL     1       9.249   2.068  -1.118  0.00  0.00    -0.506 OA
ATOM     34  H   UNL     1       9.355   1.314  -0.523  0.00  0.00    +0.292 HD
ENDBRANCH  30  33
ENDBRANCH  23  25
ENDBRANCH   2  20
TORSDOF 6
