REMARK  Name = ZINC38008269
REMARK  2 active torsions:
REMARK  status: ('A' for Active; 'I' for Inactive)
REMARK    1  A    between atoms: C_8  and  C_10
REMARK    2  A    between atoms: C_10  and  N_11
REMARK                            x       y       z     vdW  Elec       q    Type
REMARK                         _______ _______ _______ _____ _____    ______ ____
ROOT
ATOM      1  N   UNL     1       5.275  -0.750  -1.193  0.00  0.00    -0.298 N 
ATOM      2  C   UNL     1       6.180  -0.782  -2.230  0.00  0.00    +0.288 A 
ATOM      3  N   UNL     1       5.995  -1.401  -3.368  0.00  0.00    -0.195 NA
ATOM      4  C   UNL     1       7.096  -1.217  -4.148  0.00  0.00    +0.111 A 
ATOM      5  C   UNL     1       7.449  -1.638  -5.431  0.00  0.00    +0.031 A 
ATOM      6  C   UNL     1       8.670  -1.278  -5.957  0.00  0.00    +0.002 A 
ATOM      7  C   UNL     1       9.549  -0.500  -5.219  0.00  0.00    +0.004 A 
ATOM      8  C   UNL     1       9.213  -0.078  -3.949  0.00  0.00    +0.048 A 
ATOM      9  C   UNL     1       7.989  -0.431  -3.405  0.00  0.00    +0.157 A 
ATOM     10  O   UNL     1       7.381  -0.177  -2.223  0.00  0.00    -0.425 OA
ATOM     11  H   UNL     1       5.485  -0.264  -0.381  0.00  0.00    +0.150 HD
ENDROOT
BRANCH   1  12
ATOM     12  C   UNL     1       3.994  -1.450  -1.317  0.00  0.00    +0.114 C 
BRANCH  12  20
ATOM     13  C   UNL     1      -0.017   1.376   0.010  0.00  0.00    +0.000 A 
ATOM     14  C   UNL     1       1.169   2.087   0.002  0.00  0.00    +0.000 A 
ATOM     15  C   UNL     1       2.374   1.411  -0.013  0.00  0.00    +0.004 A 
ATOM     16  C   UNL     1       2.394   0.028  -0.021  0.00  0.00    -0.039 A 
ATOM     17  C   UNL     1       1.211  -0.689  -0.014  0.00  0.00    -0.043 A 
ATOM     18  C   UNL     1       0.002  -0.004   0.002  0.00  0.00    +0.004 A 
ATOM     19  C   UNL     1       1.874  -2.050  -0.028  0.00  0.00    +0.045 C 
ATOM     20  C   UNL     1       3.181  -1.257  -0.036  0.00  0.00    +0.041 C 
ENDBRANCH  12  20
ENDBRANCH   1  12
TORSDOF 2
