REMARK  Name = ZINC05223041
REMARK  10 active torsions:
REMARK  status: ('A' for Active; 'I' for Inactive)
REMARK    1  A    between atoms: C_1  and  C_2
REMARK    2  A    between atoms: C_2  and  C_3
REMARK    3  A    between atoms: C_3  and  C_25
REMARK    4  A    between atoms: N_6  and  C_10
REMARK    5  A    between atoms: C_10  and  C_11
REMARK    6  A    between atoms: C_12  and  C_20
REMARK    7  A    between atoms: C_13  and  C_19
REMARK    8  A    between atoms: C_20  and  O_22
REMARK    9  A    between atoms: O_22  and  C_23
REMARK   10  A    between atoms: C_23  and  C_24
REMARK                            x       y       z     vdW  Elec       q    Type
REMARK                         _______ _______ _______ _____ _____    ______ ____
ROOT
ATOM      1  C   UNL     1      -1.502   1.580  -1.652  0.00  0.00    +0.138 C 
ATOM      2  C   UNL     1      -1.288   3.076  -1.529  0.00  0.00    +0.251 C 
ATOM      3  O   UNL     1      -0.229   3.666  -1.526  0.00  0.00    -0.272 OA
ATOM      4  N   UNL     1      -2.520   3.613  -1.423  0.00  0.00    -0.218 N 
ATOM      5  C   UNL     1      -3.472   2.674  -1.461  0.00  0.00    +0.310 C 
ATOM      6  O   UNL     1      -4.661   2.914  -1.383  0.00  0.00    -0.252 OA
ATOM      7  N   UNL     1      -2.967   1.434  -1.595  0.00  0.00    -0.281 N 
ATOM      8  H   UNL     1      -3.469   0.606  -1.645  0.00  0.00    +0.152 HD
ENDROOT
BRANCH   1   9
ATOM      9  C   UNL     1      -0.969   1.071  -2.966  0.00  0.00    -0.015 A 
ATOM     10  C   UNL     1       0.326   0.593  -3.048  0.00  0.00    +0.009 A 
ATOM     11  C   UNL     1       0.814   0.121  -4.251  0.00  0.00    +0.039 A 
ATOM     12  C   UNL     1       0.010   0.139  -5.378  0.00  0.00    +0.123 A 
ATOM     13  C   UNL     1      -1.285   0.623  -5.297  0.00  0.00    +0.039 A 
ATOM     14  C   UNL     1      -1.773   1.089  -4.091  0.00  0.00    +0.009 A 
ATOM     15  F   UNL     1       0.488  -0.318  -6.557  0.00  0.00    -0.205 F 
ENDBRANCH   1   9
BRANCH   1  17
ATOM     16  C   UNL     1      -1.452   1.328   0.834  0.00  0.00    +0.007 C 
ATOM     17  C   UNL     1      -0.842   0.844  -0.484  0.00  0.00    +0.037 C 
ENDBRANCH   1  17
BRANCH   4  18
ATOM     18  C   UNL     1      -2.783   5.047  -1.282  0.00  0.00    +0.169 C 
BRANCH  18  19
ATOM     19  C   UNL     1      -2.806   5.412   0.180  0.00  0.00    +0.041 C 
ATOM     20  C   UNL     1      -1.865   6.247   0.671  0.00  0.00    +0.075 C 
ATOM     21  C   UNL     1      -1.928   6.592   2.146  0.00  0.00    +0.110 C 
ATOM     22  N   UNL     1      -3.012   5.976   2.929  0.00  0.00    -0.292 N 
ATOM     23  C   UNL     1      -3.875   5.156   2.296  0.00  0.00    +0.304 C 
ATOM     24  O   UNL     1      -4.773   4.642   2.934  0.00  0.00    -0.253 OA
ATOM     25  N   UNL     1      -3.775   4.889   0.988  0.00  0.00    -0.271 N 
ATOM     26  C   UNL     1      -2.059   8.111   2.273  0.00  0.00    +0.033 C 
ATOM     27  H   UNL     1      -3.103   6.155   3.878  0.00  0.00    +0.151 HD
ATOM     28  H   UNL     1      -4.428   4.291   0.592  0.00  0.00    +0.156 HD
BRANCH  20  29
ATOM     29  C   UNL     1      -0.857   6.785  -0.163  0.00  0.00    +0.338 C 
ATOM     30  O   UNL     1       0.266   6.318  -0.138  0.00  0.00    -0.245 OA
BRANCH  29  31
ATOM     31  O   UNL     1      -1.142   7.815  -0.987  0.00  0.00    -0.462 OA
BRANCH  31  32
ATOM     32  C   UNL     1      -0.076   8.308  -1.801  0.00  0.00    +0.229 C 
ATOM     33  C   UNL     1      -0.586   9.467  -2.661  0.00  0.00    +0.048 C 
ENDBRANCH  31  32
ENDBRANCH  29  31
ENDBRANCH  20  29
ENDBRANCH  18  19
ENDBRANCH   4  18
TORSDOF 7
