REMARK  Name = ZINC42893859
REMARK  16 active torsions:
REMARK  status: ('A' for Active; 'I' for Inactive)
REMARK    1  A    between atoms: C_1  and  C_2
REMARK    2  A    between atoms: C_2  and  C_3
REMARK    3  A    between atoms: C_2  and  N_4
REMARK    4  A    between atoms: N_4  and  C_5
REMARK    5  A    between atoms: N_4  and  C_27
REMARK    6  A    between atoms: C_5  and  C_6
REMARK    7  A    between atoms: C_6  and  N_7
REMARK    8  A    between atoms: N_10  and  C_11
REMARK    9  A    between atoms: C_11  and  C_13
REMARK   10  A    between atoms: C_11  and  C_15
REMARK   11  A    between atoms: C_13  and  O_14
REMARK   12  A    between atoms: C_15  and  C_17
REMARK   13  A    between atoms: C_15  and  O_26
REMARK   14  A    between atoms: C_20  and  N_23
REMARK   15  A    between atoms: C_27  and  C_28
REMARK   16  A    between atoms: C_27  and  C_29
REMARK                            x       y       z     vdW  Elec       q    Type
REMARK                         _______ _______ _______ _____ _____    ______ ____
ROOT
ATOM      1  N   UNK A   0      -4.520   0.820  -1.906  0.00  0.00    -0.301 N 
ATOM      2  C   UNK A   0      -5.723   1.403  -1.734  0.00  0.00    +0.300 C 
ATOM      3  O   UNK A   0      -6.143   1.614  -0.613  0.00  0.00    -0.253 OA
ATOM      4  N   UNK A   1      -6.462   1.752  -2.807  0.00  0.00    -0.292 N 
ATOM      5  H   UNK A   0      -4.186   0.652  -2.800  0.00  0.00    +0.150 HD
ATOM      6  H   UNK A   1      -6.127   1.584  -3.701  0.00  0.00    +0.151 HD
ENDROOT
BRANCH   1   7
ATOM      7  C   UNK A   0      -3.718   0.441  -0.740  0.00  0.00    +0.087 C 
BRANCH   7   8
ATOM      8  C   UNK A   0      -2.408  -0.196  -1.208  0.00  0.00    -0.059 C 
BRANCH   8   9
ATOM      9  N   UNK A   0      -1.616  -0.603  -0.040  0.00  0.00    +0.384 N 
ATOM     10  H   UNK A   0      -1.479   0.191   0.567  0.00  0.00    -0.081 HD
BRANCH   9  12
ATOM     11  C   UNK A   0       0.420  -0.018  -1.267  0.00  0.00    -0.014 C 
ATOM     12  C   UNK A   0      -0.311  -1.110  -0.485  0.00  0.00    -0.074 C 
ATOM     13  C   UNK A   0       0.523  -1.511   0.733  0.00  0.00    -0.014 C 
ENDBRANCH   9  12
BRANCH   9  14
ATOM     14  C   UNK A   0      -2.329  -1.660   0.690  0.00  0.00    -0.074 C 
ATOM     15  C   UNK A   0      -2.028  -3.016   0.048  0.00  0.00    -0.014 C 
ATOM     16  C   UNK A   0      -1.868  -1.673   2.148  0.00  0.00    -0.014 C 
ENDBRANCH   9  14
ENDBRANCH   8   9
ENDBRANCH   7   8
ENDBRANCH   1   7
BRANCH   4  17
ATOM     17  C   UNK A   1      -7.770   2.386  -2.621  0.00  0.00    +0.133 C 
BRANCH  17  18
ATOM     18  C   UNK A   1      -7.585   3.894  -2.441  0.00  0.00    +0.181 C 
BRANCH  18  19
ATOM     19  O   UNK A   1      -7.060   4.456  -3.645  0.00  0.00    -0.393 OA
ATOM     20  H   UNK A   1      -6.917   5.412  -3.603  0.00  0.00    +0.209 HD
ENDBRANCH  18  19
ENDBRANCH  17  18
BRANCH  17  21
ATOM     21  C   UNK A   1      -8.643   2.122  -3.849  0.00  0.00    +0.167 C 
BRANCH  21  22
ATOM     22  C   UNK A   1      -8.825   0.636  -4.026  0.00  0.00    -0.017 A 
ATOM     23  C   UNK A   1      -7.826  -0.118  -4.611  0.00  0.00    +0.008 A 
ATOM     24  C   UNK A   1      -7.993  -1.480  -4.774  0.00  0.00    +0.033 A 
ATOM     25  C   UNK A   1      -9.159  -2.089  -4.350  0.00  0.00    +0.126 A 
ATOM     26  C   UNK A   1     -10.159  -1.335  -3.764  0.00  0.00    +0.033 A 
ATOM     27  C   UNK A   1      -9.990   0.027  -3.597  0.00  0.00    +0.008 A 
BRANCH  25  28
ATOM     28  N   UNK A   1      -9.338  -3.548  -4.525  0.00  0.00    +0.056 N 
ATOM     29  O   UNK A   1      -8.464  -4.207  -5.038  0.00  0.00    -0.126 OA
ATOM     30  O   UNK A   1     -10.359  -4.080  -4.154  0.00  0.00    -0.126 OA
ENDBRANCH  25  28
ENDBRANCH  21  22
BRANCH  21  31
ATOM     31  O   UNK A   1      -8.011   2.666  -5.009  0.00  0.00    -0.385 OA
ATOM     32  H   UNK A   1      -7.139   2.292  -5.194  0.00  0.00    +0.210 HD
ENDBRANCH  21  31
ENDBRANCH  17  21
ENDBRANCH   4  17
TORSDOF 12
