REMARK  Name = ZINC41099811
REMARK  8 active torsions:
REMARK  status: ('A' for Active; 'I' for Inactive)
REMARK    1  A    between atoms: C_1  and  C_2
REMARK    2  A    between atoms: C_2  and  C_4
REMARK    3  A    between atoms: C_2  and  O_12
REMARK    4  A    between atoms: N_6  and  C_7
REMARK    5  A    between atoms: O_12  and  C_13
REMARK    6  A    between atoms: C_13  and  C_15
REMARK    7  A    between atoms: C_17  and  N_21
REMARK    8  A    between atoms: N_19  and  C_20
REMARK                            x       y       z     vdW  Elec       q    Type
REMARK                         _______ _______ _______ _____ _____    ______ ____
ROOT
ATOM      1  O   UNL     1       0.671  -0.465  -1.174  0.00  0.00    -0.448 OA
ENDROOT
BRANCH   1   3
ATOM      2  C   UNL     1      -0.019   1.526   0.010  0.00  0.00    +0.062 C 
ATOM      3  C   UNL     1       0.002  -0.004   0.002  0.00  0.00    +0.259 C 
BRANCH   3   4
ATOM      4  C   UNL     1       0.731  -0.503   1.223  0.00  0.00    +0.254 C 
ATOM      5  O   UNL     1       1.774  -1.109   1.101  0.00  0.00    -0.272 OA
ATOM      6  N   UNL     1       0.223  -0.277   2.451  0.00  0.00    -0.309 N 
ATOM      7  H   UNL     1      -0.611   0.208   2.548  0.00  0.00    +0.149 HD
BRANCH   6   8
ATOM      8  C   UNL     1       0.932  -0.762   3.638  0.00  0.00    +0.073 C 
ATOM      9  C   UNL     1       0.494  -2.205   3.961  0.00  0.00    +0.022 C 
ATOM     10  C   UNL     1       0.463  -2.255   5.509  0.00  0.00    +0.002 C 
ATOM     11  C   UNL     1      -0.091  -0.858   5.884  0.00  0.00    +0.002 C 
ATOM     12  C   UNL     1       0.560   0.095   4.860  0.00  0.00    +0.022 C 
ENDBRANCH   6   8
ENDBRANCH   3   4
ENDBRANCH   1   3
BRANCH   1  13
ATOM     13  C   UNL     1      -0.089  -0.673  -2.269  0.00  0.00    +0.357 C 
ATOM     14  O   UNL     1      -1.287  -0.469  -2.225  0.00  0.00    -0.243 OA
BRANCH  13  15
ATOM     15  C   UNL     1       0.529  -1.146  -3.510  0.00  0.00    +0.129 A 
ATOM     16  C   UNL     1      -0.123  -1.394  -4.701  0.00  0.00    +0.057 A 
ATOM     17  C   UNL     1       0.845  -1.827  -5.618  0.00  0.00    +0.043 A 
ATOM     18  C   UNL     1       2.046  -1.834  -4.981  0.00  0.00    +0.108 A 
ATOM     19  N   UNL     1       1.865  -1.416  -3.700  0.00  0.00    -0.343 N 
ATOM     20  C   UNL     1       2.917  -1.280  -2.690  0.00  0.00    +0.149 C 
BRANCH  17  21
ATOM     21  N   UNL     1       0.614  -2.189  -6.958  0.00  0.00    -0.357 N 
ATOM     22  H   UNL     1      -0.283  -2.150  -7.324  0.00  0.00    +0.142 HD
ATOM     23  H   UNL     1       1.353  -2.477  -7.517  0.00  0.00    +0.142 HD
ENDBRANCH  17  21
ENDBRANCH  13  15
ENDBRANCH   1  13
TORSDOF 6
