REMARK  Name = ZINC39915959
REMARK  10 active torsions:
REMARK  status: ('A' for Active; 'I' for Inactive)
REMARK    1  A    between atoms: C_4  and  C_7
REMARK    2  A    between atoms: C_7  and  C_8
REMARK    3  A    between atoms: C_8  and  N_9
REMARK    4  A    between atoms: C_17  and  S_18
REMARK    5  A    between atoms: S_18  and  C_19
REMARK    6  A    between atoms: C_21  and  O_34
REMARK    7  A    between atoms: C_23  and  O_33
REMARK    8  A    between atoms: C_25  and  O_32
REMARK    9  A    between atoms: C_27  and  C_30
REMARK   10  A    between atoms: C_30  and  O_31
REMARK                            x       y       z     vdW  Elec       q    Type
REMARK                         _______ _______ _______ _____ _____    ______ ____
ROOT
ATOM      1  N   UNL     1       5.505  -1.947   1.593  0.00  0.00    -0.318 N 
ATOM      2  C   UNL     1       5.740  -3.312   1.604  0.00  0.00    +0.069 A 
ATOM      3  C   UNL     1       4.919  -4.428   1.652  0.00  0.00    +0.028 A 
ATOM      4  C   UNL     1       5.475  -5.691   1.649  0.00  0.00    +0.002 A 
ATOM      5  C   UNL     1       6.852  -5.852   1.597  0.00  0.00    +0.002 A 
ATOM      6  C   UNL     1       7.682  -4.754   1.549  0.00  0.00    +0.030 A 
ATOM      7  C   UNL     1       7.135  -3.469   1.551  0.00  0.00    +0.090 A 
ATOM      8  N   UNL     1       7.676  -2.224   1.512  0.00  0.00    -0.222 NA
ATOM      9  C   UNL     1       6.721  -1.327   1.531  0.00  0.00    +0.172 A 
ENDROOT
BRANCH   1  10
ATOM     10  C   UNL     1       4.196  -1.290   1.635  0.00  0.00    +0.129 C 
BRANCH  10  11
ATOM     11  C   UNL     1       3.680  -1.089   0.209  0.00  0.00    +0.057 C 
BRANCH  11  15
ATOM     12  C   UNL     1      -0.136   0.826   0.329  0.00  0.00    +0.000 A 
ATOM     13  C   UNL     1       1.017   1.586   0.268  0.00  0.00    +0.000 A 
ATOM     14  C   UNL     1       2.252   0.967   0.229  0.00  0.00    +0.004 A 
ATOM     15  C   UNL     1       2.334  -0.413   0.252  0.00  0.00    -0.046 A 
ATOM     16  C   UNL     1       1.181  -1.173   0.314  0.00  0.00    +0.004 A 
ATOM     17  C   UNL     1      -0.054  -0.553   0.351  0.00  0.00    +0.000 A 
ENDBRANCH  11  15
ENDBRANCH  10  11
ENDBRANCH   1  10
BRANCH   9  18
ATOM     18  S   UNL     1       6.968   0.417   1.487  0.00  0.00    -0.054 S 
BRANCH  18  19
ATOM     19  C   UNL     1       8.770   0.603   1.408  0.00  0.00    +0.214 C 
ATOM     20  C   UNL     1       9.124   2.083   1.239  0.00  0.00    +0.185 C 
ATOM     21  C   UNL     1      10.648   2.239   1.234  0.00  0.00    +0.177 C 
ATOM     22  C   UNL     1      11.214   1.650   2.530  0.00  0.00    +0.176 C 
ATOM     23  C   UNL     1      10.780   0.187   2.648  0.00  0.00    +0.176 C 
ATOM     24  O   UNL     1       9.354   0.110   2.616  0.00  0.00    -0.355 OA
BRANCH  22  25
ATOM     25  O   UNL     1      12.641   1.726   2.504  0.00  0.00    -0.386 OA
ATOM     26  H   UNL     1      12.986   2.626   2.426  0.00  0.00    +0.210 HD
ENDBRANCH  22  25
BRANCH  21  27
ATOM     27  O   UNL     1      11.195   1.545   0.112  0.00  0.00    -0.386 OA
ATOM     28  H   UNL     1      10.873   1.863  -0.743  0.00  0.00    +0.210 HD
ENDBRANCH  21  27
BRANCH  20  29
ATOM     29  O   UNL     1       8.569   2.833   2.322  0.00  0.00    -0.386 OA
ATOM     30  H   UNL     1       7.606   2.776   2.388  0.00  0.00    +0.210 HD
ENDBRANCH  20  29
BRANCH  23  31
ATOM     31  C   UNL     1      11.361  -0.614   1.481  0.00  0.00    +0.190 C 
BRANCH  31  32
ATOM     32  O   UNL     1      11.085  -2.003   1.673  0.00  0.00    -0.392 OA
ATOM     33  H   UNL     1      11.425  -2.572   0.969  0.00  0.00    +0.210 HD
ENDBRANCH  31  32
ENDBRANCH  23  31
ENDBRANCH  18  19
ENDBRANCH   9  18
TORSDOF 10
