REMARK  Name = ZINC49771001
REMARK  7 active torsions:
REMARK  status: ('A' for Active; 'I' for Inactive)
REMARK    1  A    between atoms: C_1  and  C_2
REMARK    2  A    between atoms: C_2  and  C_3
REMARK    3  A    between atoms: C_3  and  C_4
REMARK    4  A    between atoms: C_4  and  C_5
REMARK    5  A    between atoms: C_8  and  C_11
REMARK    6  A    between atoms: C_18  and  C_21
REMARK    7  A    between atoms: C_19  and  N_20
REMARK                            x       y       z     vdW  Elec       q    Type
REMARK                         _______ _______ _______ _____ _____    ______ ____
ROOT
ATOM      1  C   UNL     1       4.258  -4.601  -5.045  0.00  0.00    +0.141 A 
ATOM      2  N   UNL     1       3.962  -4.282  -6.279  0.00  0.00    -0.133 NA
ATOM      3  N   UNL     1       4.763  -4.872  -7.096  0.00  0.00    -0.127 NA
ATOM      4  C   UNL     1       5.623  -5.609  -6.414  0.00  0.00    +0.182 A 
ATOM      5  N   UNL     1       5.321  -5.448  -5.085  0.00  0.00    -0.285 N 
ATOM      6  C   UNL     1       6.051  -6.091  -4.126  0.00  0.00    +0.095 A 
ATOM      7  C   UNL     1       7.082  -6.892  -4.468  0.00  0.00    +0.023 A 
ATOM      8  C   UNL     1       7.421  -7.079  -5.818  0.00  0.00    -0.025 A 
ATOM      9  C   UNL     1       6.697  -6.449  -6.791  0.00  0.00    +0.073 A 
ATOM     10  C   UNL     1       8.573  -7.975  -6.192  0.00  0.00    +0.046 C 
ENDROOT
BRANCH   1  14
ATOM     11  C   UNL     1       1.455  -2.521  -2.524  0.00  0.00    -0.011 C 
ATOM     12  C   UNL     1       2.924  -2.096  -2.474  0.00  0.00    +0.004 C 
ATOM     13  C   UNL     1       3.640  -2.590  -3.733  0.00  0.00    +0.011 C 
ATOM     14  C   UNL     1       3.553  -4.115  -3.805  0.00  0.00    +0.057 C 
ATOM     15  C   UNL     1       2.083  -4.540  -3.855  0.00  0.00    +0.011 C 
ATOM     16  C   UNL     1       1.367  -4.046  -2.596  0.00  0.00    +0.004 C 
BRANCH  11  17
ATOM     17  C   UNL     1       0.739  -2.027  -1.265  0.00  0.00    +0.003 C 
BRANCH  17  18
ATOM     18  C   UNL     1       0.718  -0.497  -1.257  0.00  0.00    +0.000 C 
BRANCH  18  20
ATOM     19  C   UNL     1      -0.019   1.526   0.010  0.00  0.00    +0.004 C 
ATOM     20  C   UNL     1       0.002  -0.004   0.002  0.00  0.00    -0.003 C 
ENDBRANCH  18  20
ENDBRANCH  17  18
ENDBRANCH  11  17
ENDBRANCH   1  14
BRANCH   9  21
ATOM     21  N   UNL     1       7.021  -6.621  -8.137  0.00  0.00    -0.355 N 
ATOM     22  H   UNL     1       6.509  -6.163  -8.822  0.00  0.00    +0.142 HD
ATOM     23  H   UNL     1       7.759  -7.199  -8.388  0.00  0.00    +0.142 HD
ENDBRANCH   9  21
TORSDOF 5
