REMARK  Name = ZINC00488469
REMARK  10 active torsions:
REMARK  status: ('A' for Active; 'I' for Inactive)
REMARK    1  A    between atoms: C_1  and  O_2
REMARK    2  A    between atoms: O_2  and  C_3
REMARK    3  A    between atoms: C_5  and  C_26
REMARK    4  A    between atoms: C_8  and  O_9
REMARK    5  A    between atoms: O_9  and  C_10
REMARK    6  A    between atoms: C_12  and  O_25
REMARK    7  A    between atoms: C_14  and  O_24
REMARK    8  A    between atoms: C_16  and  O_23
REMARK    9  A    between atoms: C_18  and  C_21
REMARK   10  A    between atoms: C_21  and  O_22
REMARK                            x       y       z     vdW  Elec       q    Type
REMARK                         _______ _______ _______ _____ _____    ______ ____
ROOT
ATOM      1  C   UNL     1      -2.589   3.167   4.530  0.00  0.00    +0.339 C 
ATOM      2  C   UNL     1      -2.884   2.091   5.579  0.00  0.00    +0.214 C 
ATOM      3  C   UNL     1      -3.627   2.728   6.758  0.00  0.00    +0.180 C 
ATOM      4  C   UNL     1      -4.902   3.400   6.240  0.00  0.00    +0.177 C 
ATOM      5  C   UNL     1      -4.530   4.425   5.166  0.00  0.00    +0.179 C 
ATOM      6  O   UNL     1      -3.815   3.773   4.114  0.00  0.00    -0.331 OA
ENDROOT
BRANCH   4   7
ATOM      7  O   UNL     1      -5.768   2.412   5.679  0.00  0.00    -0.386 OA
ATOM      8  H   UNL     1      -6.041   1.727   6.305  0.00  0.00    +0.210 HD
ENDBRANCH   4   7
BRANCH   3   9
ATOM      9  O   UNL     1      -3.968   1.718   7.709  0.00  0.00    -0.386 OA
ATOM     10  H   UNL     1      -3.207   1.247   8.074  0.00  0.00    +0.210 HD
ENDBRANCH   3   9
BRANCH   2  11
ATOM     11  O   UNL     1      -1.656   1.524   6.039  0.00  0.00    -0.383 OA
ATOM     12  H   UNL     1      -1.130   1.106   5.343  0.00  0.00    +0.210 HD
ENDBRANCH   2  11
BRANCH   1  13
ATOM     13  O   UNL     1      -1.946   2.570   3.403  0.00  0.00    -0.457 OA
BRANCH  13  19
ATOM     14  C   UNL     1      -0.787   2.893   1.346  0.00  0.00    +0.162 A 
ATOM     15  C   UNL     1      -0.256   3.746   0.401  0.00  0.00    +0.060 A 
ATOM     16  C   UNL     1      -0.371   5.131   0.569  0.00  0.00    +0.018 A 
ATOM     17  C   UNL     1      -1.016   5.643   1.701  0.00  0.00    +0.015 A 
ATOM     18  C   UNL     1      -1.538   4.785   2.642  0.00  0.00    +0.050 A 
ATOM     19  C   UNL     1      -1.429   3.411   2.472  0.00  0.00    +0.165 A 
BRANCH  14  21
ATOM     20  C   UNL     1      -0.013   1.086   0.008  0.00  0.00    +0.277 C 
ATOM     21  O   UNL     1      -0.682   1.547   1.184  0.00  0.00    -0.491 OA
ENDBRANCH  14  21
BRANCH  16  22
ATOM     22  C   UNL     1       0.188   6.044  -0.436  0.00  0.00    +0.258 C 
ATOM     23  O   UNL     1       0.746   5.599  -1.417  0.00  0.00    -0.296 OA
ENDBRANCH  16  22
ENDBRANCH  13  19
ENDBRANCH   1  13
BRANCH   5  24
ATOM     24  C   UNL     1      -5.803   5.058   4.602  0.00  0.00    +0.190 C 
BRANCH  24  25
ATOM     25  O   UNL     1      -5.452   6.096   3.684  0.00  0.00    -0.392 OA
ATOM     26  H   UNL     1      -6.213   6.543   3.286  0.00  0.00    +0.210 HD
ENDBRANCH  24  25
ENDBRANCH   5  24
TORSDOF 9
