REMARK  Name = ZINC11866828
REMARK  8 active torsions:
REMARK  status: ('A' for Active; 'I' for Inactive)
REMARK    1  A    between atoms: CZ_3  and  OH_32
REMARK    2  A    between atoms: CG_6  and  CB_7
REMARK    3  A    between atoms: CB_7  and  CA_8
REMARK    4  A    between atoms: CA_8  and  C_10
REMARK    5  A    between atoms: CA_8  and  N_12
REMARK    6  A    between atoms: C_13  and  C_15
REMARK    7  A    between atoms: C_15  and  O_16
REMARK    8  A    between atoms: O_16  and  C_17
REMARK                            x       y       z     vdW  Elec       q    Type
REMARK                         _______ _______ _______ _____ _____    ______ ____
ROOT
ATOM      1  N   TYR A   1       2.187  -2.938  -0.035  0.00  0.00    -0.299 N 
ATOM      2  C   UNK A   0       1.107  -2.132  -0.020  0.00  0.00    +0.251 C 
ATOM      3  O   UNK A   0      -0.007  -2.611  -0.012  0.00  0.00    -0.272 OA
ATOM      4  H   TYR A   1       3.078  -2.555  -0.041  0.00  0.00    +0.150 HD
ENDROOT
BRANCH   1   5
ATOM      5  CA  TYR A   1       2.014  -4.393  -0.041  0.00  0.00    +0.191 C 
BRANCH   5   6
ATOM      6  C   TYR A   1       1.846  -4.885   1.374  0.00  0.00    +0.376 C 
ATOM      7  O   TYR A   1       1.867  -4.101   2.293  0.00  0.00    -0.244 OA
ATOM      8  OXT TYR A   1       1.672  -6.194   1.613  0.00  0.00    -0.244 OA
ENDBRANCH   5   6
BRANCH   5   9
ATOM      9  CB  TYR A   1       3.247  -5.050  -0.666  0.00  0.00    +0.069 C 
BRANCH   9  15
ATOM     10  CD1 TYR A   1       2.734  -5.427  -3.086  0.00  0.00    +0.007 A 
ATOM     11  CE1 TYR A   1       2.819  -5.063  -4.416  0.00  0.00    +0.045 A 
ATOM     12  CZ  TYR A   1       3.527  -3.927  -4.779  0.00  0.00    +0.117 A 
ATOM     13  CE2 TYR A   1       4.145  -3.156  -3.805  0.00  0.00    +0.045 A 
ATOM     14  CD2 TYR A   1       4.053  -3.522  -2.476  0.00  0.00    +0.007 A 
ATOM     15  CG  TYR A   1       3.346  -4.654  -2.116  0.00  0.00    -0.045 A 
BRANCH  12  16
ATOM     16  OH  TYR A   1       3.616  -3.570  -6.088  0.00  0.00    -0.507 OA
ATOM     17  HH  TYR A   1       4.376  -3.951  -6.549  0.00  0.00    +0.292 HD
ENDBRANCH  12  16
ENDBRANCH   9  15
ENDBRANCH   5   9
ENDBRANCH   1   5
BRANCH   2  18
ATOM     18  C   UNK A   0       1.284  -0.635  -0.014  0.00  0.00    +0.324 C 
BRANCH  18  19
ATOM     19  O   UNK A   0       0.002  -0.004   0.002  0.00  0.00    -0.483 OA
BRANCH  19  20
ATOM     20  C   UNK A   0      -0.016   1.353   0.009  0.00  0.00    +0.125 A 
ATOM     21  C   UNK A   0       1.184   2.061   0.002  0.00  0.00    +0.046 A 
ATOM     22  C   UNK A   0       1.183   3.425   0.009  0.00  0.00    +0.015 A 
ATOM     23  C   UNK A   0      -0.033   4.119   0.025  0.00  0.00    +0.021 A 
ATOM     24  C   UNK A   0      -1.247   3.410   0.032  0.00  0.00    +0.143 A 
ATOM     25  C   UNK A   0      -1.229   2.024   0.019  0.00  0.00    +0.092 A 
ATOM     26  O   UNK A   0      -2.415   4.088   0.049  0.00  0.00    -0.422 OA
ATOM     27  C   UNK A   0      -2.443   5.427   0.055  0.00  0.00    +0.341 A 
ATOM     28  O   UNK A   0      -3.521   5.993   0.072  0.00  0.00    -0.245 OA
ATOM     29  C   UNK A   0      -1.259   6.206   0.043  0.00  0.00    +0.041 A 
ATOM     30  C   UNK A   0      -0.059   5.587   0.033  0.00  0.00    -0.027 A 
ATOM     31  C   UNK A   0       1.249   6.328   0.040  0.00  0.00    +0.036 C 
ATOM     32  C   UNK A   0       1.046   7.783  -0.383  0.00  0.00    +0.005 C 
ATOM     33  C   UNK A   0      -0.094   8.372   0.457  0.00  0.00    +0.005 C 
ATOM     34  C   UNK A   0      -1.400   7.705   0.032  0.00  0.00    +0.042 C 
ENDBRANCH  19  20
ENDBRANCH  18  19
ENDBRANCH   2  18
TORSDOF 8
