REMARK  Name = ZINC39502159
REMARK  6 active torsions:
REMARK  status: ('A' for Active; 'I' for Inactive)
REMARK    1  A    between atoms: C_1  and  C_2
REMARK    2  A    between atoms: C_5  and  N_11
REMARK    3  A    between atoms: C_6  and  N_8
REMARK    4  A    between atoms: C_12  and  C_14
REMARK    5  A    between atoms: C_14  and  O_15
REMARK    6  A    between atoms: O_15  and  C_16
REMARK                            x       y       z     vdW  Elec       q    Type
REMARK                         _______ _______ _______ _____ _____    ______ ____
ROOT
ATOM      1  N   UNL     1       0.038  -3.996  -0.029  0.00  0.00    -0.281 N 
ATOM      2  C   UNL     1      -0.101  -4.612  -1.220  0.00  0.00    +0.255 C 
ATOM      3  O   UNL     1      -0.140  -3.957  -2.240  0.00  0.00    -0.272 OA
ATOM      4  H   UNL     1       0.151  -4.522   0.779  0.00  0.00    +0.155 HD
ENDROOT
BRANCH   1   9
ATOM      5  C   UNL     1      -0.037   1.669   0.263  0.00  0.00    +0.044 C 
ATOM      6  C   UNL     1      -0.018   0.164   0.186  0.00  0.00    -0.048 A 
ATOM      7  C   UNL     1      -0.652  -0.482  -0.860  0.00  0.00    +0.005 A 
ATOM      8  C   UNL     1      -0.635  -1.861  -0.934  0.00  0.00    +0.026 A 
ATOM      9  C   UNL     1       0.020  -2.599   0.043  0.00  0.00    +0.064 A 
ATOM     10  C   UNL     1       0.655  -1.948   1.092  0.00  0.00    +0.148 A 
ATOM     11  C   UNL     1       0.639  -0.568   1.157  0.00  0.00    +0.038 A 
BRANCH  10  12
ATOM     12  N   UNL     1       1.354  -2.731   2.135  0.00  0.00    +0.058 N 
ATOM     13  O   UNL     1       1.825  -2.171   3.098  0.00  0.00    -0.126 OA
ATOM     14  O   UNL     1       1.454  -3.931   2.025  0.00  0.00    -0.126 OA
ENDBRANCH  10  12
ENDBRANCH   1   9
BRANCH   2  15
ATOM     15  C   UNL     1      -0.207  -6.114  -1.284  0.00  0.00    +0.326 C 
BRANCH  15  16
ATOM     16  O   UNL     1      -0.346  -6.524  -2.646  0.00  0.00    -0.466 OA
BRANCH  16  17
ATOM     17  C   UNL     1      -0.454  -7.853  -2.880  0.00  0.00    +0.227 A 
ATOM     18  C   UNL     1      -0.590  -8.341  -4.207  0.00  0.00    +0.069 A 
ATOM     19  C   UNL     1      -0.636  -7.614  -5.464  0.00  0.00    +0.023 A 
ATOM     20  C   UNL     1      -0.770  -8.296  -6.610  0.00  0.00    +0.048 A 
ATOM     21  S   UNL     1      -0.846  -9.996  -6.078  0.00  0.00    -0.077 S 
ATOM     22  C   UNL     1      -0.695  -9.744  -4.329  0.00  0.00    +0.115 A 
ATOM     23  N   UNL     1      -0.668 -10.530  -3.271  0.00  0.00    -0.228 NA
ATOM     24  C   UNL     1      -0.541 -10.016  -2.063  0.00  0.00    +0.226 A 
ATOM     25  N   UNL     1      -0.430  -8.713  -1.877  0.00  0.00    -0.201 NA
ENDBRANCH  16  17
ENDBRANCH  15  16
ENDBRANCH   2  15
TORSDOF 5
