REMARK  Name = ZINC14038062
REMARK  9 active torsions:
REMARK  status: ('A' for Active; 'I' for Inactive)
REMARK    1  A    between atoms: C_1  and  C_2
REMARK    2  A    between atoms: C_2  and  C_4
REMARK    3  A    between atoms: C_2  and  O_20
REMARK    4  A    between atoms: N_6  and  N_7
REMARK    5  A    between atoms: C_8  and  C_10
REMARK    6  A    between atoms: C_10  and  O_11
REMARK    7  A    between atoms: O_11  and  C_12
REMARK    8  A    between atoms: O_20  and  C_21
REMARK    9  A    between atoms: C_24  and  N_27
REMARK                            x       y       z     vdW  Elec       q    Type
REMARK                         _______ _______ _______ _____ _____    ______ ____
ROOT
ATOM      1  C   UNL     1       3.095   6.500   0.171  0.00  0.00    +0.270 C 
ATOM      2  O   UNL     1       4.233   6.133  -0.034  0.00  0.00    -0.270 OA
ATOM      3  N   UNL     1       2.116   5.591   0.349  0.00  0.00    -0.231 N 
ATOM      4  H   UNL     1       1.206   5.883   0.513  0.00  0.00    +0.173 HD
ENDROOT
BRANCH   3   5
ATOM      5  N   UNL     1       2.413   4.222   0.296  0.00  0.00    -0.231 N 
ATOM      6  C   UNL     1       1.433   3.313   0.473  0.00  0.00    +0.267 C 
ATOM      7  O   UNL     1       0.296   3.679   0.679  0.00  0.00    -0.271 OA
ATOM      8  H   UNL     1       3.322   3.929   0.131  0.00  0.00    +0.173 HD
BRANCH   6   9
ATOM      9  C   UNL     1       1.753   1.841   0.416  0.00  0.00    +0.326 C 
BRANCH   9  10
ATOM     10  O   UNL     1       0.559   1.087   0.633  0.00  0.00    -0.482 OA
BRANCH  10  11
ATOM     11  C   UNL     1       0.673  -0.268   0.613  0.00  0.00    +0.135 A 
ATOM     12  C   UNL     1       1.909  -0.858   0.390  0.00  0.00    +0.048 A 
ATOM     13  C   UNL     1       2.023  -2.234   0.370  0.00  0.00    +0.023 A 
ATOM     14  C   UNL     1       0.906  -3.025   0.572  0.00  0.00    +0.042 A 
ATOM     15  C   UNL     1      -0.328  -2.440   0.795  0.00  0.00    +0.039 A 
ATOM     16  C   UNL     1      -0.446  -1.063   0.821  0.00  0.00    +0.061 A 
ATOM     17 BR   UNL     1      -2.130  -0.263   1.133  0.00  0.00    -0.046 Br
ATOM     18 CL   UNL     1       1.052  -4.755   0.547  0.00  0.00    -0.084 Cl
ENDBRANCH  10  11
ENDBRANCH   9  10
ENDBRANCH   6   9
ENDBRANCH   3   5
BRANCH   1  20
ATOM     19  C   UNL     1       1.849   8.338  -0.933  0.00  0.00    +0.062 C 
ATOM     20  C   UNL     1       2.776   7.971   0.228  0.00  0.00    +0.257 C 
BRANCH  20  21
ATOM     21  O   UNL     1       3.986   8.725   0.128  0.00  0.00    -0.480 OA
BRANCH  21  22
ATOM     22  C   UNL     1       3.980   9.974   0.664  0.00  0.00    +0.122 A 
ATOM     23  C   UNL     1       5.152  10.716   0.710  0.00  0.00    +0.048 A 
ATOM     24  C   UNL     1       5.143  11.987   1.250  0.00  0.00    +0.036 A 
ATOM     25  C   UNL     1       3.969  12.517   1.754  0.00  0.00    +0.126 A 
ATOM     26  C   UNL     1       2.801  11.778   1.715  0.00  0.00    +0.036 A 
ATOM     27  C   UNL     1       2.804  10.508   1.171  0.00  0.00    +0.048 A 
BRANCH  25  28
ATOM     28  N   UNL     1       3.963  13.877   2.338  0.00  0.00    +0.056 N 
ATOM     29  O   UNL     1       2.930  14.344   2.784  0.00  0.00    -0.126 OA
ATOM     30  O   UNL     1       4.992  14.529   2.374  0.00  0.00    -0.126 OA
ENDBRANCH  25  28
ENDBRANCH  21  22
ENDBRANCH  20  21
ENDBRANCH   1  20
TORSDOF 8
