REMARK  Name = ZINC05359685
REMARK  7 active torsions:
REMARK  status: ('A' for Active; 'I' for Inactive)
REMARK    1  A    between atoms: C_1  and  C_2
REMARK    2  A    between atoms: C_2  and  N_22
REMARK    3  A    between atoms: C_4  and  N_13
REMARK    4  A    between atoms: C_14  and  C_15
REMARK    5  A    between atoms: C_20  and  O_21
REMARK    6  A    between atoms: C_23  and  C_24
REMARK    7  A    between atoms: C_29  and  O_30
REMARK                            x       y       z     vdW  Elec       q    Type
REMARK                         _______ _______ _______ _____ _____    ______ ____
ROOT
ATOM      1  C   UNL     1      -0.012   1.524   0.018  0.00  0.00    +0.083 C 
ATOM      2  C   UNL     1       0.018  -0.005   0.018  0.00  0.00    +0.201 C 
ATOM      3  C   UNL     1       0.755  -0.508  -1.229  0.00  0.00    +0.102 C 
ATOM      4  C   UNL     1       2.141   0.141  -1.262  0.00  0.00    +0.118 C 
ATOM      5  C   UNL     1       2.797   0.006   0.088  0.00  0.00    +0.017 A 
ATOM      6  C   UNL     1       4.168   0.179   0.183  0.00  0.00    +0.009 A 
ATOM      7  C   UNL     1       4.802   0.067   1.405  0.00  0.00    +0.001 A 
ATOM      8  C   UNL     1       4.067  -0.219   2.541  0.00  0.00    +0.004 A 
ATOM      9  C   UNL     1       2.701  -0.394   2.452  0.00  0.00    +0.046 A 
ATOM     10  C   UNL     1       2.060  -0.283   1.223  0.00  0.00    +0.129 A 
ATOM     11  O   UNL     1       0.715  -0.472   1.173  0.00  0.00    -0.465 OA
ENDROOT
BRANCH   4  12
ATOM     12  N   UNL     1       2.967  -0.524  -2.273  0.00  0.00    -0.383 N 
ATOM     13  C   UNL     1       3.447   0.155  -3.265  0.00  0.00    +0.090 C 
ATOM     14  H   UNL     1       3.154  -1.472  -2.199  0.00  0.00    +0.160 HD
BRANCH  13  15
ATOM     15  C   UNL     1       4.367  -0.487  -4.221  0.00  0.00    +0.032 A 
ATOM     16  C   UNL     1       4.979   0.269  -5.224  0.00  0.00    +0.013 A 
ATOM     17  C   UNL     1       5.838  -0.338  -6.114  0.00  0.00    +0.001 A 
ATOM     18  C   UNL     1       6.099  -1.695  -6.019  0.00  0.00    +0.004 A 
ATOM     19  C   UNL     1       5.502  -2.454  -5.032  0.00  0.00    +0.046 A 
ATOM     20  C   UNL     1       4.639  -1.859  -4.124  0.00  0.00    +0.125 A 
BRANCH  20  21
ATOM     21  O   UNL     1       4.056  -2.602  -3.150  0.00  0.00    -0.506 OA
ATOM     22  H   UNL     1       3.208  -2.990  -3.406  0.00  0.00    +0.292 HD
ENDBRANCH  20  21
ENDBRANCH  13  15
ENDBRANCH   4  12
BRANCH   2  23
ATOM     23  N   UNL     1      -1.352  -0.525   0.025  0.00  0.00    -0.246 NA
ATOM     24  C   UNL     1      -2.151  -0.231   1.000  0.00  0.00    +0.120 C 
BRANCH  24  25
ATOM     25  C   UNL     1      -3.529  -0.754   1.007  0.00  0.00    +0.034 A 
ATOM     26  C   UNL     1      -4.397  -0.434   2.054  0.00  0.00    +0.013 A 
ATOM     27  C   UNL     1      -5.684  -0.927   2.055  0.00  0.00    +0.001 A 
ATOM     28  C   UNL     1      -6.122  -1.738   1.021  0.00  0.00    +0.004 A 
ATOM     29  C   UNL     1      -5.274  -2.063  -0.020  0.00  0.00    +0.046 A 
ATOM     30  C   UNL     1      -3.978  -1.571  -0.040  0.00  0.00    +0.125 A 
BRANCH  30  31
ATOM     31  O   UNL     1      -3.146  -1.884  -1.065  0.00  0.00    -0.506 OA
ATOM     32  H   UNL     1      -2.631  -2.690  -0.922  0.00  0.00    +0.292 HD
ENDBRANCH  30  31
ENDBRANCH  24  25
ENDBRANCH   2  23
TORSDOF 6
