REMARK  Name = ZINC35555848
REMARK  5 active torsions:
REMARK  status: ('A' for Active; 'I' for Inactive)
REMARK    1  A    between atoms: C_1  and  C_2
REMARK    2  A    between atoms: C_2  and  C_3
REMARK    3  A    between atoms: C_2  and  N_4
REMARK    4  A    between atoms: C_5  and  C_7
REMARK    5  A    between atoms: C_12  and  C_29
REMARK                            x       y       z     vdW  Elec       q    Type
REMARK                         _______ _______ _______ _____ _____    ______ ____
ROOT
ATOM      1  C   UNL     1       0.784  -1.175   3.548  0.00  0.00    +0.101 C 
ATOM      2  C   UNL     1       1.929  -0.213   3.863  0.00  0.00    +0.051 C 
ATOM      3  C   UNL     1       2.592  -0.654   5.142  0.00  0.00    -0.025 A 
ATOM      4  C   UNL     1       3.934  -0.388   5.342  0.00  0.00    +0.017 A 
ATOM      5  C   UNL     1       4.555  -0.797   6.508  0.00  0.00    +0.055 A 
ATOM      6  C   UNL     1       3.835  -1.474   7.476  0.00  0.00    +0.014 A 
ATOM      7  C   UNL     1       2.494  -1.738   7.282  0.00  0.00    +0.024 A 
ATOM      8  C   UNL     1       1.866  -1.322   6.111  0.00  0.00    +0.033 A 
ATOM      9  N   UNL     1       0.494  -1.584   5.956  0.00  0.00    -0.323 N 
ATOM     10  C   UNL     1      -0.193  -1.225   4.727  0.00  0.00    +0.103 C 
ATOM     11  C   UNL     1      -1.325  -2.175   4.370  0.00  0.00    +0.129 C 
ATOM     12  N   UNL     1      -1.988  -2.730   5.534  0.00  0.00    -0.313 N 
ATOM     13  C   UNL     1      -1.261  -3.166   6.714  0.00  0.00    +0.125 C 
ATOM     14  C   UNL     1      -0.192  -2.172   7.105  0.00  0.00    +0.124 C 
ATOM     15  C   UNL     1      -3.372  -2.850   5.520  0.00  0.00    +0.099 A 
ATOM     16  C   UNL     1      -4.019  -3.492   6.571  0.00  0.00    +0.042 A 
ATOM     17  C   UNL     1      -5.397  -3.605   6.544  0.00  0.00    +0.005 A 
ATOM     18  C   UNL     1      -6.085  -3.070   5.463  0.00  0.00    +0.018 A 
ATOM     19  C   UNL     1      -5.379  -2.446   4.455  0.00  0.00    +0.084 A 
ATOM     20  N   UNL     1      -4.064  -2.348   4.509  0.00  0.00    -0.350 N 
ATOM     21  H   UNL     1      -3.593  -1.901   3.789  0.00  0.00    +0.166 HD
ENDROOT
BRANCH   1  23
ATOM     22  N   UNL     1       0.719  -0.581   1.148  0.00  0.00    -0.313 N 
ATOM     23  C   UNL     1       0.057  -0.701   2.316  0.00  0.00    +0.218 C 
ATOM     24  O   UNL     1      -1.123  -0.427   2.375  0.00  0.00    -0.275 OA
ATOM     25  H   UNL     1       1.663  -0.800   1.100  0.00  0.00    +0.149 HD
BRANCH  22  27
ATOM     26  C   UNL     1      -0.008   1.409  -0.074  0.00  0.00    +0.027 C 
ATOM     27  C   UNL     1       0.013  -0.121  -0.050  0.00  0.00    +0.067 C 
ATOM     28  C   UNL     1       0.731  -0.640  -1.297  0.00  0.00    +0.027 C 
ENDBRANCH  22  27
ENDBRANCH   1  23
BRANCH   5  29
ATOM     29  C   UNL     1       6.018  -0.506   6.724  0.00  0.00    +0.417 C 
ATOM     30  F   UNL     1       6.157   0.732   7.361  0.00  0.00    -0.166 F 
ATOM     31  F   UNL     1       6.579  -1.508   7.523  0.00  0.00    -0.166 F 
ATOM     32  F   UNL     1       6.674  -0.472   5.489  0.00  0.00    -0.166 F 
ENDBRANCH   5  29
TORSDOF 3
