REMARK  Name = ZINC40320101
REMARK  12 active torsions:
REMARK  status: ('A' for Active; 'I' for Inactive)
REMARK    1  A    between atoms: C_1  and  O_2
REMARK    2  A    between atoms: O_2  and  C_3
REMARK    3  A    between atoms: C_5  and  C_30
REMARK    4  A    between atoms: C_8  and  O_9
REMARK    5  A    between atoms: O_9  and  C_10
REMARK    6  A    between atoms: C_10  and  C_11
REMARK    7  A    between atoms: C_11  and  C_13
REMARK    8  A    between atoms: C_11  and  O_29
REMARK    9  A    between atoms: C_13  and  N_14
REMARK   10  A    between atoms: N_14  and  C_15
REMARK   11  A    between atoms: N_14  and  C_21
REMARK   12  A    between atoms: C_15  and  C_16
REMARK                            x       y       z     vdW  Elec       q    Type
REMARK                         _______ _______ _______ _____ _____    ______ ____
ROOT
ATOM      1  C   UNL     1       1.082  -6.146  -0.444  0.00  0.00    -0.043 C 
ENDROOT
BRANCH   1   2
ATOM      2  N   UNL     1       2.305  -6.947  -0.591  0.00  0.00    +0.389 N 
ATOM      3  H   UNL     1       2.714  -6.771  -1.497  0.00  0.00    -0.081 HD
BRANCH   2   4
ATOM      4  C   UNL     1       3.263  -6.576   0.459  0.00  0.00    -0.045 C 
ATOM      5  C   UNL     1       4.687  -6.958   0.022  0.00  0.00    +0.009 C 
ATOM      6  C   UNL     1       5.650  -6.871   1.230  0.00  0.00    +0.164 C 
ATOM      7  S   UNL     1       4.540  -7.206   2.658  0.00  0.00    -0.033 S 
ATOM      8  O   UNL     1       4.504  -6.059   3.495  0.00  0.00    -0.174 OA
ATOM      9  O   UNL     1       4.874  -8.469   3.217  0.00  0.00    -0.174 OA
ATOM     10  C   UNL     1       2.933  -7.350   1.768  0.00  0.00    +0.151 C 
ENDBRANCH   2   4
BRANCH   2  11
ATOM     11  C   UNL     1       1.974  -8.373  -0.471  0.00  0.00    -0.003 C 
BRANCH  11  12
ATOM     12  C   UNL     1       3.204  -9.199  -0.750  0.00  0.00    +0.089 A 
ATOM     13  C   UNL     1       3.957  -9.825   0.173  0.00  0.00    +0.042 A 
ATOM     14  C   UNL     1       5.001 -10.475  -0.524  0.00  0.00    +0.041 A 
ATOM     15  C   UNL     1       4.824 -10.208  -1.830  0.00  0.00    +0.195 A 
ATOM     16  O   UNL     1       3.730  -9.439  -1.962  0.00  0.00    -0.470 OA
ENDBRANCH  11  12
ENDBRANCH   2  11
ENDBRANCH   1   2
BRANCH   1  17
ATOM     17  C   UNL     1       1.367  -4.700  -0.853  0.00  0.00    +0.135 C 
BRANCH  17  18
ATOM     18  O   UNL     1       2.251  -4.101   0.096  0.00  0.00    -0.390 OA
ATOM     19  H   UNL     1       1.935  -4.144   1.009  0.00  0.00    +0.210 HD
ENDBRANCH  17  18
BRANCH  17  20
ATOM     20  C   UNL     1       0.055  -3.914  -0.894  0.00  0.00    +0.258 C 
BRANCH  20  21
ATOM     21  O   UNL     1       0.304  -2.596  -1.388  0.00  0.00    -0.486 OA
BRANCH  21  27
ATOM     22  C   UNL     1      -0.589  -0.463  -1.962  0.00  0.00    +0.162 A 
ATOM     23  C   UNL     1      -1.673   0.384  -2.069  0.00  0.00    +0.060 A 
ATOM     24  C   UNL     1      -2.947  -0.063  -1.695  0.00  0.00    +0.018 A 
ATOM     25  C   UNL     1      -3.112  -1.368  -1.214  0.00  0.00    +0.015 A 
ATOM     26  C   UNL     1      -2.025  -2.206  -1.110  0.00  0.00    +0.050 A 
ATOM     27  C   UNL     1      -0.763  -1.763  -1.487  0.00  0.00    +0.162 A 
BRANCH  22  29
ATOM     28  C   UNL     1       0.754   1.310  -2.802  0.00  0.00    +0.277 C 
ATOM     29  O   UNL     1       0.649  -0.032  -2.324  0.00  0.00    -0.491 OA
ENDBRANCH  22  29
BRANCH  24  30
ATOM     30  C   UNL     1      -4.104   0.833  -1.806  0.00  0.00    +0.258 C 
ATOM     31  O   UNL     1      -5.206   0.444  -1.481  0.00  0.00    -0.296 OA
ENDBRANCH  24  30
ENDBRANCH  21  27
ENDBRANCH  20  21
ENDBRANCH  17  20
ENDBRANCH   1  17
TORSDOF 11
