REMARK  Name = ZINC16286413
REMARK  5 active torsions:
REMARK  status: ('A' for Active; 'I' for Inactive)
REMARK    1  A    between atoms: C_1  and  C_2
REMARK    2  A    between atoms: C_2  and  C_29
REMARK    3  A    between atoms: C_6  and  C_19
REMARK    4  A    between atoms: C_13  and  S_17
REMARK    5  A    between atoms: S_17  and  C_18
REMARK                            x       y       z     vdW  Elec       q    Type
REMARK                         _______ _______ _______ _____ _____    ______ ____
ROOT
ATOM      1  C   UNL     1       4.958   5.513   0.992  0.00  0.00    +0.011 C 
ATOM      2  C   UNL     1       5.089   5.315  -0.519  0.00  0.00    -0.023 C 
ATOM      3  C   UNL     1       5.004   3.824  -0.853  0.00  0.00    +0.058 C 
ATOM      4  C   UNL     1       3.663   3.283  -0.419  0.00  0.00    +0.017 C 
ATOM      5  C   UNL     1       2.565   4.068  -0.418  0.00  0.00    +0.024 C 
ATOM      6  C   UNL     1       1.224   3.535   0.017  0.00  0.00    +0.092 C 
ATOM      7  C   UNL     1       1.202   2.036   0.002  0.00  0.00    +0.069 A 
ATOM      8  C   UNL     1      -0.016   1.346   0.009  0.00  0.00    +0.258 A 
ATOM      9  O   UNL     1      -1.075   1.953   0.018  0.00  0.00    -0.267 OA
ATOM     10  N   UNL     1       0.002  -0.004   0.002  0.00  0.00    -0.302 N 
ATOM     11  H   UNL     1      -0.832  -0.500   0.007  0.00  0.00    +0.171 HD
ATOM     12  C   UNL     1       1.190  -0.671  -0.012  0.00  0.00    +0.171 A 
ATOM     13  N   UNL     1       2.338  -0.027  -0.021  0.00  0.00    -0.208 NA
ATOM     14  C   UNL     1       2.380   1.310  -0.016  0.00  0.00    +0.135 A 
ATOM     15  N   UNL     1       3.591   1.973  -0.031  0.00  0.00    -0.302 N 
ATOM     16  C   UNL     1       2.638   5.415  -0.818  0.00  0.00    +0.162 C 
ATOM     17  O   UNL     1       1.626   6.088  -0.828  0.00  0.00    -0.292 OA
ATOM     18  C   UNL     1       3.942   6.037  -1.235  0.00  0.00    +0.086 C 
ATOM     19  C   UNL     1       6.429   5.875  -0.999  0.00  0.00    +0.011 C 
ATOM     20  H   UNL     1       4.398   1.506   0.236  0.00  0.00    +0.153 HD
ENDROOT
BRANCH   6  21
ATOM     21  C   UNL     1       0.931   4.017   1.414  0.00  0.00    -0.034 A 
ATOM     22  C   UNL     1       1.778   3.680   2.454  0.00  0.00    +0.004 A 
ATOM     23  C   UNL     1       1.513   4.127   3.734  0.00  0.00    +0.001 A 
ATOM     24  C   UNL     1       0.394   4.902   3.979  0.00  0.00    +0.015 A 
ATOM     25  C   UNL     1      -0.457   5.234   2.940  0.00  0.00    +0.018 A 
ATOM     26  C   UNL     1      -0.188   4.791   1.658  0.00  0.00    +0.019 A 
ATOM     27 BR   UNL     1      -1.987   6.293   3.274  0.00  0.00    -0.050 Br
ENDBRANCH   6  21
BRANCH  12  28
ATOM     28  S   UNL     1       1.189  -2.433  -0.019  0.00  0.00    -0.091 S 
ATOM     29  C   UNL     1       2.971  -2.748  -0.038  0.00  0.00    +0.093 C 
ENDBRANCH  12  28
TORSDOF 2
