REMARK  Name = ZINC65144410
REMARK  6 active torsions:
REMARK  status: ('A' for Active; 'I' for Inactive)
REMARK    1  A    between atoms: C_5  and  C_7
REMARK    2  A    between atoms: C_9  and  C_12
REMARK    3  A    between atoms: N_14  and  N_15
REMARK    4  A    between atoms: N_18  and  C_19
REMARK    5  A    between atoms: C_19  and  C_20
REMARK    6  A    between atoms: C_20  and  C_21
REMARK                            x       y       z     vdW  Elec       q    Type
REMARK                         _______ _______ _______ _____ _____    ______ ____
ROOT
ATOM      1  C   UNL     1       0.333  -5.528   1.135  0.00  0.00    +0.282 C 
ATOM      2  O   UNL     1      -0.441  -5.424   2.066  0.00  0.00    -0.267 OA
ATOM      3  N   UNL     1       0.707  -6.749   0.704  0.00  0.00    -0.228 N 
ATOM      4  H   UNL     1       1.325  -6.833  -0.039  0.00  0.00    +0.173 HD
ENDROOT
BRANCH   3   5
ATOM      5  N   UNL     1       0.204  -7.897   1.329  0.00  0.00    -0.218 N 
ATOM      6  C   UNL     1       0.578  -9.118   0.898  0.00  0.00    +0.316 C 
ATOM      7  O   UNL     1       0.141 -10.115   1.440  0.00  0.00    -0.251 OA
ATOM      8  N   UNL     1       1.437  -9.234  -0.135  0.00  0.00    -0.298 N 
ATOM      9  H   UNL     1      -0.414  -7.814   2.072  0.00  0.00    +0.174 HD
ATOM     10  H   UNL     1       1.785  -8.439  -0.568  0.00  0.00    +0.150 HD
BRANCH   8  11
ATOM     11  C   UNL     1       1.843 -10.561  -0.604  0.00  0.00    +0.112 C 
BRANCH  11  12
ATOM     12  C   UNL     1       2.814 -10.412  -1.777  0.00  0.00    +0.074 C 
BRANCH  12  13
ATOM     13  C   UNL     1       3.233 -11.777  -2.259  0.00  0.00    +0.043 A 
ATOM     14  C   UNL     1       3.066 -12.112  -3.590  0.00  0.00    +0.023 A 
ATOM     15  C   UNL     1       3.454 -13.371  -4.023  0.00  0.00    +0.003 A 
ATOM     16  C   UNL     1       3.998 -14.249  -3.098  0.00  0.00    +0.020 A 
ATOM     17  C   UNL     1       4.133 -13.844  -1.784  0.00  0.00    +0.111 A 
ATOM     18  N   UNL     1       3.758 -12.636  -1.408  0.00  0.00    -0.260 NA
ENDBRANCH  12  13
ENDBRANCH  11  12
ENDBRANCH   8  11
ENDBRANCH   3   5
BRANCH   1  21
ATOM     19  C   UNL     1       1.249  -2.161  -0.022  0.00  0.00    +0.171 A 
ATOM     20  C   UNL     1       0.561  -2.978   0.820  0.00  0.00    +0.086 A 
ATOM     21  C   UNL     1       0.866  -4.312   0.473  0.00  0.00    +0.170 A 
ATOM     22  N   UNL     1       1.704  -4.288  -0.536  0.00  0.00    -0.073 NA
ATOM     23  O   UNL     1       1.954  -2.934  -0.867  0.00  0.00    -0.354 OA
BRANCH  19  28
ATOM     24  C   UNL     1      -0.017   1.375   0.010  0.00  0.00    +0.001 A 
ATOM     25  C   UNL     1       1.170   2.087   0.002  0.00  0.00    +0.003 A 
ATOM     26  C   UNL     1       2.383   1.424  -0.013  0.00  0.00    +0.039 A 
ATOM     27  C   UNL     1       2.417   0.042  -0.021  0.00  0.00    +0.134 A 
ATOM     28  C   UNL     1       1.222  -0.683  -0.013  0.00  0.00    +0.055 A 
ATOM     29  C   UNL     1       0.002  -0.004   0.002  0.00  0.00    +0.014 A 
ATOM     30  F   UNL     1       3.602  -0.607  -0.037  0.00  0.00    -0.205 F 
ENDBRANCH  19  28
ENDBRANCH   1  21
TORSDOF 6
