REMARK  Name = ZINC60354839
REMARK  8 active torsions:
REMARK  status: ('A' for Active; 'I' for Inactive)
REMARK    1  A    between atoms: C_1  and  C_2
REMARK    2  A    between atoms: C_5  and  C_7
REMARK    3  A    between atoms: C_7  and  C_9
REMARK    4  A    between atoms: C_7  and  N_28
REMARK    5  A    between atoms: C_9  and  N_10
REMARK    6  A    between atoms: C_11  and  C_13
REMARK    7  A    between atoms: C_15  and  S_19
REMARK    8  A    between atoms: S_19  and  N_22
REMARK                            x       y       z     vdW  Elec       q    Type
REMARK                         _______ _______ _______ _____ _____    ______ ____
ROOT
ATOM      1  N   UNL     1       3.139  -4.616  -1.417  0.00  0.00    -0.311 N 
ATOM      2  C   UNL     1       3.698  -5.031  -2.571  0.00  0.00    +0.260 C 
ATOM      3  O   UNL     1       3.298  -4.591  -3.634  0.00  0.00    -0.269 OA
ATOM      4  H   UNL     1       3.457  -4.966  -0.571  0.00  0.00    +0.149 HD
ENDROOT
BRANCH   2   5
ATOM      5  C   UNL     1       4.786  -6.014  -2.547  0.00  0.00    +0.104 A 
ATOM      6  C   UNL     1       5.450  -6.521  -3.644  0.00  0.00    +0.060 A 
ATOM      7  C   UNL     1       6.407  -7.422  -3.164  0.00  0.00    +0.123 A 
ATOM      8  C   UNL     1       6.313  -7.448  -1.813  0.00  0.00    +0.112 A 
ATOM      9  N   UNL     1       5.335  -6.592  -1.425  0.00  0.00    -0.355 N 
ATOM     10  H   UNL     1       5.066  -6.418  -0.510  0.00  0.00    +0.166 HD
BRANCH   7  11
ATOM     11  S   UNL     1       7.535  -8.357  -4.143  0.00  0.00    +0.062 S 
ATOM     12  O   UNL     1       7.900  -9.491  -3.370  0.00  0.00    -0.153 OA
ATOM     13  O   UNL     1       6.953  -8.470  -5.435  0.00  0.00    -0.153 OA
BRANCH  11  14
ATOM     14  N   UNL     1       8.904  -7.443  -4.320  0.00  0.00    -0.175 NA
ATOM     15  C   UNL     1       9.016  -6.518  -5.449  0.00  0.00    +0.120 C 
ATOM     16  C   UNL     1       9.049  -5.077  -4.927  0.00  0.00    +0.086 C 
ATOM     17  S   UNL     1      10.435  -4.912  -3.762  0.00  0.00    -0.158 S 
ATOM     18  C   UNL     1      10.137  -6.254  -2.572  0.00  0.00    +0.086 C 
ATOM     19  C   UNL     1       9.986  -7.566  -3.342  0.00  0.00    +0.120 C 
ENDBRANCH  11  14
ENDBRANCH   7  11
ENDBRANCH   2   5
BRANCH   1  20
ATOM     20  C   UNL     1       2.052  -3.634  -1.442  0.00  0.00    +0.097 C 
BRANCH  20  21
ATOM     21  C   UNL     1       1.514  -3.434  -0.023  0.00  0.00    +0.016 C 
BRANCH  21  26
ATOM     22  C   UNL     1      -1.860  -7.123   0.648  0.00  0.00    +0.086 C 
ATOM     23  C   UNL     1      -0.591  -6.316   0.749  0.00  0.00    +0.102 A 
ATOM     24  C   UNL     1       0.498  -6.649   1.464  0.00  0.00    +0.044 A 
ATOM     25  C   UNL     1       1.444  -5.615   1.276  0.00  0.00    +0.043 A 
ATOM     26  C   UNL     1       0.876  -4.712   0.457  0.00  0.00    +0.093 A 
ATOM     27  O   UNL     1      -0.355  -5.144   0.137  0.00  0.00    -0.466 OA
ENDBRANCH  21  26
BRANCH  21  28
ATOM     28  N   UNL     1       0.514  -2.358  -0.026  0.00  0.00    +0.387 N 
ATOM     29  C   UNL     1      -0.017  -2.148   1.345  0.00  0.00    -0.078 C 
ATOM     30  C   UNL     1      -0.574  -0.703   1.292  0.00  0.00    -0.020 C 
ATOM     31  C   UNL     1       0.454   0.031   0.401  0.00  0.00    -0.020 C 
ATOM     32  C   UNL     1       1.143  -1.077  -0.416  0.00  0.00    -0.078 C 
ATOM     33  H   UNL     1      -0.238  -2.583  -0.660  0.00  0.00    -0.081 HD
ENDBRANCH  21  28
ENDBRANCH  20  21
ENDBRANCH   1  20
TORSDOF 7
