REMARK  Name = ZINC40733502
REMARK  4 active torsions:
REMARK  status: ('A' for Active; 'I' for Inactive)
REMARK    1  A    between atoms: C_1  and  C_2
REMARK    2  A    between atoms: C_2  and  C_3
REMARK    3  A    between atoms: C_11  and  N_22
REMARK    4  A    between atoms: C_12  and  N_16
REMARK                            x       y       z     vdW  Elec       q    Type
REMARK                         _______ _______ _______ _____ _____    ______ ____
ROOT
ATOM      1  C   UNL     1       0.698  -0.715  -1.042  0.00  0.00    +0.075 C 
ATOM      2  C   UNL     1       0.622  -2.244  -1.105  0.00  0.00    +0.022 C 
ATOM      3  C   UNL     1       1.398  -2.740  -2.327  0.00  0.00    +0.003 C 
ATOM      4  C   UNL     1       2.868  -2.334  -2.200  0.00  0.00    +0.019 C 
ATOM      5  C   UNL     1       2.970  -0.806  -2.150  0.00  0.00    +0.107 C 
ATOM      6  N   UNL     1       2.110  -0.307  -1.067  0.00  0.00    -0.311 N 
ATOM      7  C   UNL     1       2.622   0.531  -0.084  0.00  0.00    +0.147 A 
ATOM      8  C   UNL     1       2.659   1.913  -0.279  0.00  0.00    +0.106 A 
ATOM      9  C   UNL     1       3.183   2.708   0.741  0.00  0.00    +0.150 A 
ATOM     10  N   UNL     1       3.625   2.124   1.852  0.00  0.00    -0.219 NA
ATOM     11  C   UNL     1       3.572   0.816   1.996  0.00  0.00    +0.225 A 
ATOM     12  N   UNL     1       3.080   0.029   1.060  0.00  0.00    -0.219 NA
ENDROOT
BRANCH   9  13
ATOM     13  N   UNL     1       3.244   4.091   0.598  0.00  0.00    -0.277 N 
ATOM     14  C   UNL     1       3.767   4.872   1.618  0.00  0.00    +0.163 A 
ATOM     15  N   UNL     1       4.254   4.483   2.778  0.00  0.00    -0.233 NA
ATOM     16  C   UNL     1       4.719   5.359   3.650  0.00  0.00    +0.120 A 
ATOM     17  C   UNL     1       4.672   6.666   3.295  0.00  0.00    +0.068 A 
ATOM     18  S   UNL     1       3.941   6.545   1.671  0.00  0.00    -0.061 S 
ATOM     19  H   UNL     1       2.921   4.509  -0.216  0.00  0.00    +0.156 HD
ENDBRANCH   9  13
BRANCH   8  20
ATOM     20  N   UNL     1       2.182   2.487  -1.469  0.00  0.00    -0.353 N 
ATOM     21  H   UNL     1       1.910   1.918  -2.206  0.00  0.00    +0.143 HD
ATOM     22  H   UNL     1       2.125   3.451  -1.553  0.00  0.00    +0.143 HD
ENDBRANCH   8  20
BRANCH   1  24
ATOM     23  C   UNL     1      -1.454  -0.527   0.212  0.00  0.00    +0.006 C 
ATOM     24  C   UNL     1       0.044  -0.222   0.250  0.00  0.00    +0.019 C 
ENDBRANCH   1  24
TORSDOF 3
