REMARK  Name = ZINC36277550
REMARK  5 active torsions:
REMARK  status: ('A' for Active; 'I' for Inactive)
REMARK    1  A    between atoms: C_1  and  C_2
REMARK    2  A    between atoms: C_2  and  C_3
REMARK    3  A    between atoms: C_2  and  C_4
REMARK    4  A    between atoms: C_2  and  N_6
REMARK    5  A    between atoms: C_4  and  O_5
REMARK                            x       y       z     vdW  Elec       q    Type
REMARK                         _______ _______ _______ _____ _____    ______ ____
ROOT
ATOM      1  N   UNL     1       0.688  -0.476  -1.203  0.00  0.00    -0.321 N 
ATOM      2  C   UNL     1       2.005  -0.123  -1.433  0.00  0.00    +0.132 A 
ATOM      3  C   UNL     1       2.711  -0.657  -2.547  0.00  0.00    +0.051 A 
ATOM      4  C   UNL     1       2.237  -1.593  -3.569  0.00  0.00    -0.025 A 
ATOM      5  C   UNL     1       3.116  -1.946  -4.529  0.00  0.00    -0.004 A 
ATOM      6  S   UNL     1       4.605  -1.067  -4.139  0.00  0.00    -0.073 S 
ATOM      7  C   UNL     1       4.045  -0.226  -2.682  0.00  0.00    +0.115 A 
ATOM      8  N   UNL     1       4.588   0.616  -1.823  0.00  0.00    -0.210 NA
ATOM      9  C   UNL     1       3.884   1.077  -0.806  0.00  0.00    +0.225 A 
ATOM     10  N   UNL     1       2.624   0.720  -0.622  0.00  0.00    -0.202 NA
ATOM     11 CL   UNL     1       4.624   2.183   0.308  0.00  0.00    -0.041 Cl
ATOM     12  C   UNL     1       2.880  -2.880  -5.676  0.00  0.00    +0.043 C 
ATOM     13  C   UNL     1       1.597  -3.677  -5.396  0.00  0.00    +0.005 C 
ATOM     14  C   UNL     1       0.500  -2.703  -4.957  0.00  0.00    +0.005 C 
ATOM     15  C   UNL     1       0.819  -2.156  -3.565  0.00  0.00    +0.037 C 
ATOM     16  H   UNL     1       0.264  -1.153  -1.754  0.00  0.00    +0.148 HD
ENDROOT
BRANCH   1  18
ATOM     17  C   UNL     1      -0.128   1.678  -0.384  0.00  0.00    +0.033 C 
ATOM     18  C   UNL     1      -0.068   0.171  -0.128  0.00  0.00    +0.051 C 
ATOM     19  C   UNL     1       0.624  -0.091   1.211  0.00  0.00    +0.033 C 
BRANCH  18  20
ATOM     20  C   UNL     1      -1.488  -0.397  -0.088  0.00  0.00    +0.180 C 
BRANCH  20  21
ATOM     21  O   UNL     1      -2.224   0.235   0.960  0.00  0.00    -0.393 OA
ATOM     22  H   UNL     1      -3.136  -0.077   1.044  0.00  0.00    +0.209 HD
ENDBRANCH  20  21
ENDBRANCH  18  20
ENDBRANCH   1  18
TORSDOF 3
