REMARK  Name = ZINC63151317
REMARK  5 active torsions:
REMARK  status: ('A' for Active; 'I' for Inactive)
REMARK    1  A    between atoms: C_1  and  C_2
REMARK    2  A    between atoms: C_5  and  C_8
REMARK    3  A    between atoms: C_8  and  N_9
REMARK    4  A    between atoms: N_17  and  C_18
REMARK    5  A    between atoms: N_17  and  C_19
REMARK                            x       y       z     vdW  Elec       q    Type
REMARK                         _______ _______ _______ _____ _____    ______ ____
ROOT
ATOM      1  N   UNL     1      -1.489  -0.636   4.954  0.00  0.00    -0.313 N 
ATOM      2  C   UNL     1      -1.966  -0.333   6.213  0.00  0.00    +0.221 A 
ATOM      3  N   UNL     1      -1.385  -0.857   7.288  0.00  0.00    -0.181 NA
ATOM      4  C   UNL     1      -1.847  -0.562   8.498  0.00  0.00    +0.223 A 
ATOM      5  N   UNL     1      -2.889   0.255   8.631  0.00  0.00    -0.184 NA
ATOM      6  C   UNL     1      -3.465   0.774   7.559  0.00  0.00    +0.229 A 
ATOM      7  N   UNL     1      -3.004   0.487   6.353  0.00  0.00    -0.184 NA
ATOM      8 CL   UNL     1      -4.824   1.839   7.737  0.00  0.00    -0.041 Cl
ATOM      9  N   UNL     1      -1.247  -1.104   9.617  0.00  0.00    -0.306 N 
ATOM     10  C   UNL     1      -0.101  -2.004   9.470  0.00  0.00    +0.132 C 
ATOM     11  C   UNL     1      -1.757  -0.779  10.951  0.00  0.00    +0.132 C 
ATOM     12  H   UNL     1      -0.732  -1.234   4.853  0.00  0.00    +0.149 HD
ENDROOT
BRANCH   1  13
ATOM     13  C   UNL     1      -2.126  -0.054   3.770  0.00  0.00    +0.108 C 
BRANCH  13  18
ATOM     14  C   UNL     1      -0.019   1.526   0.010  0.00  0.00    +0.007 C 
ATOM     15  C   UNL     1       0.002  -0.004   0.002  0.00  0.00    -0.014 C 
ATOM     16  C   UNL     1      -1.433  -0.534   0.013  0.00  0.00    +0.003 C 
ATOM     17  C   UNL     1      -2.149  -0.040   1.272  0.00  0.00    +0.005 C 
ATOM     18  C   UNL     1      -1.409  -0.547   2.511  0.00  0.00    +0.006 C 
ATOM     19  C   UNL     1       0.026  -0.018   2.500  0.00  0.00    +0.005 C 
ATOM     20  C   UNL     1       0.742  -0.511   1.242  0.00  0.00    +0.003 C 
ENDBRANCH  13  18
ENDBRANCH   1  13
TORSDOF 2
