REMARK  Name = ZINC13210731
REMARK  9 active torsions:
REMARK  status: ('A' for Active; 'I' for Inactive)
REMARK    1  A    between atoms: C_1  and  C_2
REMARK    2  A    between atoms: C_2  and  C_21
REMARK    3  A    between atoms: N_12  and  C_13
REMARK    4  A    between atoms: C_18  and  O_19
REMARK    5  A    between atoms: O_19  and  C_20
REMARK    6  A    between atoms: C_24  and  O_30
REMARK    7  A    between atoms: C_25  and  C_27
REMARK    8  A    between atoms: C_27  and  C_28
REMARK    9  A    between atoms: O_30  and  C_31
REMARK                            x       y       z     vdW  Elec       q    Type
REMARK                         _______ _______ _______ _____ _____    ______ ____
ROOT
ATOM      1  C   UNL     1      -3.383   4.253   1.421  0.00  0.00    +0.059 C 
ATOM      2  C   UNL     1      -2.714   4.024   0.064  0.00  0.00    +0.130 C 
ATOM      3  N   UNL     1      -2.564   5.310  -0.627  0.00  0.00    -0.319 N 
ATOM      4  C   UNL     1      -2.308   5.315  -1.990  0.00  0.00    +0.041 A 
ATOM      5  C   UNL     1      -1.611   6.346  -2.598  0.00  0.00    +0.024 A 
ATOM      6  C   UNL     1      -1.393   6.312  -3.962  0.00  0.00    +0.002 A 
ATOM      7  C   UNL     1      -1.866   5.257  -4.726  0.00  0.00    +0.001 A 
ATOM      8  C   UNL     1      -2.559   4.221  -4.135  0.00  0.00    +0.015 A 
ATOM      9  C   UNL     1      -2.783   4.240  -2.760  0.00  0.00    +0.058 A 
ATOM     10  C   UNL     1      -3.510   3.152  -2.082  0.00  0.00    +0.255 C 
ATOM     11  O   UNL     1      -4.081   2.297  -2.731  0.00  0.00    -0.269 OA
ATOM     12  N   UNL     1      -3.537   3.115  -0.734  0.00  0.00    -0.238 N 
ATOM     13  H   UNL     1      -2.642   6.145  -0.139  0.00  0.00    +0.148 HD
ENDROOT
BRANCH  12  14
ATOM     14  C   UNL     1      -4.366   2.190  -0.087  0.00  0.00    +0.081 A 
ATOM     15  C   UNL     1      -5.631   2.570   0.339  0.00  0.00    +0.027 A 
ATOM     16  C   UNL     1      -6.450   1.654   0.972  0.00  0.00    +0.002 A 
ATOM     17  C   UNL     1      -6.008   0.363   1.192  0.00  0.00    +0.004 A 
ATOM     18  C   UNL     1      -4.747  -0.021   0.775  0.00  0.00    +0.047 A 
ATOM     19  C   UNL     1      -3.922   0.889   0.135  0.00  0.00    +0.141 A 
BRANCH  19  20
ATOM     20  O   UNL     1      -2.681   0.513  -0.276  0.00  0.00    -0.493 OA
ATOM     21  C   UNL     1      -2.293  -0.837  -0.014  0.00  0.00    +0.277 C 
ENDBRANCH  19  20
ENDBRANCH  12  14
BRANCH   2  22
ATOM     22  C   UNL     1      -1.354   3.410   0.276  0.00  0.00    -0.006 A 
ATOM     23  C   UNL     1      -0.847   2.518  -0.652  0.00  0.00    +0.011 A 
ATOM     24  C   UNL     1       0.397   1.950  -0.457  0.00  0.00    +0.046 A 
ATOM     25  C   UNL     1       1.143   2.283   0.664  0.00  0.00    +0.124 A 
ATOM     26  C   UNL     1       0.635   3.183   1.590  0.00  0.00    +0.005 A 
ATOM     27  C   UNL     1      -0.612   3.744   1.394  0.00  0.00    +0.015 A 
BRANCH  25  28
ATOM     28  O   UNL     1       2.369   1.730   0.855  0.00  0.00    -0.495 OA
ATOM     29  C   UNL     1       2.829   0.813  -0.140  0.00  0.00    +0.277 C 
ENDBRANCH  25  28
BRANCH  26  30
ATOM     30  C   UNL     1       1.442   3.547   2.809  0.00  0.00    +0.163 C 
BRANCH  30  31
ATOM     31  C   UNL     1       1.306   2.461   3.845  0.00  0.00    +0.360 C 
ATOM     32  O   UNL     1       0.623   1.491   3.617  0.00  0.00    -0.246 OA
ATOM     33  O   UNL     1       1.944   2.572   5.021  0.00  0.00    -0.246 OA
ENDBRANCH  30  31
ENDBRANCH  26  30
ENDBRANCH   2  22
TORSDOF 6
