REMARK  Name = ZINC50867096
REMARK  5 active torsions:
REMARK  status: ('A' for Active; 'I' for Inactive)
REMARK    1  A    between atoms: C_1  and  N_2
REMARK    2  A    between atoms: N_2  and  C_3
REMARK    3  A    between atoms: N_2  and  C_4
REMARK    4  A    between atoms: C_7  and  C_10
REMARK    5  A    between atoms: C_14  and  N_16
REMARK                            x       y       z     vdW  Elec       q    Type
REMARK                         _______ _______ _______ _____ _____    ______ ____
ROOT
ATOM      1  C   UNL     1      -0.006  -2.801  -4.903  0.00  0.00    +0.162 A 
ATOM      2  N   UNL     1      -0.016  -2.117  -6.037  0.00  0.00    -0.232 NA
ATOM      3  C   UNL     1      -0.016  -2.735  -7.215  0.00  0.00    +0.050 A 
ATOM      4  C   UNL     1      -0.002  -4.109  -7.247  0.00  0.00    +0.013 A 
ATOM      5  C   UNL     1       0.004  -4.807  -6.032  0.00  0.00    +0.123 A 
ATOM      6  N   UNL     1       0.007  -4.127  -4.893  0.00  0.00    -0.213 NA
ATOM      7  C   UNL     1       0.014  -4.895  -8.529  0.00  0.00    +0.040 C 
ATOM      8  C   UNL     1      -0.422  -4.015  -9.700  0.00  0.00    +0.005 C 
ATOM      9  C   UNL     1       0.404  -2.723  -9.671  0.00  0.00    +0.006 C 
ATOM     10  C   UNL     1      -0.034  -1.896  -8.463  0.00  0.00    +0.056 C 
ENDROOT
BRANCH   1  14
ATOM     11  C   UNL     1       0.000  -0.694  -1.209  0.00  0.00    +0.029 A 
ATOM     12  C   UNL     1       0.013  -2.085  -1.215  0.00  0.00    +0.024 A 
ATOM     13  C   UNL     1       0.011  -2.770  -2.411  0.00  0.00    +0.013 A 
ATOM     14  C   UNL     1      -0.005  -2.067  -3.616  0.00  0.00    +0.019 A 
ATOM     15  C   UNL     1      -0.018  -0.672  -3.607  0.00  0.00    +0.013 A 
ATOM     16  C   UNL     1      -0.021   0.009  -2.409  0.00  0.00    +0.024 A 
BRANCH  11  18
ATOM     17  C   UNL     1      -0.018   1.461   0.010  0.00  0.00    +0.129 C 
ATOM     18  N   UNL     1       0.002  -0.004   0.002  0.00  0.00    -0.336 N 
ATOM     19  C   UNL     1       0.024  -0.743   1.267  0.00  0.00    +0.129 C 
ENDBRANCH  11  18
ENDBRANCH   1  14
BRANCH   5  20
ATOM     20  N   UNL     1       0.011  -6.193  -6.020  0.00  0.00    -0.343 N 
ATOM     21  H   UNL     1       0.013  -6.685  -6.856  0.00  0.00    +0.144 HD
ATOM     22  H   UNL     1       0.015  -6.671  -5.176  0.00  0.00    +0.144 HD
ENDBRANCH   5  20
TORSDOF 3
