REMARK  Name = ZINC26571845
REMARK  9 active torsions:
REMARK  status: ('A' for Active; 'I' for Inactive)
REMARK    1  A    between atoms: C_1  and  C_2
REMARK    2  A    between atoms: C_2  and  C_3
REMARK    3  A    between atoms: C_8  and  O_9
REMARK    4  A    between atoms: C_11  and  C_25
REMARK    5  A    between atoms: C_12  and  C_15
REMARK    6  A    between atoms: C_17  and  C_21
REMARK    7  A    between atoms: C_19  and  C_20
REMARK    8  A    between atoms: C_21  and  O_23
REMARK    9  A    between atoms: O_23  and  C_24
REMARK                            x       y       z     vdW  Elec       q    Type
REMARK                         _______ _______ _______ _____ _____    ______ ____
ROOT
ATOM      1  C   UNL     1      -0.742   1.585  -1.213  0.00  0.00    -0.005 A 
ATOM      2  C   UNL     1      -0.272   2.678  -1.885  0.00  0.00    +0.022 A 
ATOM      3  C   UNL     1      -0.948   3.138  -3.016  0.00  0.00    +0.065 A 
ATOM      4  C   UNL     1      -2.109   2.484  -3.466  0.00  0.00    +0.143 A 
ATOM      5  C   UNL     1      -2.573   1.375  -2.770  0.00  0.00    +0.092 A 
ATOM      6  C   UNL     1      -1.887   0.927  -1.654  0.00  0.00    +0.124 A 
ATOM      7  O   UNL     1      -2.760   2.929  -4.558  0.00  0.00    -0.450 OA
ATOM      8  C   UNL     1      -2.362   3.989  -5.268  0.00  0.00    +0.220 A 
ATOM      9  C   UNL     1      -1.260   4.712  -4.945  0.00  0.00    +0.080 A 
ATOM     10  C   UNL     1      -0.471   4.313  -3.767  0.00  0.00    +0.201 A 
ATOM     11  O   UNL     1       0.528   4.925  -3.429  0.00  0.00    -0.286 OA
ENDROOT
BRANCH   9  12
ATOM     12  C   UNL     1      -0.856   5.883  -5.764  0.00  0.00    +0.031 A 
ATOM     13  C   UNL     1      -1.261   7.223  -5.575  0.00  0.00    +0.065 A 
ATOM     14  C   UNL     1      -0.652   7.957  -6.550  0.00  0.00    +0.212 A 
ATOM     15  O   UNL     1       0.092   7.123  -7.306  0.00  0.00    -0.453 OA
ATOM     16  C   UNL     1      -0.019   5.873  -6.839  0.00  0.00    +0.111 A 
ATOM     17  C   UNL     1       0.665   4.657  -7.409  0.00  0.00    +0.087 C 
BRANCH  14  18
ATOM     18  C   UNL     1      -0.783   9.403  -6.744  0.00  0.00    +0.375 C 
ATOM     19  O   UNL     1      -1.485  10.056  -5.995  0.00  0.00    -0.241 OA
BRANCH  18  20
ATOM     20  O   UNL     1      -0.124  10.011  -7.752  0.00  0.00    -0.462 OA
ATOM     21  C   UNL     1      -0.300  11.447  -7.883  0.00  0.00    +0.280 C 
ENDBRANCH  18  20
ENDBRANCH  14  18
ENDBRANCH   9  12
BRANCH   8  22
ATOM     22  C   UNL     1      -3.168   4.399  -6.473  0.00  0.00    +0.451 C 
ATOM     23  F   UNL     1      -2.681   3.739  -7.606  0.00  0.00    -0.163 F 
ATOM     24  F   UNL     1      -4.510   4.055  -6.275  0.00  0.00    -0.163 F 
ATOM     25  F   UNL     1      -3.063   5.782  -6.657  0.00  0.00    -0.163 F 
ENDBRANCH   8  22
BRANCH   1  27
ATOM     26  C   UNL     1      -0.729   1.579   1.267  0.00  0.00    +0.009 C 
ATOM     27  C   UNL     1      -0.013   1.086   0.008  0.00  0.00    +0.035 C 
ENDBRANCH   1  27
BRANCH   6  28
ATOM     28  O   UNL     1      -2.340  -0.161  -0.979  0.00  0.00    -0.506 OA
ATOM     29  H   UNL     1      -3.244  -0.685  -1.322  0.00  0.00    +0.292 HD
ENDBRANCH   6  28
TORSDOF 6
