REMARK  Name = ZINC14655286
REMARK  15 active torsions:
REMARK  status: ('A' for Active; 'I' for Inactive)
REMARK    1  A    between atoms: C_1  and  C_2
REMARK    2  A    between atoms: C_2  and  C_3
REMARK    3  A    between atoms: C_3  and  C_4
REMARK    4  A    between atoms: C_4  and  N_5
REMARK    5  A    between atoms: C_6  and  N_32
REMARK    6  A    between atoms: C_7  and  N_14
REMARK    7  A    between atoms: N_14  and  C_15
REMARK    8  A    between atoms: C_16  and  C_18
REMARK    9  A    between atoms: C_18  and  C_30
REMARK   10  A    between atoms: C_19  and  C_20
REMARK   11  A    between atoms: C_22  and  C_29
REMARK   12  A    between atoms: N_23  and  C_26
REMARK   13  A    between atoms: C_24  and  C_25
REMARK   14  A    between atoms: C_26  and  C_27
REMARK   15  A    between atoms: C_27  and  C_28
REMARK                            x       y       z     vdW  Elec       q    Type
REMARK                         _______ _______ _______ _____ _____    ______ ____
ROOT
ATOM      1  N   UNL     1       1.234   1.980  -0.399  0.00  0.00    -0.263 N 
ATOM      2  C   UNL     1       1.173   3.264  -1.100  0.00  0.00    +0.139 C 
ATOM      3  C   UNL     1       0.161   1.533   0.284  0.00  0.00    +0.261 C 
ATOM      4  O   UNL     1       0.170   0.417   0.769  0.00  0.00    -0.269 OA
ENDROOT
BRANCH   1   7
ATOM      5  N   UNL     1       3.611  -0.729  -1.115  0.00  0.00    -0.280 N 
ATOM      6  C   UNL     1       2.444  -0.002  -1.095  0.00  0.00    +0.127 A 
ATOM      7  C   UNL     1       2.416   1.211  -0.437  0.00  0.00    +0.140 A 
ATOM      8  C   UNL     1       3.589   1.669   0.191  0.00  0.00    +0.277 A 
ATOM      9  O   UNL     1       3.595   2.740   0.776  0.00  0.00    -0.266 OA
ATOM     10  N   UNL     1       4.705   0.916   0.146  0.00  0.00    -0.273 N 
ATOM     11  H   UNL     1       5.537   1.237   0.599  0.00  0.00    +0.173 HD
ATOM     12  C   UNL     1       4.713  -0.264  -0.500  0.00  0.00    +0.331 A 
ATOM     13  O   UNL     1       5.736  -0.921  -0.529  0.00  0.00    -0.246 OA
BRANCH   6  14
ATOM     14  N   UNL     1       1.317  -0.477  -1.724  0.00  0.00    -0.343 N 
ATOM     15  H   UNL     1       0.505   0.053  -1.731  0.00  0.00    +0.144 HD
ATOM     16  H   UNL     1       1.335  -1.343  -2.160  0.00  0.00    +0.144 HD
ENDBRANCH   6  14
BRANCH   5  17
ATOM     17  C   UNL     1       3.655  -2.017  -1.811  0.00  0.00    +0.128 C 
BRANCH  17  18
ATOM     18  C   UNL     1       4.066  -1.796  -3.268  0.00  0.00    +0.021 C 
BRANCH  18  20
ATOM     19  C   UNL     1       4.523  -2.921  -5.452  0.00  0.00    +0.004 C 
ATOM     20  C   UNL     1       4.112  -3.142  -3.995  0.00  0.00    -0.002 C 
ENDBRANCH  18  20
ENDBRANCH  17  18
ENDBRANCH   5  17
ENDBRANCH   1   7
BRANCH   3  21
ATOM     21  C   UNL     1      -1.022   2.391   0.437  0.00  0.00    +0.114 C 
ATOM     22  C   UNL     1      -2.178   1.880   0.992  0.00  0.00    +0.033 C 
BRANCH  22  23
ATOM     23  C   UNL     1      -3.354   2.733   1.145  0.00  0.00    -0.003 A 
ATOM     24  C   UNL     1      -3.477   4.149   0.768  0.00  0.00    +0.030 A 
ATOM     25  C   UNL     1      -4.729   4.518   1.086  0.00  0.00    +0.016 A 
ATOM     26  N   UNL     1      -5.386   3.454   1.634  0.00  0.00    -0.348 N 
ATOM     27  C   UNL     1      -4.582   2.376   1.678  0.00  0.00    +0.023 A 
ATOM     28  C   UNL     1      -4.951   1.018   2.216  0.00  0.00    +0.064 C 
ATOM     29  C   UNL     1      -5.314   5.891   0.877  0.00  0.00    +0.063 C 
BRANCH  26  30
ATOM     30  C   UNL     1      -6.772   3.482   2.108  0.00  0.00    +0.121 C 
BRANCH  30  31
ATOM     31  C   UNL     1      -6.799   3.886   3.583  0.00  0.00    +0.018 C 
ATOM     32  C   UNL     1      -8.247   3.915   4.078  0.00  0.00    +0.005 C 
ENDBRANCH  30  31
ENDBRANCH  26  30
ENDBRANCH  22  23
BRANCH  21  33
ATOM     33  C   UNL     1      -0.976   3.757   0.010  0.00  0.00    +0.104 C 
ATOM     34  N   UNL     1      -0.939   4.841  -0.329  0.00  0.00    -0.191 NA
ENDBRANCH  21  33
ENDBRANCH   3  21
TORSDOF 10
