REMARK  Name = ZINC46646307
REMARK  9 active torsions:
REMARK  status: ('A' for Active; 'I' for Inactive)
REMARK    1  A    between atoms: C_1  and  C_2
REMARK    2  A    between atoms: C_2  and  C_3
REMARK    3  A    between atoms: C_2  and  N_4
REMARK    4  A    between atoms: N_4  and  S_5
REMARK    5  A    between atoms: S_5  and  C_8
REMARK    6  A    between atoms: C_12  and  C_14
REMARK    7  A    between atoms: C_14  and  N_15
REMARK    8  A    between atoms: N_18  and  N_19
REMARK    9  A    between atoms: N_19  and  C_20
REMARK                            x       y       z     vdW  Elec       q    Type
REMARK                         _______ _______ _______ _____ _____    ______ ____
ROOT
ATOM      1  C   UNL     1      -1.421  -5.731   2.721  0.00  0.00    +0.141 C 
ENDROOT
BRANCH   1   6
ATOM      2  C   UNL     1      -0.878  -3.218  -0.043  0.00  0.00    +0.106 A 
ATOM      3  C   UNL     1       0.395  -3.548  -0.470  0.00  0.00    +0.028 A 
ATOM      4  C   UNL     1       1.079  -4.585   0.135  0.00  0.00    +0.002 A 
ATOM      5  C   UNL     1       0.492  -5.292   1.168  0.00  0.00    +0.005 A 
ATOM      6  C   UNL     1      -0.780  -4.961   1.596  0.00  0.00    -0.028 A 
ATOM      7  C   UNL     1      -1.463  -3.921   0.993  0.00  0.00    +0.033 A 
BRANCH   2   8
ATOM      8  S   UNL     1      -1.750  -1.895  -0.814  0.00  0.00    +0.059 S 
ATOM      9  O   UNL     1      -3.133  -2.137  -0.591  0.00  0.00    -0.153 OA
ATOM     10  O   UNL     1      -1.202  -1.753  -2.117  0.00  0.00    -0.153 OA
BRANCH   8  11
ATOM     11  N   UNL     1      -1.372  -0.511   0.012  0.00  0.00    -0.187 NA
ATOM     12  H   UNL     1      -2.061  -0.036   0.503  0.00  0.00    +0.148 HD
BRANCH  11  14
ATOM     13  C   UNL     1      -0.019   1.526   0.010  0.00  0.00    +0.025 C 
ATOM     14  C   UNL     1       0.002  -0.004   0.002  0.00  0.00    +0.070 C 
ATOM     15  C   UNL     1       0.742  -0.511   1.242  0.00  0.00    +0.025 C 
ENDBRANCH  11  14
ENDBRANCH   8  11
ENDBRANCH   2   8
ENDBRANCH   1   6
BRANCH   1  16
ATOM     16  N   UNL     1      -1.091  -5.095   3.999  0.00  0.00    -0.294 N 
ATOM     17  C   UNL     1      -1.559  -5.614   5.151  0.00  0.00    +0.316 C 
ATOM     18  O   UNL     1      -2.255  -6.611   5.131  0.00  0.00    -0.251 OA
ATOM     19  N   UNL     1      -1.255  -5.028   6.327  0.00  0.00    -0.220 N 
ATOM     20  H   UNL     1      -0.536  -4.299   4.015  0.00  0.00    +0.151 HD
ATOM     21  H   UNL     1      -1.592  -5.402   7.156  0.00  0.00    +0.174 HD
BRANCH  19  22
ATOM     22  N   UNL     1      -0.454  -3.880   6.350  0.00  0.00    -0.263 N 
ATOM     23  H   UNL     1      -0.117  -3.506   5.521  0.00  0.00    +0.170 HD
BRANCH  22  24
ATOM     24  C   UNL     1      -0.139  -3.272   7.570  0.00  0.00    +0.045 A 
ATOM     25  C   UNL     1      -0.616  -3.810   8.758  0.00  0.00    +0.027 A 
ATOM     26  C   UNL     1      -0.303  -3.208   9.961  0.00  0.00    +0.040 A 
ATOM     27  C   UNL     1       0.484  -2.069   9.983  0.00  0.00    +0.124 A 
ATOM     28  C   UNL     1       0.961  -1.532   8.800  0.00  0.00    +0.040 A 
ATOM     29  C   UNL     1       0.656  -2.133   7.595  0.00  0.00    +0.027 A 
ATOM     30  F   UNL     1       0.788  -1.482  11.162  0.00  0.00    -0.205 F 
ENDBRANCH  22  24
ENDBRANCH  19  22
ENDBRANCH   1  16
TORSDOF 7
