REMARK  Name = ZINC40363710
REMARK  7 active torsions:
REMARK  status: ('A' for Active; 'I' for Inactive)
REMARK    1  A    between atoms: C_4  and  C_7
REMARK    2  A    between atoms: C_7  and  N_8
REMARK    3  A    between atoms: C_9  and  C_11
REMARK    4  A    between atoms: C_13  and  N_22
REMARK    5  A    between atoms: C_16  and  N_17
REMARK    6  A    between atoms: N_22  and  S_23
REMARK    7  A    between atoms: S_23  and  C_26
REMARK                            x       y       z     vdW  Elec       q    Type
REMARK                         _______ _______ _______ _____ _____    ______ ____
ROOT
ATOM      1  C   UNL     1       5.754  -1.847   2.953  0.00  0.00    +0.060 A 
ATOM      2  C   UNL     1       4.973  -1.416   4.029  0.00  0.00    +0.041 A 
ATOM      3  C   UNL     1       5.395  -1.652   5.325  0.00  0.00    +0.075 A 
ATOM      4  C   UNL     1       6.595  -2.316   5.560  0.00  0.00    +0.028 A 
ATOM      5  C   UNL     1       7.373  -2.745   4.505  0.00  0.00    +0.026 A 
ATOM      6  C   UNL     1       6.960  -2.522   3.198  0.00  0.00    +0.042 A 
ENDROOT
BRANCH   6   7
ATOM      7  N   UNL     1       7.742  -2.960   2.134  0.00  0.00    -0.329 N 
ATOM      8  C   UNL     1       8.812  -2.190   1.482  0.00  0.00    +0.105 C 
ATOM      9  C   UNL     1       9.378  -3.065   0.344  0.00  0.00    +0.020 C 
ATOM     10  C   UNL     1       8.218  -4.054   0.055  0.00  0.00    +0.020 C 
ATOM     11  C   UNL     1       7.641  -4.277   1.478  0.00  0.00    +0.105 C 
ENDBRANCH   6   7
BRANCH   1  13
ATOM     12  N   UNL     1       4.152  -0.952   1.338  0.00  0.00    -0.307 N 
ATOM     13  C   UNL     1       5.311  -1.601   1.569  0.00  0.00    +0.246 C 
ATOM     14  O   UNL     1       5.991  -1.982   0.635  0.00  0.00    -0.270 OA
ATOM     15  H   UNL     1       3.610  -0.648   2.082  0.00  0.00    +0.149 HD
BRANCH  12  16
ATOM     16  C   UNL     1       3.711  -0.707  -0.038  0.00  0.00    +0.139 C 
BRANCH  16  20
ATOM     17  C   UNL     1      -0.017   1.378   0.010  0.00  0.00    +0.000 A 
ATOM     18  C   UNL     1       1.171   2.086   0.002  0.00  0.00    +0.000 A 
ATOM     19  C   UNL     1       2.377   1.411  -0.013  0.00  0.00    +0.005 A 
ATOM     20  C   UNL     1       2.396   0.029  -0.020  0.00  0.00    -0.030 A 
ATOM     21  C   UNL     1       1.208  -0.679  -0.012  0.00  0.00    +0.005 A 
ATOM     22  C   UNL     1       0.002  -0.004   0.002  0.00  0.00    +0.000 A 
ENDBRANCH  16  20
ENDBRANCH  12  16
ENDBRANCH   1  13
BRANCH   3  23
ATOM     23  N   UNL     1       4.613  -1.220   6.403  0.00  0.00    -0.098 NA
BRANCH  23  24
ATOM     24  S   UNL     1       5.116  -1.501   7.955  0.00  0.00    +0.093 S 
ATOM     25  O   UNL     1       5.088  -2.909   8.143  0.00  0.00    -0.148 OA
ATOM     26  O   UNL     1       6.295  -0.730   8.146  0.00  0.00    -0.148 OA
BRANCH  24  27
ATOM     27  C   UNL     1       3.894  -0.825   9.030  0.00  0.00    +0.130 A 
ATOM     28  C   UNL     1       3.162  -1.658   9.855  0.00  0.00    +0.050 A 
ATOM     29  C   UNL     1       2.202  -1.128  10.698  0.00  0.00    +0.043 A 
ATOM     30  C   UNL     1       1.974   0.237  10.715  0.00  0.00    +0.021 A 
ATOM     31  C   UNL     1       2.706   1.070   9.890  0.00  0.00    +0.023 A 
ATOM     32  C   UNL     1       3.670   0.540   9.051  0.00  0.00    +0.068 A 
ATOM     33 CL   UNL     1       4.594   1.587   8.020  0.00  0.00    -0.082 Cl
ATOM     34 CL   UNL     1       1.283  -2.175  11.734  0.00  0.00    -0.083 Cl
ENDBRANCH  24  27
ENDBRANCH  23  24
ENDBRANCH   3  23
TORSDOF 7
