REMARK  Name = ZINC65199756
REMARK  7 active torsions:
REMARK  status: ('A' for Active; 'I' for Inactive)
REMARK    1  A    between atoms: C_1  and  C_2
REMARK    2  A    between atoms: C_3  and  C_14
REMARK    3  A    between atoms: C_4  and  C_7
REMARK    4  A    between atoms: N_16  and  N_17
REMARK    5  A    between atoms: N_20  and  C_21
REMARK    6  A    between atoms: C_21  and  C_22
REMARK    7  A    between atoms: C_22  and  C_23
REMARK                            x       y       z     vdW  Elec       q    Type
REMARK                         _______ _______ _______ _____ _____    ______ ____
ROOT
ATOM      1  C   UNL     1      -2.503  -0.394   0.013  0.00  0.00    +0.266 C 
ATOM      2  O   UNL     1      -3.091  -0.212  -1.037  0.00  0.00    -0.268 OA
ATOM      3  N   UNL     1      -3.142  -0.206   1.184  0.00  0.00    -0.229 N 
ATOM      4  H   UNL     1      -2.673  -0.351   2.021  0.00  0.00    +0.173 HD
ENDROOT
BRANCH   1   7
ATOM      5  C   UNL     1      -0.018   1.503   0.010  0.00  0.00    +0.090 C 
ATOM      6  C   UNL     1       0.002  -0.004   0.002  0.00  0.00    +0.147 A 
ATOM      7  C   UNL     1      -1.092  -0.818   0.003  0.00  0.00    +0.107 A 
ATOM      8  C   UNL     1      -0.593  -2.201  -0.008  0.00  0.00    +0.126 A 
ATOM      9  N   UNL     1       0.715  -2.133  -0.014  0.00  0.00    -0.077 NA
ATOM     10  O   UNL     1       1.095  -0.772  -0.013  0.00  0.00    -0.359 OA
BRANCH   8  11
ATOM     11  C   UNL     1      -1.413  -3.437  -0.011  0.00  0.00    +0.005 A 
ATOM     12  C   UNL     1      -2.622  -3.475   0.681  0.00  0.00    +0.013 A 
ATOM     13  C   UNL     1      -3.381  -4.626   0.675  0.00  0.00    +0.039 A 
ATOM     14  C   UNL     1      -2.945  -5.744  -0.018  0.00  0.00    +0.123 A 
ATOM     15  C   UNL     1      -1.743  -5.710  -0.708  0.00  0.00    +0.039 A 
ATOM     16  C   UNL     1      -0.980  -4.561  -0.712  0.00  0.00    +0.013 A 
ATOM     17  F   UNL     1      -3.692  -6.869  -0.022  0.00  0.00    -0.205 F 
ENDBRANCH   8  11
ENDBRANCH   1   7
BRANCH   3  18
ATOM     18  N   UNL     1      -4.483   0.197   1.194  0.00  0.00    -0.218 N 
ATOM     19  C   UNL     1      -5.122   0.385   2.365  0.00  0.00    +0.316 C 
ATOM     20  O   UNL     1      -6.287   0.735   2.374  0.00  0.00    -0.251 OA
ATOM     21  N   UNL     1      -4.471   0.184   3.528  0.00  0.00    -0.298 N 
ATOM     22  H   UNL     1      -4.952   0.342   0.357  0.00  0.00    +0.174 HD
ATOM     23  H   UNL     1      -3.542  -0.096   3.522  0.00  0.00    +0.150 HD
BRANCH  21  24
ATOM     24  C   UNL     1      -5.166   0.388   4.802  0.00  0.00    +0.111 C 
BRANCH  24  25
ATOM     25  C   UNL     1      -4.207   0.094   5.958  0.00  0.00    +0.061 C 
BRANCH  25  26
ATOM     26  C   UNL     1      -4.922   0.304   7.268  0.00  0.00    -0.009 A 
ATOM     27  C   UNL     1      -5.626  -0.587   8.009  0.00  0.00    +0.011 A 
ATOM     28  C   UNL     1      -6.202  -0.168   9.193  0.00  0.00    +0.008 A 
ATOM     29  C   UNL     1      -6.047   1.123   9.578  0.00  0.00    +0.045 A 
ATOM     30  S   UNL     1      -5.055   1.788   8.251  0.00  0.00    -0.102 S 
ENDBRANCH  25  26
ENDBRANCH  24  25
ENDBRANCH  21  24
ENDBRANCH   3  18
TORSDOF 6
