REMARK  Name = ZINC13846484
REMARK  4 active torsions:
REMARK  status: ('A' for Active; 'I' for Inactive)
REMARK    1  A    between atoms: C_1  and  C_2
REMARK    2  A    between atoms: C_5  and  N_9
REMARK    3  A    between atoms: N_9  and  C_10
REMARK    4  A    between atoms: C_10  and  N_11
REMARK                            x       y       z     vdW  Elec       q    Type
REMARK                         _______ _______ _______ _____ _____    ______ ____
ROOT
ATOM      1  N   UNL     1      -1.294  -5.277   1.610  0.00  0.00    -0.225 N 
ATOM      2  C   UNL     1      -2.082  -4.491   2.354  0.00  0.00    +0.227 C 
ATOM      3  O   UNL     1      -1.771  -3.409   2.804  0.00  0.00    -0.275 OA
ATOM      4  C   UNL     1      -3.422  -5.168   2.544  0.00  0.00    +0.095 C 
ATOM      5  C   UNL     1      -4.521  -4.288   1.932  0.00  0.00    +0.027 C 
ATOM      6  C   UNL     1      -4.187  -4.126   0.453  0.00  0.00    -0.026 C 
ATOM      7  C   UNL     1      -4.053  -5.258  -0.227  0.00  0.00    -0.026 C 
ATOM      8  C   UNL     1      -4.255  -6.533   0.583  0.00  0.00    +0.027 C 
ATOM      9  C   UNL     1      -3.272  -6.492   1.776  0.00  0.00    +0.095 C 
ATOM     10  C   UNL     1      -1.864  -6.426   1.224  0.00  0.00    +0.227 C 
ATOM     11  O   UNL     1      -1.335  -7.279   0.544  0.00  0.00    -0.275 OA
ATOM     12  C   UNL     1      -5.680  -6.434   1.189  0.00  0.00    +0.001 C 
ATOM     13  C   UNL     1      -5.841  -5.103   2.000  0.00  0.00    +0.001 C 
ATOM     14  C   UNL     1      -5.768  -6.478   2.716  0.00  0.00    +0.009 C 
ENDROOT
BRANCH   1  15
ATOM     15  C   UNL     1       0.075  -4.908   1.242  0.00  0.00    +0.221 C 
BRANCH  15  16
ATOM     16  N   UNL     1       0.059  -4.168  -0.022  0.00  0.00    -0.328 N 
ATOM     17  H   UNL     1       0.060  -4.648  -0.865  0.00  0.00    +0.148 HD
BRANCH  16  22
ATOM     18  C   UNL     1      -0.018   1.503   0.010  0.00  0.00    +0.045 C 
ATOM     19  C   UNL     1       0.002  -0.004   0.002  0.00  0.00    -0.032 A 
ATOM     20  C   UNL     1       0.006  -0.688  -1.200  0.00  0.00    +0.006 A 
ATOM     21  C   UNL     1       0.025  -2.068  -1.212  0.00  0.00    +0.023 A 
ATOM     22  C   UNL     1       0.040  -2.772  -0.013  0.00  0.00    +0.030 A 
ATOM     23  C   UNL     1       0.037  -2.083   1.193  0.00  0.00    +0.043 A 
ATOM     24  C   UNL     1       0.023  -0.701   1.197  0.00  0.00    +0.046 A 
ATOM     25 CL   UNL     1       0.025   0.161   2.704  0.00  0.00    -0.083 Cl
ENDBRANCH  16  22
ENDBRANCH  15  16
ENDBRANCH   1  15
TORSDOF 3
