REMARK  Name = ZINC11815591
REMARK  8 active torsions:
REMARK  status: ('A' for Active; 'I' for Inactive)
REMARK    1  A    between atoms: C_1  and  N_2
REMARK    2  A    between atoms: N_2  and  C_3
REMARK    3  A    between atoms: C_3  and  C_4
REMARK    4  A    between atoms: C_6  and  C_9
REMARK    5  A    between atoms: C_15  and  C_17
REMARK    6  A    between atoms: C_17  and  C_18
REMARK    7  A    between atoms: C_25  and  C_26
REMARK    8  A    between atoms: C_25  and  N_53
REMARK                            x       y       z     vdW  Elec       q    Type
REMARK                         _______ _______ _______ _____ _____    ______ ____
ROOT
ATOM      1  C   UNL     1       4.503   0.008   2.180  0.00  0.00    +0.132 C 
ATOM      2  N   UNL     1       4.709   1.173   1.315  0.00  0.00    -0.296 N 
ATOM      3  C   UNL     1       3.661   1.737   0.684  0.00  0.00    +0.215 C 
ATOM      4  O   UNL     1       3.831   2.702  -0.032  0.00  0.00    -0.276 OA
ENDROOT
BRANCH   2   5
ATOM      5  C   UNL     1       6.055   1.724   1.137  0.00  0.00    +0.206 C 
BRANCH   5   6
ATOM      6  C   UNL     1       6.311   2.774   2.187  0.00  0.00    +0.245 A 
ATOM      7  N   UNL     1       6.831   2.578   3.373  0.00  0.00    -0.190 NA
ATOM      8  C   UNL     1       6.870   3.796   3.958  0.00  0.00    +0.202 A 
ATOM      9  N   UNL     1       6.376   4.652   3.102  0.00  0.00    -0.056 NA
ATOM     10  O   UNL     1       6.056   4.082   2.081  0.00  0.00    -0.336 OA
BRANCH   8  11
ATOM     11  C   UNL     1       7.378   4.104   5.319  0.00  0.00    +0.022 A 
ATOM     12  C   UNL     1       7.873   3.083   6.128  0.00  0.00    +0.012 A 
ATOM     13  C   UNL     1       8.349   3.376   7.390  0.00  0.00    +0.001 A 
ATOM     14  C   UNL     1       8.324   4.678   7.856  0.00  0.00    +0.000 A 
ATOM     15  C   UNL     1       7.829   5.694   7.059  0.00  0.00    +0.001 A 
ATOM     16  C   UNL     1       7.355   5.413   5.794  0.00  0.00    +0.012 A 
ENDBRANCH   8  11
ENDBRANCH   5   6
ENDBRANCH   2   5
BRANCH   3  17
ATOM     17  C   UNL     1       2.276   1.171   0.868  0.00  0.00    +0.090 C 
BRANCH  17  18
ATOM     18  C   UNL     1       1.294   1.922  -0.033  0.00  0.00    +0.028 C 
ATOM     19  C   UNL     1       1.229   3.362   0.391  0.00  0.00    +0.200 C 
ATOM     20  O   UNL     1       1.185   3.617   1.576  0.00  0.00    -0.278 OA
ATOM     21  N   UNL     1       1.211   4.373  -0.483  0.00  0.00    -0.318 N 
ATOM     22  C   UNL     1       1.302   4.176  -1.927  0.00  0.00    +0.085 C 
ATOM     23  C   UNL     1       0.952   2.729  -2.280  0.00  0.00    -0.058 C 
ATOM     24  H   UNL     1       1.139   5.279  -0.143  0.00  0.00    +0.149 HD
ATOM     25  N   UNL     1       1.768   1.841  -1.428  0.00  0.00    +0.391 N 
ATOM     26  H   UNL     1       2.748   2.144  -1.468  0.00  0.00    -0.080 HD
BRANCH  25  27
ATOM     27  C   UNL     1       1.676   0.445  -1.914  0.00  0.00    -0.039 C 
BRANCH  27  28
ATOM     28  C   UNL     1       2.489   0.313  -3.175  0.00  0.00    -0.026 A 
ATOM     29  C   UNL     1       2.027   0.498  -4.499  0.00  0.00    +0.043 A 
ATOM     30  C   UNL     1       3.078   0.287  -5.311  0.00  0.00    +0.195 A 
ATOM     31  O   UNL     1       4.144  -0.023  -4.555  0.00  0.00    -0.471 OA
ATOM     32  C   UNL     1       3.793  -0.009  -3.259  0.00  0.00    +0.196 A 
ENDBRANCH  27  28
ENDBRANCH  25  27
ENDBRANCH  17  18
ENDBRANCH   3  17
TORSDOF 7
