REMARK  Name = ZINC44963360
REMARK  8 active torsions:
REMARK  status: ('A' for Active; 'I' for Inactive)
REMARK    1  A    between atoms: C_1  and  C_2
REMARK    2  A    between atoms: C_4  and  O_37
REMARK    3  A    between atoms: C_14  and  C_20
REMARK    4  A    between atoms: C_16  and  C_18
REMARK    5  A    between atoms: C_16  and  C_19
REMARK    6  A    between atoms: C_20  and  C_22
REMARK    7  A    between atoms: C_22  and  O_23
REMARK    8  A    between atoms: C_33  and  C_34
REMARK                            x       y       z     vdW  Elec       q    Type
REMARK                         _______ _______ _______ _____ _____    ______ ____
ROOT
ATOM      1  C   UNL     1       0.369   1.404   0.345  0.00  0.00    +0.015 C 
ATOM      2  C   UNL     1       0.243  -0.111   0.158  0.00  0.00    +0.012 C 
ATOM      3  C   UNL     1      -1.193  -0.606   0.309  0.00  0.00    +0.044 C 
ATOM      4  C   UNL     1      -1.680  -0.588   1.749  0.00  0.00    +0.154 C 
ATOM      5  C   UNL     1      -0.766  -1.401   2.659  0.00  0.00    +0.153 C 
ATOM      6  C   UNL     1       0.670  -0.943   2.515  0.00  0.00    +0.037 C 
ATOM      7  C   UNL     1       1.181  -0.887   1.103  0.00  0.00    +0.007 C 
ATOM      8  C   UNL     1       1.341  -2.250   0.417  0.00  0.00    +0.039 C 
ATOM      9  C   UNL     1       1.434  -1.896  -1.087  0.00  0.00    +0.162 C 
ATOM     10  C   UNL     1       0.728  -0.533  -1.257  0.00  0.00    +0.164 C 
ATOM     11  O   UNL     1      -0.424  -0.802  -2.071  0.00  0.00    -0.332 OA
ATOM     12  C   UNL     1      -0.202  -2.073  -2.708  0.00  0.00    +0.166 C 
ATOM     13  O   UNL     1       0.640  -2.837  -1.826  0.00  0.00    -0.343 OA
ATOM     14  C   UNL     1       0.475  -1.890  -4.071  0.00  0.00    +0.074 C 
ATOM     15  C   UNL     1      -1.542  -2.799  -2.902  0.00  0.00    +0.074 C 
ATOM     16  C   UNL     1       1.592  -1.698   3.463  0.00  0.00    +0.048 C 
ATOM     17  C   UNL     1       1.539  -3.201   3.284  0.00  0.00    +0.194 C 
ATOM     18  C   UNL     1       0.289  -3.693   2.609  0.00  0.00    -0.020 C 
ATOM     19  C   UNL     1       0.331  -4.945   2.119  0.00  0.00    +0.054 C 
ATOM     20  C   UNL     1      -0.840  -5.488   1.400  0.00  0.00    +0.179 C 
ATOM     21  O   UNL     1      -0.950  -6.691   1.180  0.00  0.00    -0.288 OA
ATOM     22  C   UNL     1      -1.864  -4.533   0.922  0.00  0.00    +0.047 C 
ATOM     23  C   UNL     1      -1.896  -3.296   1.434  0.00  0.00    -0.009 C 
ATOM     24  C   UNL     1      -0.954  -2.885   2.514  0.00  0.00    +0.047 C 
ATOM     25  C   UNL     1      -1.713  -3.258   3.802  0.00  0.00    +0.023 C 
ATOM     26  F   UNL     1       2.654  -3.635   2.552  0.00  0.00    -0.241 F 
ATOM     27  F   UNL     1      -1.151  -1.093   3.983  0.00  0.00    -0.238 F 
ENDROOT
BRANCH  10  28
ATOM     28  C   UNL     1       1.633   0.514  -1.861  0.00  0.00    +0.193 C 
ATOM     29  O   UNL     1       2.821   0.481  -1.650  0.00  0.00    -0.292 OA
BRANCH  28  30
ATOM     30  C   UNL     1       1.052   1.602  -2.728  0.00  0.00    +0.233 C 
BRANCH  30  31
ATOM     31  O   UNL     1       2.078   2.534  -3.074  0.00  0.00    -0.387 OA
ATOM     32  H   UNL     1       1.775   3.263  -3.632  0.00  0.00    +0.210 HD
ENDBRANCH  30  31
ENDBRANCH  28  30
ENDBRANCH  10  28
BRANCH   4  33
ATOM     33  O   UNL     1      -1.770   0.756   2.232  0.00  0.00    -0.389 OA
ATOM     34  H   UNL     1      -2.377   1.316   1.729  0.00  0.00    +0.210 HD
ENDBRANCH   4  33
TORSDOF 4
