REMARK  Name = ZINC61979729
REMARK  6 active torsions:
REMARK  status: ('A' for Active; 'I' for Inactive)
REMARK    1  A    between atoms: C_1  and  N_2
REMARK    2  A    between atoms: N_2  and  C_3
REMARK    3  A    between atoms: N_2  and  S_11
REMARK    4  A    between atoms: C_7  and  C_9
REMARK    5  A    between atoms: S_11  and  C_14
REMARK    6  A    between atoms: C_19  and  N_20
REMARK                            x       y       z     vdW  Elec       q    Type
REMARK                         _______ _______ _______ _____ _____    ______ ____
ROOT
ATOM      1  S   UNL     1      -0.000  -0.824  -1.437  0.00  0.00    +0.076 S 
ATOM      2  O   UNL     1      -0.531  -2.115  -1.167  0.00  0.00    -0.150 OA
ATOM      3  O   UNL     1      -0.572   0.049  -2.401  0.00  0.00    -0.150 OA
ENDROOT
BRANCH   1   4
ATOM      4  C   UNL     1       1.682  -1.059  -1.905  0.00  0.00    +0.131 A 
ATOM      5  C   UNL     1       2.208  -2.335  -1.976  0.00  0.00    +0.050 A 
ATOM      6  C   UNL     1       3.529  -2.520  -2.344  0.00  0.00    +0.043 A 
ATOM      7  C   UNL     1       4.326  -1.429  -2.642  0.00  0.00    +0.022 A 
ATOM      8  C   UNL     1       3.806  -0.152  -2.573  0.00  0.00    +0.026 A 
ATOM      9  C   UNL     1       2.478   0.037  -2.209  0.00  0.00    +0.052 A 
ATOM     10 CL   UNL     1       4.187  -4.124  -2.432  0.00  0.00    -0.083 Cl
BRANCH   9  11
ATOM     11  N   UNL     1       1.947   1.328  -2.144  0.00  0.00    -0.356 N 
ATOM     12  H   UNL     1       1.021   1.459  -1.887  0.00  0.00    +0.142 HD
ATOM     13  H   UNL     1       2.504   2.093  -2.357  0.00  0.00    +0.142 HD
ENDBRANCH   9  11
ENDBRANCH   1   4
BRANCH   1  15
ATOM     14  C   UNL     1      -0.018   1.461   0.010  0.00  0.00    +0.157 C 
ATOM     15  N   UNL     1       0.002  -0.004   0.002  0.00  0.00    -0.206 N 
BRANCH  15  16
ATOM     16  C   UNL     1       0.023  -0.709   1.208  0.00  0.00    +0.052 A 
ATOM     17  C   UNL     1       0.555  -1.993   1.254  0.00  0.00    +0.025 A 
ATOM     18  C   UNL     1       0.578  -2.694   2.444  0.00  0.00    +0.003 A 
ATOM     19  C   UNL     1       0.073  -2.126   3.596  0.00  0.00    +0.019 A 
ATOM     20  C   UNL     1      -0.463  -0.837   3.561  0.00  0.00    +0.054 A 
ATOM     21  C   UNL     1      -0.481  -0.126   2.360  0.00  0.00    +0.043 A 
BRANCH  20  22
ATOM     22  C   UNL     1      -0.988  -0.245   4.755  0.00  0.00    +0.099 C 
ATOM     23  N   UNL     1      -1.404   0.225   5.701  0.00  0.00    -0.191 NA
ENDBRANCH  20  22
ENDBRANCH  15  16
ENDBRANCH   1  15
TORSDOF 5
