REMARK  Name = ZINC09668772
REMARK  5 active torsions:
REMARK  status: ('A' for Active; 'I' for Inactive)
REMARK    1  A    between atoms: C_1  and  C_2
REMARK    2  A    between atoms: C_2  and  C_3
REMARK    3  A    between atoms: C_3  and  O_4
REMARK    4  A    between atoms: O_4  and  C_5
REMARK    5  A    between atoms: C_8  and  C_11
REMARK                            x       y       z     vdW  Elec       q    Type
REMARK                         _______ _______ _______ _____ _____    ______ ____
ROOT
ATOM      1  C   UNL     1       4.328  -1.681  -0.037  0.00  0.00    +0.217 C 
ATOM      2  C   UNL     1       6.426  -0.475  -0.338  0.00  0.00    +0.159 C 
ATOM      3  N   UNL     1       5.856   0.754  -0.065  0.00  0.00    -0.259 N 
ATOM      4  C   UNL     1       4.467   0.807  -0.040  0.00  0.00    +0.205 A 
ATOM      5  N   UNL     1       3.724  -0.350  -0.034  0.00  0.00    -0.287 N 
ATOM      6  C   UNL     1       2.398   0.014  -0.021  0.00  0.00    +0.072 A 
ATOM      7  C   UNL     1       1.200  -0.687  -0.013  0.00  0.00    +0.028 A 
ATOM      8  C   UNL     1       0.002  -0.004   0.002  0.00  0.00    +0.002 A 
ATOM      9  C   UNL     1      -0.017   1.383   0.010  0.00  0.00    +0.002 A 
ATOM     10  C   UNL     1       1.161   2.096   0.002  0.00  0.00    +0.030 A 
ATOM     11  C   UNL     1       2.383   1.421  -0.013  0.00  0.00    +0.091 A 
ATOM     12  N   UNL     1       3.679   1.839  -0.025  0.00  0.00    -0.214 NA
ATOM     13  N   UNL     1       7.770  -0.526  -0.624  0.00  0.00    -0.332 N 
ATOM     14  H   UNL     1       6.398   1.542   0.100  0.00  0.00    +0.158 HD
ATOM     15  H   UNL     1       8.192  -1.377  -0.819  0.00  0.00    +0.145 HD
ATOM     16  H   UNL     1       8.295   0.289  -0.632  0.00  0.00    +0.145 HD
ATOM     17  N   UNL     1       5.807  -1.663  -0.359  0.00  0.00    -0.337 N 
ATOM     18  H   UNL     1       6.316  -2.526  -0.584  0.00  0.00    +0.164 HD
ENDROOT
BRANCH   1  22
ATOM     19  C   UNL     1       2.426  -4.097  -3.005  0.00  0.00    +0.121 A 
ATOM     20  C   UNL     1       2.067  -4.224  -1.671  0.00  0.00    +0.046 A 
ATOM     21  C   UNL     1       2.684  -3.442  -0.713  0.00  0.00    +0.011 A 
ATOM     22  C   UNL     1       3.657  -2.533  -1.083  0.00  0.00    -0.004 A 
ATOM     23  C   UNL     1       4.012  -2.400  -2.413  0.00  0.00    +0.011 A 
ATOM     24  C   UNL     1       3.403  -3.183  -3.374  0.00  0.00    +0.046 A 
BRANCH  19  25
ATOM     25  O   UNL     1       1.821  -4.865  -3.949  0.00  0.00    -0.492 OA
BRANCH  25  26
ATOM     26  C   UNL     1       2.240  -4.680  -5.302  0.00  0.00    +0.229 C 
BRANCH  26  28
ATOM     27  C   UNL     1       1.903  -5.426  -7.662  0.00  0.00    +0.007 C 
ATOM     28  C   UNL     1       1.454  -5.625  -6.213  0.00  0.00    +0.038 C 
ENDBRANCH  26  28
ENDBRANCH  25  26
ENDBRANCH  19  25
ENDBRANCH   1  22
TORSDOF 4
