REMARK  Name = ZINC49977291
REMARK  7 active torsions:
REMARK  status: ('A' for Active; 'I' for Inactive)
REMARK    1  A    between atoms: C_1  and  C_2
REMARK    2  A    between atoms: C_4  and  C_20
REMARK    3  A    between atoms: C_6  and  N_8
REMARK    4  A    between atoms: N_8  and  C_9
REMARK    5  A    between atoms: C_10  and  C_12
REMARK    6  A    between atoms: C_15  and  N_19
REMARK    7  A    between atoms: C_17  and  N_18
REMARK                            x       y       z     vdW  Elec       q    Type
REMARK                         _______ _______ _______ _____ _____    ______ ____
ROOT
ATOM      1  N   UNL     1       0.113  -2.788   2.447  0.00  0.00    -0.270 N 
ATOM      2  C   UNL     1       0.093  -4.252   2.508  0.00  0.00    +0.138 C 
ATOM      3  C   UNL     1       0.149  -2.066   3.585  0.00  0.00    +0.252 C 
ATOM      4  O   UNL     1       0.076  -0.853   3.538  0.00  0.00    -0.270 OA
ENDROOT
BRANCH   1  10
ATOM      5  C   UNL     1      -0.224   1.375  -0.145  0.00  0.00    +0.044 C 
ATOM      6  C   UNL     1      -0.068  -0.122  -0.078  0.00  0.00    -0.048 A 
ATOM      7  C   UNL     1       0.058  -0.857  -1.243  0.00  0.00    +0.006 A 
ATOM      8  C   UNL     1       0.202  -2.231  -1.185  0.00  0.00    -0.048 A 
ATOM      9  C   UNL     1       0.220  -2.874   0.036  0.00  0.00    +0.027 A 
ATOM     10  C   UNL     1       0.094  -2.139   1.208  0.00  0.00    +0.037 A 
ATOM     11  C   UNL     1      -0.045  -0.759   1.147  0.00  0.00    +0.027 A 
ATOM     12  C   UNL     1       0.337  -3.027  -2.458  0.00  0.00    +0.044 C 
ENDBRANCH   1  10
BRANCH   3  13
ATOM     13  C   UNL     1       0.277  -2.746   4.883  0.00  0.00    +0.058 A 
ATOM     14  C   UNL     1       1.309  -3.667   5.095  0.00  0.00    +0.017 A 
ATOM     15  C   UNL     1       1.427  -4.298   6.300  0.00  0.00    +0.023 A 
ATOM     16  C   UNL     1       0.523  -4.032   7.327  0.00  0.00    +0.026 A 
ATOM     17  C   UNL     1      -0.507  -3.121   7.135  0.00  0.00    +0.046 A 
ATOM     18  C   UNL     1      -0.633  -2.469   5.918  0.00  0.00    +0.039 A 
BRANCH  18  19
ATOM     19  N   UNL     1      -1.658  -1.552   5.720  0.00  0.00    -0.357 N 
ATOM     20  H   UNL     1      -1.792  -1.156   4.845  0.00  0.00    +0.142 HD
ATOM     21  H   UNL     1      -2.239  -1.307   6.457  0.00  0.00    +0.142 HD
ENDBRANCH  18  19
BRANCH  16  22
ATOM     22  N   UNL     1       0.654  -4.681   8.550  0.00  0.00    -0.358 N 
ATOM     23  H   UNL     1       1.373  -5.318   8.687  0.00  0.00    +0.142 HD
ATOM     24  H   UNL     1       0.026  -4.497   9.266  0.00  0.00    +0.142 HD
ENDBRANCH  16  22
ENDBRANCH   3  13
TORSDOF 4
