REMARK  Name = ZINC58949006
REMARK  7 active torsions:
REMARK  status: ('A' for Active; 'I' for Inactive)
REMARK    1  A    between atoms: C_1  and  C_2
REMARK    2  A    between atoms: C_3  and  C_22
REMARK    3  A    between atoms: C_4  and  C_13
REMARK    4  A    between atoms: C_6  and  C_10
REMARK    5  A    between atoms: C_7  and  N_9
REMARK    6  A    between atoms: C_17  and  N_19
REMARK    7  A    between atoms: C_22  and  C_24
REMARK                            x       y       z     vdW  Elec       q    Type
REMARK                         _______ _______ _______ _____ _____    ______ ____
ROOT
ATOM      1  C   UNL     1      -0.142   1.498  -0.047  0.00  0.00    +0.086 C 
ATOM      2  C   UNL     1      -0.057  -0.007  -0.025  0.00  0.00    +0.112 C 
ATOM      3  C   UNL     1      -1.192  -0.723   0.057  0.00  0.00    +0.044 C 
ATOM      4  C   UNL     1      -1.161  -2.227   0.083  0.00  0.00    +0.096 C 
ATOM      5  C   UNL     1       0.180  -2.721  -0.385  0.00  0.00    +0.083 C 
ATOM      6  C   UNL     1       1.247  -1.885  -0.445  0.00  0.00    +0.193 C 
ATOM      7  O   UNL     1       1.148  -0.592  -0.094  0.00  0.00    -0.446 OA
ENDROOT
BRANCH   4   8
ATOM      8  C   UNL     1      -1.406  -2.708   1.490  0.00  0.00    -0.033 A 
ATOM      9  C   UNL     1      -0.549  -2.333   2.508  0.00  0.00    +0.005 A 
ATOM     10  C   UNL     1      -0.773  -2.774   3.798  0.00  0.00    +0.003 A 
ATOM     11  C   UNL     1      -1.855  -3.590   4.072  0.00  0.00    +0.033 A 
ATOM     12  C   UNL     1      -2.713  -3.964   3.054  0.00  0.00    +0.126 A 
ATOM     13  C   UNL     1      -2.491  -3.519   1.764  0.00  0.00    +0.037 A 
BRANCH  12  14
ATOM     14  N   UNL     1      -3.871  -4.838   3.347  0.00  0.00    +0.056 N 
ATOM     15  O   UNL     1      -4.067  -5.224   4.475  0.00  0.00    -0.126 OA
ATOM     16  O   UNL     1      -4.622  -5.165   2.457  0.00  0.00    -0.126 OA
ENDBRANCH  12  14
ENDBRANCH   4   8
BRANCH   5  17
ATOM     17  C   UNL     1       0.330  -4.066  -0.767  0.00  0.00    +0.243 C 
ATOM     18  O   UNL     1      -0.060  -4.437  -1.860  0.00  0.00    -0.271 OA
ATOM     19  N   UNL     1       0.906  -4.946   0.076  0.00  0.00    -0.325 N 
ATOM     20  H   UNL     1       1.217  -4.651   0.947  0.00  0.00    +0.145 HD
ATOM     21  H   UNL     1       1.009  -5.874  -0.187  0.00  0.00    +0.145 HD
ENDBRANCH   5  17
BRANCH   6  22
ATOM     22  N   UNL     1       2.454  -2.370  -0.876  0.00  0.00    -0.329 N 
ATOM     23  H   UNL     1       2.519  -3.274  -1.220  0.00  0.00    +0.145 HD
ATOM     24  H   UNL     1       3.244  -1.808  -0.837  0.00  0.00    +0.145 HD
ENDBRANCH   6  22
BRANCH   3  25
ATOM     25  C   UNL     1      -2.428  -0.055   0.120  0.00  0.00    +0.160 C 
ATOM     26  O   UNL     1      -2.465   1.159   0.100  0.00  0.00    -0.293 OA
ATOM     27  C   UNL     1      -3.708  -0.846   0.212  0.00  0.00    +0.091 C 
ENDBRANCH   3  25
TORSDOF 5
