REMARK  Name = ZINC00097473
REMARK  4 active torsions:
REMARK  status: ('A' for Active; 'I' for Inactive)
REMARK    1  A    between atoms: C_1  and  S_2
REMARK    2  A    between atoms: S_2  and  N_5
REMARK    3  A    between atoms: N_5  and  C_6
REMARK    4  A    between atoms: C_11  and  C_12
REMARK                            x       y       z     vdW  Elec       q    Type
REMARK                         _______ _______ _______ _____ _____    ______ ____
ROOT
ATOM      1  C   UNL     1       2.103   0.011  -1.599  0.00  0.00    +0.060 A 
ATOM      2  C   UNL     1       3.012   0.001  -0.548  0.00  0.00    +0.025 A 
ATOM      3  C   UNL     1       4.311   0.421  -0.754  0.00  0.00    +0.002 A 
ATOM      4  C   UNL     1       4.719   0.854  -2.005  0.00  0.00    +0.001 A 
ATOM      5  C   UNL     1       3.831   0.871  -3.059  0.00  0.00    +0.015 A 
ATOM      6  C   UNL     1       2.515   0.444  -2.869  0.00  0.00    +0.059 A 
ENDROOT
BRANCH   6   7
ATOM      7  C   UNL     1       1.562   0.454  -3.993  0.00  0.00    +0.234 A 
ATOM      8  N   UNL     1       1.984   0.870  -5.159  0.00  0.00    -0.212 NA
ATOM      9  C   UNL     1       1.165   0.900  -6.237  0.00  0.00    +0.082 A 
ATOM     10  C   UNL     1       1.610   1.337  -7.487  0.00  0.00    +0.029 A 
ATOM     11  C   UNL     1       0.738   1.355  -8.553  0.00  0.00    +0.002 A 
ATOM     12  C   UNL     1      -0.580   0.944  -8.401  0.00  0.00    +0.001 A 
ATOM     13  C   UNL     1      -1.043   0.508  -7.178  0.00  0.00    +0.017 A 
ATOM     14  C   UNL     1      -0.178   0.482  -6.087  0.00  0.00    +0.085 A 
ATOM     15  C   UNL     1      -0.613   0.028  -4.758  0.00  0.00    +0.348 A 
ATOM     16  O   UNL     1      -1.754  -0.345  -4.561  0.00  0.00    -0.244 OA
ATOM     17  O   UNL     1       0.303   0.040  -3.765  0.00  0.00    -0.403 OA
ENDBRANCH   6   7
BRANCH   1  18
ATOM     18  N   UNL     1       0.795  -0.411  -1.394  0.00  0.00    -0.220 N 
ATOM     19  H   UNL     1       0.325  -0.891  -2.094  0.00  0.00    +0.173 HD
BRANCH  18  21
ATOM     20  C   UNL     1       0.032   1.715   0.179  0.00  0.00    +0.218 C 
ATOM     21  S   UNL     1       0.038  -0.094   0.045  0.00  0.00    +0.040 S 
ATOM     22  O   UNL     1       0.889  -0.656   1.034  0.00  0.00    -0.155 OA
ATOM     23  O   UNL     1      -1.288  -0.577  -0.129  0.00  0.00    -0.155 OA
ENDBRANCH  18  21
ENDBRANCH   1  18
TORSDOF 3
