REMARK  Name = ZINC02539723
REMARK  7 active torsions:
REMARK  status: ('A' for Active; 'I' for Inactive)
REMARK    1  A    between atoms: C_10  and  O_11
REMARK    2  A    between atoms: O_11  and  C_12
REMARK    3  A    between atoms: C_14  and  O_27
REMARK    4  A    between atoms: C_16  and  O_26
REMARK    5  A    between atoms: C_18  and  O_25
REMARK    6  A    between atoms: C_20  and  C_23
REMARK    7  A    between atoms: C_23  and  O_24
REMARK                            x       y       z     vdW  Elec       q    Type
REMARK                         _______ _______ _______ _____ _____    ______ ____
ROOT
ATOM      1  C   UNL     1       6.047  -0.680  -0.059  0.00  0.00    +0.339 C 
ATOM      2  C   UNL     1       7.243   0.267  -0.191  0.00  0.00    +0.214 C 
ATOM      3  C   UNL     1       7.289   1.191   1.030  0.00  0.00    +0.180 C 
ATOM      4  C   UNL     1       7.361   0.338   2.300  0.00  0.00    +0.177 C 
ATOM      5  C   UNL     1       6.161  -0.611   2.336  0.00  0.00    +0.179 C 
ATOM      6  O   UNL     1       6.160  -1.421   1.158  0.00  0.00    -0.331 OA
ENDROOT
BRANCH   4   7
ATOM      7  O   UNL     1       8.572  -0.420   2.298  0.00  0.00    -0.386 OA
ATOM      8  H   UNL     1       9.374   0.119   2.272  0.00  0.00    +0.210 HD
ENDBRANCH   4   7
BRANCH   3   9
ATOM      9  O   UNL     1       8.443   2.031   0.950  0.00  0.00    -0.386 OA
ATOM     10  H   UNL     1       8.466   2.595   0.165  0.00  0.00    +0.210 HD
ENDBRANCH   3   9
BRANCH   2  11
ATOM     11  O   UNL     1       7.104   1.049  -1.379  0.00  0.00    -0.383 OA
ATOM     12  H   UNL     1       7.063   0.526  -2.191  0.00  0.00    +0.210 HD
ENDBRANCH   2  11
BRANCH   1  13
ATOM     13  O   UNL     1       4.837   0.080  -0.043  0.00  0.00    -0.460 OA
BRANCH  13  23
ATOM     14  C   UNL     1      -0.016   1.357   0.009  0.00  0.00    +0.001 A 
ATOM     15  C   UNL     1       1.169   2.090   0.002  0.00  0.00    +0.001 A 
ATOM     16  C   UNL     1       2.379   1.467  -0.013  0.00  0.00    +0.012 A 
ATOM     17  C   UNL     1       2.437   0.064  -0.021  0.00  0.00    +0.024 A 
ATOM     18  C   UNL     1       1.233  -0.683  -0.013  0.00  0.00    -0.014 A 
ATOM     19  C   UNL     1       0.002  -0.004   0.002  0.00  0.00    +0.008 A 
ATOM     20  C   UNL     1       1.292  -2.087  -0.021  0.00  0.00    +0.009 A 
ATOM     21  C   UNL     1       2.501  -2.713  -0.035  0.00  0.00    +0.004 A 
ATOM     22  C   UNL     1       3.687  -1.984  -0.043  0.00  0.00    +0.046 A 
ATOM     23  C   UNL     1       3.671  -0.617  -0.036  0.00  0.00    +0.132 A 
ENDBRANCH  13  23
ENDBRANCH   1  13
BRANCH   5  24
ATOM     24  C   UNL     1       6.257  -1.508   3.572  0.00  0.00    +0.190 C 
BRANCH  24  25
ATOM     25  O   UNL     1       5.080  -2.313   3.669  0.00  0.00    -0.392 OA
ATOM     26  H   UNL     1       5.072  -2.908   4.431  0.00  0.00    +0.210 HD
ENDBRANCH  24  25
ENDBRANCH   5  24
TORSDOF 7
