REMARK  Name = ZINC40119400
REMARK  10 active torsions:
REMARK  status: ('A' for Active; 'I' for Inactive)
REMARK    1  A    between atoms: C_1  and  C_2
REMARK    2  A    between atoms: C_7  and  N_8
REMARK    3  A    between atoms: C_9  and  C_11
REMARK    4  A    between atoms: C_11  and  N_12
REMARK    5  A    between atoms: C_13  and  C_15
REMARK    6  A    between atoms: C_15  and  C_16
REMARK    7  A    between atoms: C_16  and  C_17
REMARK    8  A    between atoms: C_18  and  C_30
REMARK    9  A    between atoms: C_21  and  C_27
REMARK   10  A    between atoms: C_25  and  C_26
REMARK                            x       y       z     vdW  Elec       q    Type
REMARK                         _______ _______ _______ _____ _____    ______ ____
ROOT
ATOM      1  C   UNL     1      -0.420  -1.445   8.396  0.00  0.00    +0.100 C 
ENDROOT
BRANCH   1   3
ATOM      2  N   UNL     1      -0.240  -0.903   5.989  0.00  0.00    -0.307 N 
ATOM      3  C   UNL     1      -0.345  -0.460   7.257  0.00  0.00    +0.214 C 
ATOM      4  O   UNL     1      -0.377   0.731   7.483  0.00  0.00    -0.276 OA
ATOM      5  H   UNL     1      -0.214  -1.856   5.809  0.00  0.00    +0.149 HD
BRANCH   2   6
ATOM      6  C   UNL     1      -0.167   0.054   4.882  0.00  0.00    +0.200 C 
BRANCH   6   8
ATOM      7  N   UNL     1       0.026  -0.014   2.417  0.00  0.00    -0.284 N 
ATOM      8  C   UNL     1      -0.056  -0.694   3.578  0.00  0.00    +0.234 C 
ATOM      9  O   UNL     1      -0.040  -1.906   3.574  0.00  0.00    -0.274 OA
ATOM     10  H   UNL     1       0.079   0.955   2.425  0.00  0.00    +0.155 HD
BRANCH   7  17
ATOM     11  C   UNL     1      -1.265   1.183   0.182  0.00  0.00    +0.046 C 
ATOM     12  C   UNL     1      -0.584  -0.158   0.085  0.00  0.00    -0.028 A 
ATOM     13  C   UNL     1      -0.570  -0.840  -1.116  0.00  0.00    +0.020 A 
ATOM     14  C   UNL     1       0.055  -2.071  -1.206  0.00  0.00    +0.018 A 
ATOM     15  C   UNL     1       0.666  -2.623  -0.094  0.00  0.00    +0.017 A 
ATOM     16  C   UNL     1       0.655  -1.945   1.109  0.00  0.00    +0.024 A 
ATOM     17  C   UNL     1       0.034  -0.706   1.201  0.00  0.00    +0.036 A 
ATOM     18 BR   UNL     1       0.072  -3.002  -2.852  0.00  0.00    -0.050 Br
ENDBRANCH   7  17
ENDBRANCH   6   8
ENDBRANCH   2   6
ENDBRANCH   1   3
BRANCH   1  19
ATOM     19  C   UNL     1      -0.533  -0.686   9.720  0.00  0.00    +0.048 C 
BRANCH  19  20
ATOM     20  C   UNL     1      -0.609  -1.671  10.858  0.00  0.00    -0.005 A 
ATOM     21  C   UNL     1      -1.837  -2.232  11.226  0.00  0.00    +0.045 A 
ATOM     22  N   UNL     1      -1.898  -3.091  12.220  0.00  0.00    -0.232 NA
ATOM     23  C   UNL     1      -0.799  -3.442  12.890  0.00  0.00    +0.168 A 
ATOM     24  C   UNL     1      -0.584  -4.319  13.970  0.00  0.00    +0.100 A 
ATOM     25  C   UNL     1       0.793  -4.285  14.256  0.00  0.00    +0.150 A 
ATOM     26  N   UNL     1       1.374  -3.460  13.425  0.00  0.00    -0.172 NA
ATOM     27  N   UNL     1       0.418  -2.916  12.561  0.00  0.00    -0.218 N 
ATOM     28  C   UNL     1       0.514  -2.027  11.532  0.00  0.00    +0.047 A 
ATOM     29  C   UNL     1       1.850  -1.442  11.152  0.00  0.00    +0.066 C 
ATOM     30  C   UNL     1      -3.091  -1.851  10.483  0.00  0.00    +0.066 C 
BRANCH  24  31
ATOM     31  C   UNL     1      -1.600  -5.115  14.665  0.00  0.00    +0.247 C 
ATOM     32  O   UNL     1      -2.764  -5.052  14.317  0.00  0.00    -0.270 OA
ATOM     33  N   UNL     1      -1.244  -5.916  15.689  0.00  0.00    -0.325 N 
ATOM     34  H   UNL     1      -0.316  -5.966  15.966  0.00  0.00    +0.145 HD
ATOM     35  H   UNL     1      -1.917  -6.443  16.148  0.00  0.00    +0.145 HD
ENDBRANCH  24  31
ENDBRANCH  19  20
ENDBRANCH   1  19
TORSDOF 7
