REMARK  Name = ZINC44428057
REMARK  10 active torsions:
REMARK  status: ('A' for Active; 'I' for Inactive)
REMARK    1  A    between atoms: C_1  and  C_2
REMARK    2  A    between atoms: C_2  and  O_3
REMARK    3  A    between atoms: O_3  and  C_4
REMARK    4  A    between atoms: C_7  and  C_13
REMARK    5  A    between atoms: C_9  and  O_10
REMARK    6  A    between atoms: O_10  and  C_11
REMARK    7  A    between atoms: C_11  and  C_12
REMARK    8  A    between atoms: C_13  and  N_14
REMARK    9  A    between atoms: C_16  and  C_21
REMARK   10  A    between atoms: C_23  and  C_26
REMARK                            x       y       z     vdW  Elec       q    Type
REMARK                         _______ _______ _______ _____ _____    ______ ____
ROOT
ATOM      1  N   UNL     1      -0.055  -6.540  -2.586  0.00  0.00    -0.296 N 
ATOM      2  C   UNL     1      -1.308  -6.984  -1.963  0.00  0.00    +0.120 C 
ATOM      3  C   UNL     1      -2.353  -6.991  -3.100  0.00  0.00    +0.086 C 
ATOM      4  C   UNL     1      -1.460  -7.182  -4.348  0.00  0.00    +0.109 C 
ATOM      5  C   UNL     1      -0.113  -6.640  -3.925  0.00  0.00    +0.217 C 
ATOM      6  O   UNL     1       0.785  -6.342  -4.684  0.00  0.00    -0.276 OA
ENDROOT
BRANCH   3   7
ATOM      7  C   UNL     1      -3.314  -8.141  -2.942  0.00  0.00    +0.177 A 
ATOM      8  N   UNL     1      -4.636  -8.030  -2.799  0.00  0.00    -0.191 NA
ATOM      9  C   UNL     1      -5.177  -9.225  -2.686  0.00  0.00    +0.264 A 
ATOM     10  O   UNL     1      -4.189 -10.136  -2.756  0.00  0.00    -0.333 OA
ATOM     11  N   UNL     1      -2.986  -9.402  -2.929  0.00  0.00    -0.061 NA
BRANCH   9  12
ATOM     12  C   UNL     1      -6.611  -9.514  -2.513  0.00  0.00    +0.104 A 
ATOM     13  C   UNL     1      -7.540  -8.479  -2.460  0.00  0.00    +0.020 A 
ATOM     14  C   UNL     1      -8.890  -8.790  -2.295  0.00  0.00    +0.018 A 
ATOM     15  C   UNL     1      -9.283 -10.085  -2.187  0.00  0.00    +0.086 A 
ATOM     16  N   UNL     1      -8.383 -11.098  -2.238  0.00  0.00    -0.328 N 
ATOM     17  H   UNL     1      -8.691 -12.014  -2.158  0.00  0.00    +0.168 HD
ATOM     18  C   UNL     1      -7.069 -10.852  -2.402  0.00  0.00    +0.261 A 
ATOM     19  O   UNL     1      -6.276 -11.776  -2.451  0.00  0.00    -0.267 OA
ENDBRANCH   9  12
ENDBRANCH   3   7
BRANCH   1  20
ATOM     20  C   UNL     1       1.107  -6.044  -1.844  0.00  0.00    +0.143 C 
BRANCH  20  24
ATOM     21  C   UNL     1       0.777  -1.811  -1.336  0.00  0.00    +0.162 A 
ATOM     22  C   UNL     1       0.243  -2.669  -0.388  0.00  0.00    +0.050 A 
ATOM     23  C   UNL     1       0.352  -4.037  -0.555  0.00  0.00    +0.009 A 
ATOM     24  C   UNL     1       0.992  -4.552  -1.667  0.00  0.00    -0.026 A 
ATOM     25  C   UNL     1       1.526  -3.702  -2.616  0.00  0.00    +0.054 A 
ATOM     26  C   UNL     1       1.416  -2.330  -2.458  0.00  0.00    +0.162 A 
BRANCH  21  27
ATOM     27  O   UNL     1       0.671  -0.465  -1.174  0.00  0.00    -0.489 OA
BRANCH  27  29
ATOM     28  C   UNL     1      -0.019   1.526   0.010  0.00  0.00    +0.048 C 
ATOM     29  C   UNL     1       0.002  -0.004   0.002  0.00  0.00    +0.226 C 
ENDBRANCH  27  29
ENDBRANCH  21  27
BRANCH  26  30
ATOM     30  O   UNL     1       1.936  -1.492  -3.394  0.00  0.00    -0.489 OA
BRANCH  30  31
ATOM     31  C   UNL     1       2.578  -2.095  -4.520  0.00  0.00    +0.226 C 
ATOM     32  C   UNL     1       3.096  -1.002  -5.457  0.00  0.00    +0.048 C 
ENDBRANCH  30  31
ENDBRANCH  26  30
ENDBRANCH  20  24
ENDBRANCH   1  20
TORSDOF 8
