REMARK  Name = ZINC31914274
REMARK  8 active torsions:
REMARK  status: ('A' for Active; 'I' for Inactive)
REMARK    1  A    between atoms: C_1  and  C_2
REMARK    2  A    between atoms: C_2  and  C_3
REMARK    3  A    between atoms: C_3  and  C_5
REMARK    4  A    between atoms: C_3  and  O_23
REMARK    5  A    between atoms: C_6  and  C_15
REMARK    6  A    between atoms: C_10  and  C_14
REMARK    7  A    between atoms: C_18  and  C_22
REMARK    8  A    between atoms: C_19  and  C_21
REMARK                            x       y       z     vdW  Elec       q    Type
REMARK                         _______ _______ _______ _____ _____    ______ ____
ROOT
ATOM      1  C   UNL     1       3.467   1.771   0.156  0.00  0.00    +0.080 A 
ATOM      2  C   UNL     1       3.931   0.504  -0.033  0.00  0.00    +0.096 A 
ATOM      3  N   UNL     1       2.908  -0.348   0.136  0.00  0.00    -0.227 NA
ATOM      4  C   UNL     1       1.813   0.340   0.424  0.00  0.00    +0.139 A 
ATOM      5  N   UNL     1       2.135   1.673   0.444  0.00  0.00    -0.298 N 
ATOM      6  C   UNL     1       1.181   2.610   0.718  0.00  0.00    +0.022 A 
ATOM      7  C   UNL     1      -0.092   2.241   0.975  0.00  0.00    +0.021 A 
ATOM      8  C   UNL     1      -0.453   0.883   0.962  0.00  0.00    +0.005 A 
ATOM      9  C   UNL     1       0.487  -0.061   0.691  0.00  0.00    +0.047 A 
ATOM     10  C   UNL     1       1.552   4.070   0.735  0.00  0.00    +0.064 C 
ENDROOT
BRANCH   2  11
ATOM     11  C   UNL     1       5.327   0.131  -0.367  0.00  0.00    +0.002 A 
ATOM     12  C   UNL     1       5.928  -0.960   0.259  0.00  0.00    +0.010 A 
ATOM     13  C   UNL     1       7.228  -1.303  -0.055  0.00  0.00    +0.004 A 
ATOM     14  C   UNL     1       7.933  -0.566  -0.990  0.00  0.00    -0.047 A 
ATOM     15  C   UNL     1       7.341   0.517  -1.615  0.00  0.00    -0.047 A 
ATOM     16  C   UNL     1       6.041   0.865  -1.311  0.00  0.00    +0.013 A 
ATOM     17  C   UNL     1       8.116   1.314  -2.632  0.00  0.00    +0.044 C 
ATOM     18  C   UNL     1       9.352  -0.946  -1.330  0.00  0.00    +0.044 C 
ENDBRANCH   2  11
BRANCH   1  19
ATOM     19  C   UNL     1       4.271   3.042   0.064  0.00  0.00    +0.163 C 
BRANCH  19  21
ATOM     20  C   UNL     1       4.835   5.000  -1.383  0.00  0.00    +0.007 C 
ATOM     21  C   UNL     1       4.008   3.716  -1.284  0.00  0.00    +0.034 C 
ENDBRANCH  19  21
BRANCH  19  22
ATOM     22  O   UNL     1       3.889   3.926   1.120  0.00  0.00    -0.386 OA
ATOM     23  H   UNL     1       4.006   3.613   2.168  0.00  0.00    +0.210 HD
ENDBRANCH  19  22
ENDBRANCH   1  19
TORSDOF 4
