REMARK  Name = ZINC62011930
REMARK  6 active torsions:
REMARK  status: ('A' for Active; 'I' for Inactive)
REMARK    1  A    between atoms: C_1  and  C_2
REMARK    2  A    between atoms: C_2  and  C_4
REMARK    3  A    between atoms: C_2  and  N_11
REMARK    4  A    between atoms: N_11  and  C_12
REMARK    5  A    between atoms: C_13  and  C_15
REMARK    6  A    between atoms: C_19  and  N_21
REMARK                            x       y       z     vdW  Elec       q    Type
REMARK                         _______ _______ _______ _____ _____    ______ ____
ROOT
ATOM      1  N   UNL     1      -1.483  -0.290   0.165  0.00  0.00    -0.293 N 
ATOM      2  C   UNL     1      -2.511   0.054  -0.821  0.00  0.00    +0.133 C 
ATOM      3  C   UNL     1      -1.827  -0.918   1.306  0.00  0.00    +0.265 C 
ATOM      4  O   UNL     1      -0.968  -1.264   2.093  0.00  0.00    -0.268 OA
ENDROOT
BRANCH   3   5
ATOM      5  C   UNL     1      -3.254  -1.187   1.603  0.00  0.00    +0.128 A 
ATOM      6  C   UNL     1      -3.613  -1.713   2.840  0.00  0.00    +0.033 A 
ATOM      7  C   UNL     1      -4.952  -1.961   3.107  0.00  0.00    +0.006 A 
ATOM      8  C   UNL     1      -5.887  -1.675   2.129  0.00  0.00    +0.043 A 
ATOM      9  C   UNL     1      -5.459  -1.149   0.910  0.00  0.00    +0.117 A 
ATOM     10  N   UNL     1      -4.178  -0.918   0.687  0.00  0.00    -0.228 NA
BRANCH   9  11
ATOM     11  N   UNL     1      -6.392  -0.858  -0.078  0.00  0.00    -0.343 N 
ATOM     12  H   UNL     1      -7.335  -1.022   0.081  0.00  0.00    +0.144 HD
ATOM     13  H   UNL     1      -6.101  -0.492  -0.928  0.00  0.00    +0.144 HD
ENDBRANCH   9  11
ENDBRANCH   3   5
BRANCH   1  15
ATOM     14  C   UNL     1       0.033   1.540  -0.414  0.00  0.00    +0.033 C 
ATOM     15  C   UNL     1      -0.081   0.049  -0.091  0.00  0.00    +0.103 C 
BRANCH  15  16
ATOM     16  C   UNL     1       0.426  -0.758  -1.258  0.00  0.00    -0.027 A 
ATOM     17  C   UNL     1      -0.254  -0.736  -2.461  0.00  0.00    +0.007 A 
ATOM     18  C   UNL     1       0.211  -1.475  -3.532  0.00  0.00    +0.020 A 
ATOM     19  C   UNL     1       1.357  -2.239  -3.400  0.00  0.00    +0.041 A 
ATOM     20  C   UNL     1       2.037  -2.261  -2.195  0.00  0.00    +0.020 A 
ATOM     21  C   UNL     1       1.575  -1.516  -1.127  0.00  0.00    +0.007 A 
ATOM     22 CL   UNL     1       1.941  -3.169  -4.744  0.00  0.00    -0.084 Cl
ENDBRANCH  15  16
ENDBRANCH   1  15
TORSDOF 4
