REMARK  Name = ZINC50306003
REMARK  5 active torsions:
REMARK  status: ('A' for Active; 'I' for Inactive)
REMARK    1  A    between atoms: C_1  and  C_2
REMARK    2  A    between atoms: C_3  and  N_21
REMARK    3  A    between atoms: C_4  and  C_8
REMARK    4  A    between atoms: N_13  and  C_16
REMARK    5  A    between atoms: C_16  and  C_17
REMARK                            x       y       z     vdW  Elec       q    Type
REMARK                         _______ _______ _______ _____ _____    ______ ____
ROOT
ATOM      1  C   UNL     1       0.711  -3.980  -1.954  0.00  0.00    +0.269 C 
ATOM      2  O   UNL     1       0.727  -4.130  -3.161  0.00  0.00    -0.268 OA
ATOM      3  N   UNL     1       0.655  -5.054  -1.142  0.00  0.00    -0.294 N 
ATOM      4  C   UNL     1       0.502  -4.893   0.312  0.00  0.00    +0.123 C 
ATOM      5  C   UNL     1      -0.662  -5.773   0.779  0.00  0.00    +0.103 C 
ATOM      6  N   UNL     1      -0.442  -7.153   0.327  0.00  0.00    -0.291 NA
ATOM      7  C   UNL     1      -0.430  -7.237  -1.140  0.00  0.00    +0.103 C 
ATOM      8  C   UNL     1       0.738  -6.418  -1.686  0.00  0.00    +0.123 C 
ENDROOT
BRANCH   1  12
ATOM      9  C   UNL     1       0.738   1.063  -1.404  0.00  0.00    +0.067 C 
ATOM     10  C   UNL     1       0.764  -0.423  -1.156  0.00  0.00    +0.054 A 
ATOM     11  C   UNL     1       0.689  -1.401  -2.098  0.00  0.00    +0.078 A 
ATOM     12  C   UNL     1       0.755  -2.622  -1.380  0.00  0.00    +0.168 A 
ATOM     13  N   UNL     1       0.863  -2.315  -0.101  0.00  0.00    -0.167 NA
ATOM     14  N   UNL     1       0.875  -1.039   0.050  0.00  0.00    -0.279 N 
ATOM     15  H   UNL     1       0.950  -0.582   0.902  0.00  0.00    +0.189 HD
BRANCH  11  16
ATOM     16  N   UNL     1       0.570  -1.236  -3.486  0.00  0.00    -0.355 N 
ATOM     17  H   UNL     1       0.534  -0.345  -3.867  0.00  0.00    +0.142 HD
ATOM     18  H   UNL     1       0.523  -2.013  -4.064  0.00  0.00    +0.142 HD
ENDBRANCH  11  16
ENDBRANCH   1  12
BRANCH   6  19
ATOM     19  C   UNL     1      -1.445  -8.061   0.898  0.00  0.00    +0.198 C 
BRANCH  19  20
ATOM     20  C   UNL     1      -1.093  -8.356   2.358  0.00  0.00    +0.402 C 
ATOM     21  F   UNL     1      -1.187  -7.179   3.108  0.00  0.00    -0.169 F 
ATOM     22  F   UNL     1      -1.983  -9.307   2.869  0.00  0.00    -0.169 F 
ATOM     23  F   UNL     1       0.212  -8.853   2.431  0.00  0.00    -0.169 F 
ENDBRANCH  19  20
ENDBRANCH   6  19
TORSDOF 4
