REMARK  Name = ZINC39665165
REMARK  8 active torsions:
REMARK  status: ('A' for Active; 'I' for Inactive)
REMARK    1  A    between atoms: C_1  and  C_2
REMARK    2  A    between atoms: C_2  and  C_4
REMARK    3  A    between atoms: C_2  and  O_29
REMARK    4  A    between atoms: C_4  and  N_5
REMARK    5  A    between atoms: C_6  and  C_8
REMARK    6  A    between atoms: C_19  and  C_21
REMARK    7  A    between atoms: C_21  and  C_22
REMARK    8  A    between atoms: O_29  and  C_30
REMARK                            x       y       z     vdW  Elec       q    Type
REMARK                         _______ _______ _______ _____ _____    ______ ____
ROOT
ATOM      1  C   UNL     1       2.105  -3.676  -2.546  0.00  0.00    +0.100 C 
ATOM      2  C   UNL     1       2.966  -4.097  -1.334  0.00  0.00    +0.121 C 
ATOM      3  N   UNL     1       3.899  -5.114  -1.873  0.00  0.00    -0.300 N 
ATOM      4  C   UNL     1       4.273  -4.598  -3.212  0.00  0.00    +0.115 C 
ATOM      5  C   UNL     1       2.967  -4.005  -3.776  0.00  0.00    -0.004 C 
ATOM      6  C   UNL     1       3.264  -2.736  -4.569  0.00  0.00    -0.010 C 
ATOM      7  C   UNL     1       4.072  -3.097  -5.818  0.00  0.00    -0.082 C 
ATOM      8  N   UNL     1       3.309  -4.044  -6.640  0.00  0.00    +0.379 N 
ATOM      9  C   UNL     1       3.109  -5.298  -5.904  0.00  0.00    -0.082 C 
ATOM     10  C   UNL     1       2.260  -5.030  -4.658  0.00  0.00    -0.010 C 
ATOM     11  C   UNL     1       4.314  -6.252  -1.281  0.00  0.00    +0.220 C 
ATOM     12  O   UNL     1       5.087  -6.988  -1.856  0.00  0.00    -0.275 OA
ATOM     13  H   UNL     1       2.412  -3.643  -6.869  0.00  0.00    -0.086 HD
ATOM     14  H   UNL     1       3.817  -4.233  -7.492  0.00  0.00    -0.086 HD
ENDROOT
BRANCH   1  16
ATOM     15  N   UNL     1       0.682  -1.716  -3.047  0.00  0.00    -0.312 N 
ATOM     16  C   UNL     1       1.811  -2.199  -2.492  0.00  0.00    +0.218 C 
ATOM     17  O   UNL     1       2.590  -1.444  -1.949  0.00  0.00    -0.275 OA
ATOM     18  H   UNL     1       0.058  -2.319  -3.481  0.00  0.00    +0.149 HD
BRANCH  15  19
ATOM     19  C   UNL     1       0.395  -0.280  -2.994  0.00  0.00    +0.148 C 
BRANCH  19  21
ATOM     20  C   UNL     1      -1.236   1.500  -3.637  0.00  0.00    +0.053 C 
ATOM     21  C   UNL     1      -0.937   0.000  -3.691  0.00  0.00    +0.187 C 
BRANCH  21  22
ATOM     22  O   UNL     1      -0.859  -0.420  -5.055  0.00  0.00    -0.488 OA
BRANCH  22  23
ATOM     23  C   UNL     1      -2.028  -0.740  -5.670  0.00  0.00    +0.121 A 
ATOM     24  C   UNL     1      -2.017  -1.264  -6.955  0.00  0.00    +0.045 A 
ATOM     25  C   UNL     1      -3.206  -1.588  -7.577  0.00  0.00    +0.004 A 
ATOM     26  C   UNL     1      -4.408  -1.391  -6.922  0.00  0.00    +0.000 A 
ATOM     27  C   UNL     1      -4.422  -0.868  -5.642  0.00  0.00    +0.004 A 
ATOM     28  C   UNL     1      -3.234  -0.548  -5.012  0.00  0.00    +0.045 A 
ENDBRANCH  22  23
ENDBRANCH  21  22
ENDBRANCH  19  21
ENDBRANCH  15  19
ENDBRANCH   1  16
BRANCH  11  29
ATOM     29  C   UNL     1       3.817  -6.609   0.096  0.00  0.00    +0.131 C 
BRANCH  29  30
ATOM     30  C   UNL     1       4.426  -7.918   0.527  0.00  0.00    -0.039 A 
ATOM     31  C   UNL     1       3.786  -9.108   0.233  0.00  0.00    +0.005 A 
ATOM     32  C   UNL     1       4.345 -10.309   0.628  0.00  0.00    +0.020 A 
ATOM     33  C   UNL     1       5.545 -10.320   1.317  0.00  0.00    +0.041 A 
ATOM     34  C   UNL     1       6.185  -9.129   1.610  0.00  0.00    +0.020 A 
ATOM     35  C   UNL     1       5.628  -7.929   1.210  0.00  0.00    +0.005 A 
ATOM     36 CL   UNL     1       6.247 -11.828   1.813  0.00  0.00    -0.084 Cl
ENDBRANCH  29  30
ENDBRANCH  11  29
TORSDOF 7
