REMARK  Name = ZINC16043475
REMARK  8 active torsions:
REMARK  status: ('A' for Active; 'I' for Inactive)
REMARK    1  A    between atoms: C_1  and  C_2
REMARK    2  A    between atoms: C_8  and  C_12
REMARK    3  A    between atoms: C_12  and  O_14
REMARK    4  A    between atoms: O_14  and  C_15
REMARK    5  A    between atoms: C_15  and  C_16
REMARK    6  A    between atoms: N_18  and  C_19
REMARK    7  A    between atoms: C_23  and  S_25
REMARK    8  A    between atoms: S_25  and  N_28
REMARK                            x       y       z     vdW  Elec       q    Type
REMARK                         _______ _______ _______ _____ _____    ______ ____
ROOT
ATOM      1  C   UNL     1       6.461   6.132   4.762  0.00  0.00    +0.255 C 
ATOM      2  O   UNL     1       6.075   7.032   5.477  0.00  0.00    -0.272 OA
ATOM      3  N   UNL     1       5.601   5.523   3.921  0.00  0.00    -0.283 N 
ATOM      4  H   UNL     1       5.889   4.754   3.405  0.00  0.00    +0.155 HD
ENDROOT
BRANCH   3   5
ATOM      5  C   UNL     1       4.293   6.002   3.792  0.00  0.00    +0.035 A 
ATOM      6  C   UNL     1       4.034   7.361   3.910  0.00  0.00    +0.023 A 
ATOM      7  C   UNL     1       2.741   7.830   3.783  0.00  0.00    +0.004 A 
ATOM      8  C   UNL     1       1.705   6.947   3.537  0.00  0.00    +0.029 A 
ATOM      9  C   UNL     1       1.959   5.593   3.418  0.00  0.00    +0.114 A 
ATOM     10  C   UNL     1       3.249   5.118   3.550  0.00  0.00    +0.052 A 
BRANCH   9  11
ATOM     11  S   UNL     1       0.636   4.473   3.105  0.00  0.00    +0.100 S 
ATOM     12  O   UNL     1      -0.549   5.104   3.571  0.00  0.00    -0.146 OA
ATOM     13  O   UNL     1       1.059   3.202   3.578  0.00  0.00    -0.146 OA
BRANCH  11  14
ATOM     14  N   UNL     1       0.486   4.340   1.461  0.00  0.00    -0.118 NA
ATOM     15  C   UNL     1      -0.421   3.570   0.955  0.00  0.00    +0.117 C 
ATOM     16  C   UNL     1      -1.339   2.797   1.818  0.00  0.00    +0.073 C 
ATOM     17  C   UNL     1      -0.878   1.372   2.167  0.00  0.00    +0.008 C 
ATOM     18  C   UNL     1      -0.250   0.699   0.920  0.00  0.00    +0.002 C 
ATOM     19  C   UNL     1      -1.003   1.023  -0.342  0.00  0.00    +0.019 C 
ATOM     20  C   UNL     1      -0.259   2.190  -1.000  0.00  0.00    +0.102 C 
ATOM     21  N   UNL     1      -0.571   3.438  -0.435  0.00  0.00    -0.331 N 
ATOM     22  H   UNL     1      -0.877   4.178  -0.982  0.00  0.00    +0.147 HD
ENDBRANCH  11  14
ENDBRANCH   9  11
ENDBRANCH   3   5
BRANCH   1  23
ATOM     23  C   UNL     1       7.902   5.693   4.814  0.00  0.00    +0.328 C 
BRANCH  23  24
ATOM     24  O   UNL     1       8.617   6.496   5.790  0.00  0.00    -0.454 OA
BRANCH  24  25
ATOM     25  C   UNL     1       9.922   6.229   5.958  0.00  0.00    +0.329 C 
ATOM     26  O   UNL     1      10.449   5.355   5.313  0.00  0.00    -0.249 OA
BRANCH  25  34
ATOM     27  C   UNL     1      13.617   8.010   8.280  0.00  0.00    +0.044 C 
ATOM     28  C   UNL     1      13.160   7.501   6.912  0.00  0.00    +0.082 C 
ATOM     29  C   UNL     1      14.286   6.823   6.115  0.00  0.00    +0.046 C 
ATOM     30  C   UNL     1      14.138   5.362   6.609  0.00  0.00    +0.099 C 
ATOM     31  C   UNL     1      12.691   5.253   7.029  0.00  0.00    +0.217 C 
ATOM     32  O   UNL     1      12.142   4.222   7.357  0.00  0.00    -0.276 OA
ATOM     33  N   UNL     1      12.089   6.472   6.989  0.00  0.00    -0.273 N 
ATOM     34  C   UNL     1      10.730   7.022   6.954  0.00  0.00    +0.196 C 
ATOM     35  C   UNL     1      10.645   8.518   6.571  0.00  0.00    +0.105 C 
ATOM     36  S   UNL     1      12.335   8.783   5.879  0.00  0.00    -0.133 S 
ENDBRANCH  25  34
ENDBRANCH  24  25
ENDBRANCH  23  24
ENDBRANCH   1  23
TORSDOF 7
