REMARK  Name = ZINC35591396
REMARK  3 active torsions:
REMARK  status: ('A' for Active; 'I' for Inactive)
REMARK    1  A    between atoms: N_9  and  C_17
REMARK    2  A    between atoms: N_12  and  C_13
REMARK    3  A    between atoms: C_13  and  C_14
REMARK                            x       y       z     vdW  Elec       q    Type
REMARK                         _______ _______ _______ _____ _____    ______ ____
ROOT
ATOM      1  C   UNL     1      -0.017   1.375   0.010  0.00  0.00    +0.001 A 
ATOM      2  C   UNL     1       1.169   2.093   0.002  0.00  0.00    +0.002 A 
ATOM      3  C   UNL     1       2.387   1.442  -0.013  0.00  0.00    +0.027 A 
ATOM      4  C   UNL     1       2.425   0.056  -0.021  0.00  0.00    +0.059 A 
ATOM      5  C   UNL     1       1.224  -0.673  -0.013  0.00  0.00    +0.064 A 
ATOM      6  C   UNL     1       0.002  -0.004   0.002  0.00  0.00    +0.015 A 
ATOM      7  C   UNL     1       1.301  -2.145  -0.021  0.00  0.00    +0.269 A 
ATOM      8  O   UNL     1       0.291  -2.823  -0.015  0.00  0.00    -0.266 OA
ATOM      9  N   UNL     1       2.522  -2.722  -0.036  0.00  0.00    -0.226 N 
ATOM     10  C   UNL     1       3.642  -1.982  -0.043  0.00  0.00    +0.337 A 
ATOM     11  O   UNL     1       4.716  -2.551  -0.056  0.00  0.00    -0.246 OA
ATOM     12  N   UNL     1       3.627  -0.637  -0.036  0.00  0.00    -0.284 N 
ENDROOT
BRANCH   9  13
ATOM     13  C   UNL     1       2.623  -4.120  -0.044  0.00  0.00    +0.089 A 
ATOM     14  C   UNL     1       2.666  -4.808  -1.249  0.00  0.00    +0.029 A 
ATOM     15  C   UNL     1       2.765  -6.185  -1.254  0.00  0.00    +0.002 A 
ATOM     16  C   UNL     1       2.821  -6.881  -0.060  0.00  0.00    +0.003 A 
ATOM     17  C   UNL     1       2.777  -6.201   1.143  0.00  0.00    +0.040 A 
ATOM     18  C   UNL     1       2.684  -4.821   1.155  0.00  0.00    +0.147 A 
ATOM     19  F   UNL     1       2.647  -4.156   2.330  0.00  0.00    -0.203 F 
ENDBRANCH   9  13
BRANCH  12  20
ATOM     20  C   UNL     1       4.891   0.102  -0.045  0.00  0.00    +0.222 C 
BRANCH  20  21
ATOM     21  C   UNL     1       5.339   0.349   1.373  0.00  0.00    +0.230 C 
ATOM     22  O   UNL     1       4.668  -0.054   2.299  0.00  0.00    -0.274 OA
ATOM     23  N   UNL     1       6.485   1.017   1.611  0.00  0.00    -0.328 N 
ATOM     24  H   UNL     1       7.022   1.339   0.870  0.00  0.00    +0.145 HD
ATOM     25  H   UNL     1       6.773   1.176   2.524  0.00  0.00    +0.145 HD
ENDBRANCH  20  21
ENDBRANCH  12  20
TORSDOF 3
