REMARK  Name = ZINC27400506
REMARK  6 active torsions:
REMARK  status: ('A' for Active; 'I' for Inactive)
REMARK    1  A    between atoms: C_4  and  C_7
REMARK    2  A    between atoms: C_4  and  N_25
REMARK    3  A    between atoms: C_7  and  N_8
REMARK    4  A    between atoms: C_9  and  C_11
REMARK    5  A    between atoms: C_11  and  C_12
REMARK    6  A    between atoms: C_12  and  N_13
REMARK                            x       y       z     vdW  Elec       q    Type
REMARK                         _______ _______ _______ _____ _____    ______ ____
ROOT
ATOM      1  N   UNL     1      -0.397   1.283  -1.164  0.00  0.00    -0.317 N 
ATOM      2  C   UNL     1       0.251   0.906  -2.284  0.00  0.00    +0.214 C 
ATOM      3  O   UNL     1       1.271   0.253  -2.204  0.00  0.00    -0.276 OA
ATOM      4  H   UNL     1      -1.322   1.874  -1.237  0.00  0.00    +0.149 HD
ENDROOT
BRANCH   1   5
ATOM      5  C   UNL     1       0.129   0.905   0.150  0.00  0.00    +0.092 C 
BRANCH   5   9
ATOM      6  C   UNL     1       0.680   3.404   2.586  0.00  0.00    -0.000 C 
ATOM      7  C   UNL     1       1.028   1.922   2.746  0.00  0.00    -0.001 C 
ATOM      8  C   UNL     1      -0.244   1.083   2.614  0.00  0.00    -0.010 C 
ATOM      9  C   UNL     1      -0.867   1.315   1.236  0.00  0.00    -0.050 C 
ATOM     10  C   UNL     1      -1.215   2.796   1.076  0.00  0.00    -0.010 C 
ATOM     11  C   UNL     1       0.057   3.636   1.208  0.00  0.00    -0.001 C 
BRANCH   9  12
ATOM     12  N   UNL     1      -2.089   0.509   1.109  0.00  0.00    +0.384 N 
ATOM     13  C   UNL     1      -1.788  -0.924   1.222  0.00  0.00    -0.078 C 
ATOM     14  C   UNL     1      -3.094  -1.722   1.232  0.00  0.00    -0.019 C 
ATOM     15  C   UNL     1      -3.865  -1.444  -0.061  0.00  0.00    -0.004 C 
ATOM     16  C   UNL     1      -4.124   0.061  -0.180  0.00  0.00    -0.019 C 
ATOM     17  C   UNL     1      -2.788   0.806  -0.148  0.00  0.00    -0.078 C 
ATOM     18  H   UNL     1      -2.761   0.777   1.937  0.00  0.00    -0.081 HD
ENDBRANCH   9  12
ENDBRANCH   5   9
ENDBRANCH   1   5
BRANCH   2  19
ATOM     19  C   UNL     1      -0.290   1.294  -3.635  0.00  0.00    +0.115 C 
BRANCH  19  20
ATOM     20  C   UNL     1       0.627   0.745  -4.730  0.00  0.00    +0.127 C 
BRANCH  20  21
ATOM     21  N   UNL     1       0.101   1.123  -6.044  0.00  0.00    -0.224 N 
ATOM     22  C   UNL     1       0.428   2.259  -6.693  0.00  0.00    +0.247 C 
ATOM     23  O   UNL     1       1.185   3.129  -6.316  0.00  0.00    -0.273 OA
ATOM     24  C   UNL     1      -0.347   2.220  -7.990  0.00  0.00    +0.113 C 
ATOM     25  C   UNL     1       0.608   2.217  -9.180  0.00  0.00    +0.035 C 
ATOM     26  C   UNL     1      -0.195   2.149 -10.481  0.00  0.00    +0.003 C 
ATOM     27  C   UNL     1      -1.134   3.353 -10.564  0.00  0.00    +0.000 C 
ATOM     28  C   UNL     1      -2.101   3.329  -9.378  0.00  0.00    +0.003 C 
ATOM     29  C   UNL     1      -1.307   3.402  -8.072  0.00  0.00    +0.035 C 
ATOM     30  N   UNL     1      -1.090   0.956  -7.924  0.00  0.00    -0.285 N 
ATOM     31  C   UNL     1      -0.760   0.381  -6.751  0.00  0.00    +0.309 C 
ATOM     32  O   UNL     1      -1.196  -0.689  -6.376  0.00  0.00    -0.252 OA
ATOM     33  H   UNL     1      -1.755   0.664  -8.750  0.00  0.00    +0.151 HD
ENDBRANCH  20  21
ENDBRANCH  19  20
ENDBRANCH   2  19
TORSDOF 6
