REMARK  Name = ZINC02638286
REMARK  6 active torsions:
REMARK  status: ('A' for Active; 'I' for Inactive)
REMARK    1  A    between atoms: C_1  and  C_2
REMARK    2  A    between atoms: C_2  and  C_4
REMARK    3  A    between atoms: C_7  and  N_10
REMARK    4  A    between atoms: C_13  and  N_29
REMARK    5  A    between atoms: C_14  and  C_16
REMARK    6  A    between atoms: C_16  and  C_18
REMARK                            x       y       z     vdW  Elec       q    Type
REMARK                         _______ _______ _______ _____ _____    ______ ____
ROOT
ATOM      1  N   UNL     1      -4.928   3.956   0.073  0.00  0.00    -0.256 N 
ATOM      2  C   UNL     1      -4.939   5.315   0.203  0.00  0.00    +0.104 A 
ATOM      3  C   UNL     1      -6.135   6.017   0.421  0.00  0.00    +0.092 A 
ATOM      4  C   UNL     1      -6.016   7.412   0.539  0.00  0.00    +0.057 A 
ATOM      5  C   UNL     1      -4.747   7.965   0.430  0.00  0.00    +0.083 A 
ATOM      6  S   UNL     1      -3.720   6.532   0.163  0.00  0.00    -0.065 S 
ATOM      7  C   UNL     1      -7.358   5.183   0.498  0.00  0.00    +0.264 A 
ATOM      8  O   UNL     1      -8.444   5.700   0.685  0.00  0.00    -0.267 OA
ATOM      9  N   UNL     1      -7.254   3.850   0.358  0.00  0.00    -0.274 N 
ATOM     10  H   UNL     1      -8.080   3.290   0.414  0.00  0.00    +0.173 HD
ATOM     11  C   UNL     1      -6.072   3.249   0.146  0.00  0.00    +0.335 A 
ATOM     12  O   UNL     1      -6.034   2.040   0.021  0.00  0.00    -0.246 OA
ENDROOT
BRANCH   1  16
ATOM     13  C   UNL     1      -1.324   1.977  -0.575  0.00  0.00    +0.017 A 
ATOM     14  C   UNL     1      -2.089   2.416  -1.662  0.00  0.00    +0.013 A 
ATOM     15  C   UNL     1      -3.279   3.063  -1.444  0.00  0.00    +0.027 A 
ATOM     16  C   UNL     1      -3.720   3.293  -0.144  0.00  0.00    +0.052 A 
ATOM     17  C   UNL     1      -2.960   2.863   0.940  0.00  0.00    +0.027 A 
ATOM     18  C   UNL     1      -1.772   2.211   0.731  0.00  0.00    +0.013 A 
BRANCH  13  20
ATOM     19  C   UNL     1       0.425   1.024  -2.210  0.00  0.00    +0.091 C 
ATOM     20  C   UNL     1      -0.052   1.279  -0.803  0.00  0.00    +0.160 C 
ATOM     21  O   UNL     1       0.612   0.905   0.140  0.00  0.00    -0.292 OA
ENDBRANCH  13  20
ENDBRANCH   1  16
BRANCH   4  22
ATOM     22  N   UNL     1      -7.128   8.209   0.756  0.00  0.00    -0.356 N 
ATOM     23  H   UNL     1      -7.028   9.171   0.835  0.00  0.00    +0.142 HD
ATOM     24  H   UNL     1      -8.007   7.806   0.830  0.00  0.00    +0.142 HD
ENDBRANCH   4  22
BRANCH   5  25
ATOM     25  C   UNL     1      -4.366   9.321   0.510  0.00  0.00    +0.202 C 
ATOM     26  O   UNL     1      -5.217  10.189   0.601  0.00  0.00    -0.286 OA
BRANCH  25  27
ATOM     27  C   UNL     1      -2.935   9.689   0.484  0.00  0.00    +0.025 A 
ATOM     28  C   UNL     1      -2.550  10.972   0.088  0.00  0.00    +0.015 A 
ATOM     29  C   UNL     1      -1.215  11.317   0.064  0.00  0.00    +0.048 A 
ATOM     30  C   UNL     1      -0.251  10.391   0.433  0.00  0.00    +0.142 A 
ATOM     31  C   UNL     1      -0.630   9.106   0.830  0.00  0.00    +0.076 A 
ATOM     32  C   UNL     1      -1.965   8.756   0.861  0.00  0.00    +0.038 A 
ATOM     33  N   UNL     1       0.360   8.183   1.198  0.00  0.00    -0.280 N 
ATOM     34  C   UNL     1       1.605   8.632   1.468  0.00  0.00    +0.255 C 
ATOM     35  O   UNL     1       2.485   7.849   1.760  0.00  0.00    -0.272 OA
ATOM     36  C   UNL     1       1.897  10.110   1.405  0.00  0.00    +0.325 C 
ATOM     37  O   UNL     1       1.067  10.722   0.415  0.00  0.00    -0.481 OA
ATOM     38  H   UNL     1       0.153   7.237   1.258  0.00  0.00    +0.155 HD
ENDBRANCH  25  27
ENDBRANCH   5  25
TORSDOF 5
