REMARK  Name = ZINC66130200
REMARK  6 active torsions:
REMARK  status: ('A' for Active; 'I' for Inactive)
REMARK    1  A    between atoms: C_1  and  C_2
REMARK    2  A    between atoms: C_2  and  C_3
REMARK    3  A    between atoms: C_3  and  C_5
REMARK    4  A    between atoms: C_3  and  N_6
REMARK    5  A    between atoms: C_16  and  C_17
REMARK    6  A    between atoms: C_16  and  C_18
REMARK                            x       y       z     vdW  Elec       q    Type
REMARK                         _______ _______ _______ _____ _____    ______ ____
ROOT
ATOM      1  N   UNL     1       2.195   0.144  -1.050  0.00  0.00    -0.274 N 
ATOM      2  C   UNL     1       3.035  -0.117  -0.028  0.00  0.00    +0.250 C 
ATOM      3  O   UNL     1       2.637  -0.702   0.960  0.00  0.00    -0.270 OA
ATOM      4  C   UNL     1       4.442   0.314  -0.121  0.00  0.00    +0.058 A 
ATOM      5  C   UNL     1       5.392  -0.091   0.814  0.00  0.00    +0.015 A 
ATOM      6  C   UNL     1       6.699   0.330   0.681  0.00  0.00    +0.001 A 
ATOM      7  C   UNL     1       7.071   1.151  -0.373  0.00  0.00    +0.002 A 
ATOM      8  C   UNL     1       6.137   1.563  -1.305  0.00  0.00    +0.024 A 
ATOM      9  C   UNL     1       4.821   1.152  -1.184  0.00  0.00    +0.041 A 
ATOM     10  N   UNL     1       3.841   1.560  -2.083  0.00  0.00    -0.323 N 
ATOM     11  C   UNL     1       2.689   0.678  -2.319  0.00  0.00    +0.102 C 
ATOM     12  C   UNL     1       1.574   1.474  -3.001  0.00  0.00    +0.053 C 
ATOM     13  H   UNL     1       3.919   2.408  -2.547  0.00  0.00    +0.148 HD
ENDROOT
BRANCH  11  14
ATOM     14  C   UNL     1       3.108  -0.480  -3.227  0.00  0.00    +0.031 C 
ATOM     15  C   UNL     1       4.606  -0.713  -3.429  0.00  0.00    +0.007 C 
ATOM     16  C   UNL     1       3.764  -0.127  -4.564  0.00  0.00    +0.007 C 
ENDBRANCH  11  14
BRANCH   1  17
ATOM     17  C   UNL     1       0.763  -0.119  -0.888  0.00  0.00    +0.075 C 
ATOM     18  C   UNL     1       0.539  -1.619  -0.686  0.00  0.00    +0.028 C 
BRANCH  17  20
ATOM     19  C   UNL     1       0.348   2.147   0.077  0.00  0.00    +0.006 C 
ATOM     20  C   UNL     1       0.239   0.643   0.331  0.00  0.00    +0.019 C 
ENDBRANCH  17  20
ENDBRANCH   1  17
TORSDOF 3
