REMARK  Name = ZINC04200855
REMARK  12 active torsions:
REMARK  status: ('A' for Active; 'I' for Inactive)
REMARK    1  A    between atoms: C_1  and  C_2
REMARK    2  A    between atoms: C_2  and  C_39
REMARK    3  A    between atoms: C_3  and  C_4
REMARK    4  A    between atoms: C_8  and  N_27
REMARK    5  A    between atoms: C_11  and  C_13
REMARK    6  A    between atoms: N_15  and  C_16
REMARK    7  A    between atoms: C_16  and  C_18
REMARK    8  A    between atoms: C_16  and  C_24
REMARK    9  A    between atoms: C_18  and  C_19
REMARK   10  A    between atoms: N_30  and  C_31
REMARK   11  A    between atoms: C_34  and  O_37
REMARK   12  A    between atoms: O_37  and  C_38
REMARK                            x       y       z     vdW  Elec       q    Type
REMARK                         _______ _______ _______ _____ _____    ______ ____
ROOT
ATOM      1  C   UNL     1      -1.706   1.983  -0.238  0.00  0.00    +0.240 C 
ATOM      2  O   UNL     1      -1.792   3.192  -0.347  0.00  0.00    -0.271 OA
ATOM      3  N   UNL     1      -2.819   1.241  -0.074  0.00  0.00    -0.285 N 
ATOM      4  C   UNL     1      -2.861  -0.226   0.070  0.00  0.00    +0.131 C 
ATOM      5  C   UNL     1      -4.283  -0.630  -0.390  0.00  0.00    +0.094 C 
ATOM      6  C   UNL     1      -5.134   0.548   0.157  0.00  0.00    +0.056 C 
ATOM      7  C   UNL     1      -4.193   1.760  -0.005  0.00  0.00    +0.164 C 
ENDROOT
BRANCH   5   8
ATOM      8  N   UNL     1      -4.691  -1.899   0.218  0.00  0.00    -0.295 N 
ATOM      9  C   UNL     1      -4.359  -3.065  -0.369  0.00  0.00    +0.304 C 
ATOM     10  O   UNL     1      -3.722  -3.064  -1.405  0.00  0.00    -0.253 OA
ATOM     11  N   UNL     1      -4.735  -4.232   0.190  0.00  0.00    -0.269 N 
ATOM     12  H   UNL     1      -5.200  -1.899   1.044  0.00  0.00    +0.151 HD
ATOM     13  H   UNL     1      -5.186  -4.236   1.048  0.00  0.00    +0.156 HD
BRANCH  11  14
ATOM     14  C   UNL     1      -4.473  -5.441  -0.469  0.00  0.00    +0.035 A 
ATOM     15  C   UNL     1      -5.373  -6.494  -0.374  0.00  0.00    +0.027 A 
ATOM     16  C   UNL     1      -5.117  -7.683  -1.028  0.00  0.00    +0.047 A 
ATOM     17  C   UNL     1      -3.954  -7.830  -1.770  0.00  0.00    +0.120 A 
ATOM     18  C   UNL     1      -3.051  -6.781  -1.861  0.00  0.00    +0.047 A 
ATOM     19  C   UNL     1      -3.309  -5.589  -1.212  0.00  0.00    +0.027 A 
BRANCH  17  20
ATOM     20  O   UNL     1      -3.700  -9.003  -2.408  0.00  0.00    -0.495 OA
ATOM     21  C   UNL     1      -4.673 -10.040  -2.272  0.00  0.00    +0.277 C 
ENDBRANCH  17  20
ENDBRANCH  11  14
ENDBRANCH   5   8
BRANCH   1  24
ATOM     22  C   UNL     1       2.069   1.409  -0.283  0.00  0.00    +0.039 C 
ATOM     23  C   UNL     1       0.716   2.070  -0.350  0.00  0.00    -0.071 C 
ATOM     24  C   UNL     1      -0.388   1.332  -0.284  0.00  0.00    +0.066 C 
ATOM     25  C   UNL     1       0.615   3.567  -0.491  0.00  0.00    +0.039 C 
ENDBRANCH   1  24
BRANCH   7  26
ATOM     26  C   UNL     1      -4.333   2.683   1.178  0.00  0.00    +0.234 C 
ATOM     27  O   UNL     1      -3.522   2.641   2.079  0.00  0.00    -0.274 OA
ATOM     28  N   UNL     1      -5.360   3.554   1.236  0.00  0.00    -0.302 N 
ATOM     29  H   UNL     1      -6.008   3.587   0.516  0.00  0.00    +0.150 HD
BRANCH  28  30
ATOM     30  C   UNL     1      -5.496   4.451   2.387  0.00  0.00    +0.163 C 
BRANCH  30  31
ATOM     31  C   UNL     1      -6.227   3.738   3.495  0.00  0.00    +0.231 C 
ATOM     32  O   UNL     1      -6.598   2.594   3.339  0.00  0.00    -0.274 OA
ATOM     33  N   UNL     1      -6.469   4.372   4.659  0.00  0.00    -0.328 N 
ATOM     34  H   UNL     1      -6.172   5.287   4.784  0.00  0.00    +0.145 HD
ATOM     35  H   UNL     1      -6.939   3.914   5.373  0.00  0.00    +0.145 HD
ENDBRANCH  30  31
BRANCH  30  36
ATOM     36  C   UNL     1      -6.284   5.695   1.973  0.00  0.00    +0.074 C 
BRANCH  36  37
ATOM     37  C   UNL     1      -5.495   6.473   0.952  0.00  0.00    -0.008 A 
ATOM     38  C   UNL     1      -5.503   6.362  -0.399  0.00  0.00    +0.011 A 
ATOM     39  C   UNL     1      -4.689   7.194  -1.145  0.00  0.00    +0.008 A 
ATOM     40  C   UNL     1      -3.899   8.089  -0.503  0.00  0.00    +0.045 A 
ATOM     41  S   UNL     1      -4.301   7.775   1.208  0.00  0.00    -0.102 S 
ENDBRANCH  36  37
ENDBRANCH  30  36
ENDBRANCH  28  30
ENDBRANCH   7  26
TORSDOF 9
