REMARK  Name = ZINC12717369
REMARK  12 active torsions:
REMARK  status: ('A' for Active; 'I' for Inactive)
REMARK    1  A    between atoms: C_1  and  C_2
REMARK    2  A    between atoms: C_2  and  C_3
REMARK    3  A    between atoms: C_10  and  C_15
REMARK    4  A    between atoms: C_15  and  N_65
REMARK    5  A    between atoms: C_16  and  C_17
REMARK    6  A    between atoms: C_16  and  N_65
REMARK    7  A    between atoms: C_26  and  C_27
REMARK    8  A    between atoms: C_26  and  N_65
REMARK    9  A    between atoms: N_31  and  C_32
REMARK   10  A    between atoms: C_32  and  C_33
REMARK   11  A    between atoms: C_32  and  C_34
REMARK   12  A    between atoms: C_32  and  C_35
REMARK                            x       y       z     vdW  Elec       q    Type
REMARK                         _______ _______ _______ _____ _____    ______ ____
ROOT
ATOM      1  N   UNL     1       6.332  -1.722   1.333  0.00  0.00    +0.390 N 
ATOM      2  H   UNL     1       6.080  -2.564   0.803  0.00  0.00    -0.080 HD
ENDROOT
BRANCH   1   3
ATOM      3  C   UNL     1       7.681  -1.902   1.908  0.00  0.00    -0.036 C 
BRANCH   3  11
ATOM      4  C   UNL     1       8.980  -7.950   2.030  0.00  0.00    -0.047 A 
ATOM      5  C   UNL     1       8.546  -8.177   3.330  0.00  0.00    +0.005 A 
ATOM      6  C   UNL     1       8.036  -7.147   4.090  0.00  0.00    +0.026 A 
ATOM      7  C   UNL     1       7.952  -5.867   3.552  0.00  0.00    +0.049 A 
ATOM      8  C   UNL     1       8.392  -5.641   2.234  0.00  0.00    -0.001 A 
ATOM      9  C   UNL     1       8.907  -6.702   1.480  0.00  0.00    +0.013 A 
ATOM     10  C   UNL     1       8.295  -4.292   1.674  0.00  0.00    +0.017 A 
ATOM     11  C   UNL     1       7.791  -3.303   2.452  0.00  0.00    +0.001 A 
ATOM     12  C   UNL     1       7.364  -3.582   3.768  0.00  0.00    +0.251 A 
ATOM     13  O   UNL     1       6.910  -2.679   4.450  0.00  0.00    -0.268 OA
ATOM     14  N   UNL     1       7.445  -4.819   4.289  0.00  0.00    -0.322 N 
ATOM     15  H   UNL     1       7.143  -4.975   5.197  0.00  0.00    +0.169 HD
BRANCH   4  17
ATOM     16  C   UNL     1      11.046  -9.186   1.436  0.00  0.00    +0.009 C 
ATOM     17  C   UNL     1       9.534  -9.093   1.218  0.00  0.00    +0.032 C 
ENDBRANCH   4  17
ENDBRANCH   3  11
ENDBRANCH   1   3
BRANCH   1  18
ATOM     18  C   UNL     1       5.344  -1.522   2.415  0.00  0.00    -0.042 C 
BRANCH  18  19
ATOM     19  C   UNL     1       3.959  -1.561   1.822  0.00  0.00    -0.060 A 
ATOM     20  C   UNL     1       3.290  -2.766   1.714  0.00  0.00    +0.005 A 
ATOM     21  C   UNL     1       2.019  -2.808   1.170  0.00  0.00    +0.050 A 
ATOM     22  C   UNL     1       1.414  -1.641   0.733  0.00  0.00    +0.166 A 
ATOM     23  C   UNL     1       2.088  -0.427   0.842  0.00  0.00    +0.166 A 
ATOM     24  C   UNL     1       3.361  -0.393   1.388  0.00  0.00    +0.051 A 
ATOM     25  O   UNL     1       1.288   0.562   0.347  0.00  0.00    -0.453 OA
ATOM     26  C   UNL     1      -0.038   0.002   0.311  0.00  0.00    +0.466 C 
ATOM     27  O   UNL     1       0.192  -1.412   0.169  0.00  0.00    -0.453 OA
ENDBRANCH  18  19
ENDBRANCH   1  18
BRANCH   1  28
ATOM     28  C   UNL     1       6.323  -0.559   0.420  0.00  0.00    +0.001 C 
BRANCH  28  29
ATOM     29  C   UNL     1       7.260  -0.834  -0.728  0.00  0.00    +0.136 A 
ATOM     30  N   UNL     1       8.553  -0.617  -0.751  0.00  0.00    -0.115 NA
ATOM     31  N   UNL     1       8.997  -0.982  -1.904  0.00  0.00    -0.023 NA
ATOM     32  N   UNL     1       8.020  -1.418  -2.620  0.00  0.00    -0.043 NA
ATOM     33  N   UNL     1       6.932  -1.343  -1.929  0.00  0.00    -0.226 N 
BRANCH  33  34
ATOM     34  C   UNL     1       5.592  -1.737  -2.371  0.00  0.00    +0.059 C 
ATOM     35  C   UNL     1       4.686  -0.505  -2.414  0.00  0.00    +0.036 C 
ATOM     36  C   UNL     1       5.677  -2.357  -3.767  0.00  0.00    +0.036 C 
ATOM     37  C   UNL     1       5.014  -2.761  -1.393  0.00  0.00    +0.036 C 
ENDBRANCH  33  34
ENDBRANCH  28  29
ENDBRANCH   1  28
TORSDOF 8
