REMARK  Name = ZINC34785201
REMARK  7 active torsions:
REMARK  status: ('A' for Active; 'I' for Inactive)
REMARK    1  A    between atoms: C_1  and  C_2
REMARK    2  A    between atoms: C_2  and  C_33
REMARK    3  A    between atoms: C_7  and  N_12
REMARK    4  A    between atoms: C_8  and  C_9
REMARK    5  A    between atoms: N_18  and  C_21
REMARK    6  A    between atoms: C_21  and  C_22
REMARK    7  A    between atoms: N_24  and  C_25
REMARK                            x       y       z     vdW  Elec       q    Type
REMARK                         _______ _______ _______ _____ _____    ______ ____
ROOT
ATOM      1  N   UNL     1       1.698  -5.300  -2.735  0.00  0.00    -0.263 N 
ATOM      2  C   UNL     1       1.830  -6.547  -2.240  0.00  0.00    +0.307 C 
ATOM      3  O   UNL     1       1.783  -6.732  -1.039  0.00  0.00    -0.252 OA
ATOM      4  N   UNL     1       2.015  -7.588  -3.076  0.00  0.00    -0.283 N 
ATOM      5  C   UNL     1       2.190  -7.374  -4.521  0.00  0.00    +0.124 C 
ATOM      6  C   UNL     1       1.208  -8.282  -5.269  0.00  0.00    +0.104 C 
ATOM      7  N   UNL     1       1.390  -9.669  -4.821  0.00  0.00    -0.291 NA
ATOM      8  C   UNL     1       1.071  -9.813  -3.394  0.00  0.00    +0.104 C 
ATOM      9  C   UNL     1       2.053  -8.967  -2.567  0.00  0.00    +0.124 C 
ATOM     10  H   UNL     1       1.809  -5.141  -3.685  0.00  0.00    +0.157 HD
ENDROOT
BRANCH   1  17
ATOM     11  C   UNL     1      -0.031   1.524   0.008  0.00  0.00    +0.041 C 
ATOM     12  C   UNL     1      -0.009  -0.006  -0.001  0.00  0.00    +0.068 C 
ATOM     13  C   UNL     1       0.697  -0.497  -1.270  0.00  0.00    +0.071 C 
ATOM     14  C   UNL     1       0.923  -1.996  -1.130  0.00  0.00    -0.018 A 
ATOM     15  C   UNL     1       0.845  -2.584   0.086  0.00  0.00    +0.021 A 
ATOM     16  S   UNL     1       1.169  -4.292  -0.222  0.00  0.00    -0.075 S 
ATOM     17  C   UNL     1       1.402  -4.245  -1.885  0.00  0.00    +0.086 A 
ATOM     18  C   UNL     1       1.230  -2.908  -2.214  0.00  0.00    +0.069 A 
ATOM     19  C   UNL     1       0.547  -1.891   1.378  0.00  0.00    +0.203 C 
ATOM     20  O   UNL     1       0.681  -0.477   1.160  0.00  0.00    -0.368 OA
ATOM     21  C   UNL     1      -1.445  -0.534   0.014  0.00  0.00    +0.041 C 
BRANCH  18  22
ATOM     22  C   UNL     1       1.352  -2.439  -3.597  0.00  0.00    +0.244 C 
ATOM     23  O   UNL     1       2.433  -2.075  -4.023  0.00  0.00    -0.270 OA
ATOM     24  N   UNL     1       0.268  -2.411  -4.398  0.00  0.00    -0.325 N 
ATOM     25  H   UNL     1      -0.593  -2.701  -4.058  0.00  0.00    +0.145 HD
ATOM     26  H   UNL     1       0.349  -2.100  -5.313  0.00  0.00    +0.145 HD
ENDBRANCH  18  22
ENDBRANCH   1  17
BRANCH   7  27
ATOM     27  C   UNL     1       0.590 -10.594  -5.635  0.00  0.00    +0.180 C 
BRANCH  27  28
ATOM     28  C   UNL     1       0.983 -12.013  -5.314  0.00  0.00    +0.227 C 
ATOM     29  O   UNL     1       1.844 -12.232  -4.488  0.00  0.00    -0.274 OA
ATOM     30  N   UNL     1       0.378 -13.039  -5.944  0.00  0.00    -0.311 N 
ATOM     31  H   UNL     1      -0.311 -12.864  -6.604  0.00  0.00    +0.149 HD
BRANCH  30  32
ATOM     32  C   UNL     1       0.759 -14.418  -5.632  0.00  0.00    +0.073 C 
ATOM     33  C   UNL     1       1.976 -14.813  -6.471  0.00  0.00    +0.022 C 
ATOM     34  C   UNL     1       2.375 -16.254  -6.146  0.00  0.00    +0.002 C 
ATOM     35  C   UNL     1       1.209 -17.191  -6.466  0.00  0.00    +0.000 C 
ATOM     36  C   UNL     1      -0.008 -16.796  -5.627  0.00  0.00    +0.002 C 
ATOM     37  C   UNL     1      -0.407 -15.355  -5.953  0.00  0.00    +0.022 C 
ENDBRANCH  30  32
ENDBRANCH  27  28
ENDBRANCH   7  27
TORSDOF 5
