REMARK  Name = ZINC57956314
REMARK  7 active torsions:
REMARK  status: ('A' for Active; 'I' for Inactive)
REMARK    1  A    between atoms: C_1  and  C_2
REMARK    2  A    between atoms: C_2  and  C_3
REMARK    3  A    between atoms: C_2  and  C_4
REMARK    4  A    between atoms: C_2  and  C_5
REMARK    5  A    between atoms: C_7  and  C_13
REMARK    6  A    between atoms: C_10  and  O_11
REMARK    7  A    between atoms: O_11  and  C_12
REMARK                            x       y       z     vdW  Elec       q    Type
REMARK                         _______ _______ _______ _____ _____    ______ ____
ROOT
ATOM      1  C   UNL     1       0.707  -0.490  -1.238  0.00  0.00    -0.000 A 
ATOM      2  C   UNL     1       1.217   0.419  -2.145  0.00  0.00    +0.013 A 
ATOM      3  C   UNL     1       1.863  -0.026  -3.283  0.00  0.00    -0.027 A 
ATOM      4  C   UNL     1       2.003  -1.382  -3.516  0.00  0.00    +0.009 A 
ATOM      5  C   UNL     1       1.496  -2.295  -2.612  0.00  0.00    +0.046 A 
ATOM      6  C   UNL     1       0.851  -1.851  -1.467  0.00  0.00    +0.124 A 
ENDROOT
BRANCH   3   7
ATOM      7  C   UNL     1       2.417   0.968  -4.271  0.00  0.00    +0.104 C 
ATOM      8  C   UNL     1       1.469   1.101  -5.483  0.00  0.00    +0.036 C 
ATOM      9  C   UNL     1       2.469   1.306  -6.644  0.00  0.00    +0.098 C 
ATOM     10  C   UNL     1       3.748   0.666  -6.150  0.00  0.00    +0.214 C 
ATOM     11  O   UNL     1       4.689   0.363  -6.852  0.00  0.00    -0.276 OA
ATOM     12  N   UNL     1       3.690   0.485  -4.818  0.00  0.00    -0.308 N 
ATOM     13  H   UNL     1       4.398   0.085  -4.288  0.00  0.00    +0.149 HD
ENDBRANCH   3   7
BRANCH   1  15
ATOM     14  C   UNL     1      -0.019   1.526   0.010  0.00  0.00    +0.015 C 
ATOM     15  C   UNL     1       0.002  -0.004   0.002  0.00  0.00    -0.009 C 
ATOM     16  C   UNL     1       0.742  -0.511   1.242  0.00  0.00    +0.015 C 
ATOM     17  C   UNL     1      -1.433  -0.534   0.013  0.00  0.00    +0.015 C 
ENDBRANCH   1  15
BRANCH   6  18
ATOM     18  O   UNL     1       0.356  -2.747  -0.573  0.00  0.00    -0.495 OA
ATOM     19  C   UNL     1       0.540  -4.132  -0.874  0.00  0.00    +0.277 C 
ENDBRANCH   6  18
TORSDOF 3
