REMARK  Name = ZINC45551262
REMARK  6 active torsions:
REMARK  status: ('A' for Active; 'I' for Inactive)
REMARK    1  A    between atoms: C_1  and  C_2
REMARK    2  A    between atoms: C_3  and  C_13
REMARK    3  A    between atoms: N_15  and  N_16
REMARK    4  A    between atoms: N_19  and  C_20
REMARK    5  A    between atoms: C_25  and  C_30
REMARK    6  A    between atoms: C_27  and  C_29
REMARK                            x       y       z     vdW  Elec       q    Type
REMARK                         _______ _______ _______ _____ _____    ______ ____
ROOT
ATOM      1  C   UNL     1      -0.008  -0.258  -2.565  0.00  0.00    +0.269 C 
ATOM      2  O   UNL     1      -0.027   0.937  -2.802  0.00  0.00    -0.268 OA
ATOM      3  N   UNL     1      -0.001  -1.145  -3.580  0.00  0.00    -0.229 N 
ATOM      4  H   UNL     1       0.014  -2.097  -3.391  0.00  0.00    +0.173 HD
ENDROOT
BRANCH   1   7
ATOM      5  C   UNL     1      -0.018   1.503   0.010  0.00  0.00    +0.067 C 
ATOM      6  C   UNL     1       0.002  -0.004   0.002  0.00  0.00    +0.060 A 
ATOM      7  C   UNL     1       0.006  -0.729  -1.181  0.00  0.00    +0.099 A 
ATOM      8  S   UNL     1       0.033  -2.397  -0.545  0.00  0.00    -0.047 S 
ATOM      9  C   UNL     1       0.036  -2.022   1.096  0.00  0.00    +0.162 A 
ATOM     10  N   UNL     1       0.022  -0.700   1.111  0.00  0.00    -0.229 NA
ATOM     11  N   UNL     1       0.053  -2.886   2.169  0.00  0.00    -0.305 N 
ATOM     12  C   UNL     1       0.046  -2.380   3.550  0.00  0.00    +0.135 C 
ATOM     13  C   UNL     1      -1.064  -3.100   4.324  0.00  0.00    +0.179 C 
ATOM     14  O   UNL     1      -0.907  -4.513   4.167  0.00  0.00    -0.377 OA
ATOM     15  C   UNL     1      -1.034  -4.969   2.818  0.00  0.00    +0.179 C 
ATOM     16  C   UNL     1       0.071  -4.344   1.967  0.00  0.00    +0.135 C 
ENDBRANCH   1   7
BRANCH   3  17
ATOM     17  N   UNL     1      -0.015  -0.694  -4.906  0.00  0.00    -0.218 N 
ATOM     18  C   UNL     1      -0.007  -1.581  -5.920  0.00  0.00    +0.316 C 
ATOM     19  O   UNL     1      -0.019  -1.189  -7.071  0.00  0.00    -0.251 OA
ATOM     20  N   UNL     1       0.013  -2.903  -5.659  0.00  0.00    -0.295 N 
ATOM     21  H   UNL     1      -0.029   0.258  -5.094  0.00  0.00    +0.174 HD
ATOM     22  H   UNL     1       0.023  -3.216  -4.740  0.00  0.00    +0.151 HD
BRANCH  20  23
ATOM     23  C   UNL     1       0.021  -3.868  -6.761  0.00  0.00    +0.078 C 
ATOM     24  C   UNL     1      -1.415  -4.130  -7.220  0.00  0.00    +0.022 C 
ATOM     25  C   UNL     1      -1.406  -5.137  -8.371  0.00  0.00    +0.002 C 
ATOM     26  C   UNL     1      -0.775  -6.448  -7.897  0.00  0.00    +0.003 C 
ATOM     27  C   UNL     1       0.661  -6.186  -7.439  0.00  0.00    -0.009 C 
ATOM     28  C   UNL     1       0.652  -5.178  -6.287  0.00  0.00    +0.009 C 
ATOM     29  C   UNL     1      -0.161  -5.744  -5.121  0.00  0.00    +0.009 C 
ATOM     30  C   UNL     1       1.292  -7.497  -6.965  0.00  0.00    +0.008 C 
ENDBRANCH  20  23
ENDBRANCH   3  17
TORSDOF 3
