REMARK  Name = ZINC39336682
REMARK  6 active torsions:
REMARK  status: ('A' for Active; 'I' for Inactive)
REMARK    1  A    between atoms: C_1  and  C_2
REMARK    2  A    between atoms: C_3  and  C_23
REMARK    3  A    between atoms: C_15  and  C_17
REMARK    4  A    between atoms: N_18  and  N_19
REMARK    5  A    between atoms: N_19  and  C_20
REMARK    6  A    between atoms: C_20  and  N_22
REMARK                            x       y       z     vdW  Elec       q    Type
REMARK                         _______ _______ _______ _____ _____    ______ ____
ROOT
ATOM      1  C   UNL     1      -0.018   1.503   0.010  0.00  0.00    +0.041 C 
ATOM      2  C   UNL     1       0.002  -0.004   0.002  0.00  0.00    -0.034 C 
ATOM      3  C   UNL     1       0.006  -0.688  -1.157  0.00  0.00    +0.095 C 
ATOM      4  C   UNL     1       0.026  -2.167  -1.167  0.00  0.00    +0.159 A 
ATOM      5  N   UNL     1       0.033  -2.996  -2.191  0.00  0.00    -0.226 NA
ATOM      6  C   UNL     1       0.053  -4.277  -1.751  0.00  0.00    +0.090 A 
ATOM      7  C   UNL     1       0.067  -5.516  -2.401  0.00  0.00    +0.030 A 
ATOM      8  C   UNL     1       0.086  -6.676  -1.661  0.00  0.00    +0.002 A 
ATOM      9  C   UNL     1       0.092  -6.627  -0.274  0.00  0.00    +0.002 A 
ATOM     10  C   UNL     1       0.078  -5.413   0.382  0.00  0.00    +0.028 A 
ATOM     11  C   UNL     1       0.059  -4.235  -0.348  0.00  0.00    +0.077 A 
ATOM     12  N   UNL     1       0.042  -2.890  -0.000  0.00  0.00    -0.261 N 
ATOM     13  C   UNL     1       0.039  -2.294   1.208  0.00  0.00    +0.246 C 
ATOM     14  O   UNL     1       0.053  -2.964   2.219  0.00  0.00    -0.271 OA
ATOM     15  C   UNL     1       0.025  -0.786   1.296  0.00  0.00    +0.148 C 
ENDROOT
BRANCH  15  16
ATOM     16  C   UNL     1      -1.189  -0.389   2.096  0.00  0.00    +0.120 C 
ATOM     17  N   UNL     1      -1.048   0.136   3.256  0.00  0.00    -0.192 NA
BRANCH  17  18
ATOM     18  N   UNL     1      -2.176   0.505   3.999  0.00  0.00    -0.219 N 
ATOM     19  H   UNL     1      -3.064   0.364   3.635  0.00  0.00    +0.176 HD
BRANCH  18  20
ATOM     20  C   UNL     1      -2.028   1.057   5.220  0.00  0.00    +0.147 C 
ATOM     21  S   UNL     1      -3.407   1.509   6.128  0.00  0.00    -0.017 S 
BRANCH  20  22
ATOM     22  N   UNL     1      -0.794   1.253   5.725  0.00  0.00    -0.339 N 
ATOM     23  H   UNL     1      -0.013   0.997   5.210  0.00  0.00    +0.144 HD
ATOM     24  H   UNL     1      -0.688   1.650   6.604  0.00  0.00    +0.144 HD
ENDBRANCH  20  22
ENDBRANCH  18  20
ENDBRANCH  17  18
ENDBRANCH  15  16
BRANCH   3  25
ATOM     25  C   UNL     1      -0.010   0.027  -2.398  0.00  0.00    +0.103 C 
ATOM     26  N   UNL     1      -0.022   0.594  -3.382  0.00  0.00    -0.191 NA
ENDBRANCH   3  25
TORSDOF 5
