REMARK  Name = ZINC41876460
REMARK  6 active torsions:
REMARK  status: ('A' for Active; 'I' for Inactive)
REMARK    1  A    between atoms: C_1  and  C_2
REMARK    2  A    between atoms: N_5  and  C_11
REMARK    3  A    between atoms: C_6  and  C_10
REMARK    4  A    between atoms: C_11  and  C_12
REMARK    5  A    between atoms: C_11  and  C_13
REMARK    6  A    between atoms: C_11  and  C_20
REMARK                            x       y       z     vdW  Elec       q    Type
REMARK                         _______ _______ _______ _____ _____    ______ ____
ROOT
ATOM      1  C   UNL     1       1.133  -2.615  -2.546  0.00  0.00    +0.148 C 
ATOM      2  C   UNL     1       2.634  -2.594  -2.839  0.00  0.00    +0.045 C 
ENDROOT
BRANCH   1   6
ATOM      3  C   UNL     1       0.980   1.987  -0.806  0.00  0.00    +0.039 C 
ATOM      4  C   UNL     1       0.692   0.516  -0.498  0.00  0.00    +0.129 C 
ATOM      5  C   UNL     1       1.055  -0.341  -1.714  0.00  0.00    +0.117 C 
ATOM      6  N   UNL     1       0.849  -1.760  -1.386  0.00  0.00    -0.277 NA
ATOM      7  C   UNL     1       1.668  -2.151  -0.229  0.00  0.00    +0.081 C 
ATOM      8  C   UNL     1       1.298  -1.276   0.971  0.00  0.00    +0.178 C 
ATOM      9  O   UNL     1       1.474   0.101   0.624  0.00  0.00    -0.374 OA
ATOM     10  C   UNL     1       1.405  -3.620   0.109  0.00  0.00    +0.026 C 
ENDBRANCH   1   6
BRANCH   1  11
ATOM     11  C   UNL     1       0.699  -4.027  -2.247  0.00  0.00    -0.003 A 
ATOM     12  C   UNL     1       1.579  -5.076  -2.439  0.00  0.00    +0.007 A 
ATOM     13  C   UNL     1       1.181  -6.371  -2.164  0.00  0.00    +0.000 A 
ATOM     14  C   UNL     1      -0.097  -6.618  -1.698  0.00  0.00    +0.001 A 
ATOM     15  C   UNL     1      -0.977  -5.570  -1.506  0.00  0.00    +0.015 A 
ATOM     16  C   UNL     1      -0.578  -4.273  -1.775  0.00  0.00    +0.023 A 
ATOM     17 BR   UNL     1      -1.779  -2.838  -1.506  0.00  0.00    -0.050 Br
ENDBRANCH   1  11
BRANCH   1  18
ATOM     18  C   UNL     1       0.380  -2.101  -3.745  0.00  0.00    +0.380 C 
ATOM     19  O   UNL     1      -0.566  -1.346  -3.594  0.00  0.00    -0.244 OA
ATOM     20  O   UNL     1       0.716  -2.439  -4.867  0.00  0.00    -0.244 OA
ENDBRANCH   1  18
TORSDOF 3
