REMARK  Name = ZINC03772524
REMARK  4 active torsions:
REMARK  status: ('A' for Active; 'I' for Inactive)
REMARK    1  A    between atoms: C_4  and  C_7
REMARK    2  A    between atoms: C_7  and  N_8
REMARK    3  A    between atoms: C_14  and  C_30
REMARK    4  A    between atoms: C_23  and  C_24
REMARK                            x       y       z     vdW  Elec       q    Type
REMARK                         _______ _______ _______ _____ _____    ______ ____
ROOT
ATOM      1  N   UNL     1       5.946   2.196  -0.141  0.00  0.00    -0.261 N 
ATOM      2  C   UNL     1       5.242   3.336  -0.244  0.00  0.00    +0.289 C 
ATOM      3  O   UNL     1       5.724   4.449  -0.295  0.00  0.00    -0.266 OA
ATOM      4  C   UNL     1       3.784   3.035  -0.288  0.00  0.00    +0.249 C 
ATOM      5  O   UNL     1       2.886   3.854  -0.380  0.00  0.00    -0.282 OA
ATOM      6  C   UNL     1       3.621   1.644  -0.202  0.00  0.00    +0.072 C 
ATOM      7  C   UNL     1       2.482   0.864  -0.162  0.00  0.00    +0.050 C 
ATOM      8  N   UNL     1       2.650  -0.489  -0.078  0.00  0.00    -0.312 N 
ATOM      9  C   UNL     1       3.285  -1.236  -1.065  0.00  0.00    +0.053 A 
ATOM     10  C   UNL     1       2.663  -2.430  -1.440  0.00  0.00    +0.025 A 
ATOM     11  C   UNL     1       3.199  -3.223  -2.431  0.00  0.00    +0.002 A 
ATOM     12  C   UNL     1       4.364  -2.835  -3.067  0.00  0.00    +0.002 A 
ATOM     13  C   UNL     1       4.992  -1.666  -2.696  0.00  0.00    +0.025 A 
ATOM     14  C   UNL     1       4.468  -0.859  -1.680  0.00  0.00    +0.051 A 
ATOM     15  N   UNL     1       5.234   0.260  -1.346  0.00  0.00    -0.314 N 
ATOM     16  C   UNL     1       5.020   1.055  -0.137  0.00  0.00    +0.160 C 
ATOM     17  H   UNL     1       2.311  -0.950   0.706  0.00  0.00    +0.152 HD
ATOM     18  H   UNL     1       5.946   0.524  -1.949  0.00  0.00    +0.149 HD
ENDROOT
BRANCH  16  19
ATOM     19  C   UNL     1       5.202   0.215   1.101  0.00  0.00    -0.001 A 
ATOM     20  C   UNL     1       4.593   0.588   2.285  0.00  0.00    +0.008 A 
ATOM     21  C   UNL     1       4.755  -0.185   3.419  0.00  0.00    +0.000 A 
ATOM     22  C   UNL     1       5.536  -1.326   3.373  0.00  0.00    +0.000 A 
ATOM     23  C   UNL     1       6.149  -1.695   2.190  0.00  0.00    +0.000 A 
ATOM     24  C   UNL     1       5.982  -0.925   1.055  0.00  0.00    +0.008 A 
ENDBRANCH  16  19
BRANCH   7  25
ATOM     25  C   UNL     1       1.137   1.468  -0.213  0.00  0.00    -0.003 A 
ATOM     26  C   UNL     1       0.182   0.979  -1.109  0.00  0.00    +0.010 A 
ATOM     27  C   UNL     1      -1.072   1.552  -1.155  0.00  0.00    +0.001 A 
ATOM     28  C   UNL     1      -1.388   2.601  -0.309  0.00  0.00    +0.000 A 
ATOM     29  C   UNL     1      -0.448   3.090   0.581  0.00  0.00    +0.001 A 
ATOM     30  C   UNL     1       0.812   2.530   0.634  0.00  0.00    +0.010 A 
ENDBRANCH   7  25
BRANCH   1  31
ATOM     31  C   UNL     1       7.405   2.105  -0.046  0.00  0.00    +0.146 C 
BRANCH  31  35
ATOM     32  C   UNL     1       9.070   1.802  -3.968  0.00  0.00    +0.000 A 
ATOM     33  C   UNL     1       8.879   3.044  -3.393  0.00  0.00    +0.000 A 
ATOM     34  C   UNL     1       8.339   3.142  -2.124  0.00  0.00    +0.005 A 
ATOM     35  C   UNL     1       7.992   1.998  -1.430  0.00  0.00    -0.030 A 
ATOM     36  C   UNL     1       8.188   0.756  -2.003  0.00  0.00    +0.005 A 
ATOM     37  C   UNL     1       8.722   0.658  -3.275  0.00  0.00    +0.000 A 
ENDBRANCH  31  35
ENDBRANCH   1  31
TORSDOF 4
