REMARK  Name = ZINC34789330
REMARK  11 active torsions:
REMARK  status: ('A' for Active; 'I' for Inactive)
REMARK    1  A    between atoms: C_1  and  C_2
REMARK    2  A    between atoms: C_2  and  C_3
REMARK    3  A    between atoms: C_3  and  C_32
REMARK    4  A    between atoms: C_13  and  N_31
REMARK    5  A    between atoms: C_15  and  S_17
REMARK    6  A    between atoms: S_17  and  C_18
REMARK    7  A    between atoms: C_18  and  C_19
REMARK    8  A    between atoms: N_21  and  C_22
REMARK    9  A    between atoms: C_25  and  O_28
REMARK   10  A    between atoms: O_28  and  C_29
REMARK   11  A    between atoms: C_29  and  C_30
REMARK                            x       y       z     vdW  Elec       q    Type
REMARK                         _______ _______ _______ _____ _____    ______ ____
ROOT
ATOM      1  C   UNL     1      -1.408  -0.643  -0.039  0.00  0.00    +0.071 C 
ATOM      2  C   UNL     1      -1.405  -2.173  -0.058  0.00  0.00    +0.071 C 
ATOM      3  C   UNL     1      -2.836  -2.659   0.175  0.00  0.00    -0.024 C 
ATOM      4  C   UNL     1      -3.737  -1.819   0.733  0.00  0.00    +0.017 C 
ATOM      5  C   UNL     1      -3.487  -0.391   1.120  0.00  0.00    +0.203 C 
ATOM      6  O   UNL     1      -2.070  -0.170   1.137  0.00  0.00    -0.368 OA
ATOM      7  S   UNL     1      -5.236  -2.742   0.955  0.00  0.00    -0.095 S 
ATOM      8  C   UNL     1      -4.657  -4.365   0.341  0.00  0.00    +0.203 C 
ATOM      9  C   UNL     1      -3.310  -3.961  -0.260  0.00  0.00    +0.027 C 
ATOM     10  C   UNL     1      -2.721  -4.810  -1.141  0.00  0.00    +0.099 C 
ATOM     11  N   UNL     1      -3.535  -5.934  -1.420  0.00  0.00    -0.177 NA
ATOM     12  C   UNL     1      -4.884  -5.658  -1.627  0.00  0.00    +0.176 C 
ATOM     13  N   UNL     1      -5.494  -4.859  -0.756  0.00  0.00    -0.242 NA
ATOM     14  C   UNL     1      -2.139  -0.123  -1.278  0.00  0.00    +0.042 C 
ENDROOT
BRANCH  10  15
ATOM     15  N   UNL     1      -1.460  -4.600  -1.706  0.00  0.00    -0.404 NA
ATOM     16  H   UNL     1      -0.780  -4.467  -0.972  0.00  0.00    +0.122 HD
ATOM     17  H   UNL     1      -1.202  -5.401  -2.262  0.00  0.00    +0.122 HD
ATOM     18  H   UNL     1      -1.486  -3.779  -2.292  0.00  0.00    +0.122 HD
ENDBRANCH  10  15
BRANCH   1  20
ATOM     19  C   UNL     1       0.035   1.398  -0.043  0.00  0.00    +0.007 C 
ATOM     20  C   UNL     1       0.035  -0.132  -0.050  0.00  0.00    +0.032 C 
ENDBRANCH   1  20
BRANCH  12  21
ATOM     21  S   UNL     1      -5.761  -6.359  -2.985  0.00  0.00    -0.080 S 
BRANCH  21  22
ATOM     22  C   UNL     1      -7.442  -5.702  -2.807  0.00  0.00    +0.173 C 
BRANCH  22  23
ATOM     23  C   UNL     1      -8.309  -6.231  -3.921  0.00  0.00    +0.227 C 
ATOM     24  O   UNL     1      -7.838  -6.978  -4.753  0.00  0.00    -0.275 OA
ATOM     25  N   UNL     1      -9.606  -5.875  -3.993  0.00  0.00    -0.285 N 
ATOM     26  H   UNL     1      -9.964  -5.218  -3.374  0.00  0.00    +0.155 HD
BRANCH  25  27
ATOM     27  C   UNL     1     -10.439  -6.452  -4.960  0.00  0.00    +0.034 A 
ATOM     28  C   UNL     1     -11.445  -5.699  -5.550  0.00  0.00    +0.027 A 
ATOM     29  C   UNL     1     -12.265  -6.268  -6.504  0.00  0.00    +0.047 A 
ATOM     30  C   UNL     1     -12.084  -7.593  -6.873  0.00  0.00    +0.121 A 
ATOM     31  C   UNL     1     -11.079  -8.347  -6.284  0.00  0.00    +0.047 A 
ATOM     32  C   UNL     1     -10.255  -7.777  -5.334  0.00  0.00    +0.027 A 
BRANCH  30  33
ATOM     33  O   UNL     1     -12.892  -8.153  -7.812  0.00  0.00    -0.492 OA
BRANCH  33  34
ATOM     34  C   UNL     1     -12.649  -9.522  -8.144  0.00  0.00    +0.225 C 
ATOM     35  C   UNL     1     -13.649  -9.974  -9.210  0.00  0.00    +0.048 C 
ENDBRANCH  33  34
ENDBRANCH  30  33
ENDBRANCH  25  27
ENDBRANCH  22  23
ENDBRANCH  21  22
ENDBRANCH  12  21
TORSDOF 8
