REMARK  Name = ZINC14247340
REMARK  13 active torsions:
REMARK  status: ('A' for Active; 'I' for Inactive)
REMARK    1  A    between atoms: C_1  and  N_2
REMARK    2  A    between atoms: N_2  and  C_3
REMARK    3  A    between atoms: N_2  and  S_4
REMARK    4  A    between atoms: S_4  and  C_7
REMARK    5  A    between atoms: C_10  and  O_35
REMARK    6  A    between atoms: C_11  and  N_13
REMARK    7  A    between atoms: C_14  and  C_16
REMARK    8  A    between atoms: C_16  and  C_18
REMARK    9  A    between atoms: C_16  and  N_22
REMARK   10  A    between atoms: C_18  and  C_19
REMARK   11  A    between atoms: C_19  and  S_20
REMARK   12  A    between atoms: S_20  and  C_21
REMARK   13  A    between atoms: O_35  and  C_36
REMARK                            x       y       z     vdW  Elec       q    Type
REMARK                         _______ _______ _______ _____ _____    ______ ____
ROOT
ATOM      1  N   UNL     1      -1.391  -3.594  -4.337  0.00  0.00    -0.281 N 
ATOM      2  C   UNL     1      -0.539  -4.450  -3.739  0.00  0.00    +0.238 C 
ATOM      3  O   UNL     1      -0.217  -4.276  -2.583  0.00  0.00    -0.273 OA
ATOM      4  H   UNL     1      -1.711  -3.776  -5.234  0.00  0.00    +0.155 HD
ENDROOT
BRANCH   1   9
ATOM      5  C   UNL     1      -1.449  -0.760  -1.991  0.00  0.00    +0.107 A 
ATOM      6  C   UNL     1      -2.648  -0.160  -2.330  0.00  0.00    +0.032 A 
ATOM      7  C   UNL     1      -3.434  -0.695  -3.334  0.00  0.00    +0.049 A 
ATOM      8  C   UNL     1      -3.021  -1.835  -4.004  0.00  0.00    +0.141 A 
ATOM      9  C   UNL     1      -1.813  -2.440  -3.663  0.00  0.00    +0.077 A 
ATOM     10  C   UNL     1      -1.027  -1.895  -2.659  0.00  0.00    +0.055 A 
BRANCH   5  11
ATOM     11  S   UNL     1      -0.453  -0.073  -0.711  0.00  0.00    +0.060 S 
ATOM     12  O   UNL     1       0.360  -1.129  -0.218  0.00  0.00    -0.153 OA
ATOM     13  O   UNL     1      -1.326   0.671   0.128  0.00  0.00    -0.153 OA
BRANCH  11  15
ATOM     14  C   UNL     1       0.162   2.421  -1.556  0.00  0.00    +0.131 C 
ATOM     15  N   UNL     1       0.569   1.021  -1.419  0.00  0.00    -0.183 NA
ATOM     16  C   UNL     1       1.880   0.588  -1.908  0.00  0.00    +0.131 C 
ENDBRANCH  11  15
ENDBRANCH   5  11
BRANCH   8  17
ATOM     17  O   UNL     1      -3.793  -2.363  -4.990  0.00  0.00    -0.493 OA
ATOM     18  C   UNL     1      -5.019  -1.690  -5.285  0.00  0.00    +0.277 C 
ENDBRANCH   8  17
ENDBRANCH   1   9
BRANCH   2  19
ATOM     19  C   UNL     1       0.013  -5.623  -4.507  0.00  0.00    +0.171 C 
BRANCH  19  20
ATOM     20  N   UNL     1       0.907  -6.396  -3.641  0.00  0.00    -0.230 N 
ATOM     21  C   UNL     1       2.023  -5.874  -3.064  0.00  0.00    +0.226 C 
ATOM     22  O   UNL     1       2.325  -4.702  -2.990  0.00  0.00    -0.275 OA
ATOM     23  C   UNL     1       2.801  -7.039  -2.541  0.00  0.00    +0.087 C 
ATOM     24  C   UNL     1       3.615  -6.881  -1.275  0.00  0.00    +0.013 C 
ATOM     25  C   UNL     1       4.248  -8.259  -0.997  0.00  0.00    +0.001 C 
ATOM     26  C   UNL     1       3.193  -9.353  -0.865  0.00  0.00    +0.001 C 
ATOM     27  C   UNL     1       2.240  -9.386  -2.074  0.00  0.00    +0.013 C 
ATOM     28  C   UNL     1       1.635  -8.016  -2.207  0.00  0.00    +0.087 C 
ATOM     29  C   UNL     1       0.700  -7.705  -3.331  0.00  0.00    +0.226 C 
ATOM     30  O   UNL     1      -0.082  -8.465  -3.860  0.00  0.00    -0.275 OA
ENDBRANCH  19  20
BRANCH  19  31
ATOM     31  C   UNL     1       0.791  -5.117  -5.722  0.00  0.00    +0.043 C 
BRANCH  31  32
ATOM     32  C   UNL     1       1.246  -6.307  -6.569  0.00  0.00    +0.071 C 
BRANCH  32  33
ATOM     33  S   UNL     1       2.169  -5.707  -8.011  0.00  0.00    -0.164 S 
ATOM     34  C   UNL     1       2.630  -7.220  -8.899  0.00  0.00    +0.084 C 
ENDBRANCH  32  33
ENDBRANCH  31  32
ENDBRANCH  19  31
ENDBRANCH   2  19
TORSDOF 9
