REMARK  Name = ZINC28658784
REMARK  9 active torsions:
REMARK  status: ('A' for Active; 'I' for Inactive)
REMARK    1  A    between atoms: C_1  and  C_2
REMARK    2  A    between atoms: C_2  and  C_3
REMARK    3  A    between atoms: C_8  and  N_9
REMARK    4  A    between atoms: N_9  and  C_10
REMARK    5  A    between atoms: C_10  and  C_11
REMARK    6  A    between atoms: N_13  and  N_14
REMARK    7  A    between atoms: C_17  and  C_21
REMARK    8  A    between atoms: C_17  and  C_22
REMARK    9  A    between atoms: C_22  and  C_23
REMARK                            x       y       z     vdW  Elec       q    Type
REMARK                         _______ _______ _______ _____ _____    ______ ____
ROOT
ATOM      1  C   UNL     1       0.145   5.686   0.030  0.00  0.00    +0.247 C 
ATOM      2  O   UNL     1       1.284   6.103   0.021  0.00  0.00    -0.273 OA
ATOM      3  N   UNL     1      -0.889   6.550   0.044  0.00  0.00    -0.222 N 
ATOM      4  H   UNL     1      -1.922   6.172   0.051  0.00  0.00    +0.174 HD
ENDROOT
BRANCH   3   5
ATOM      5  N   UNL     1      -0.648   7.930   0.049  0.00  0.00    -0.137 N 
ATOM      6  C   UNL     1      -0.797   8.721   1.129  0.00  0.00    +0.263 C 
ATOM      7  O   UNL     1      -1.151   8.385   2.239  0.00  0.00    -0.271 OA
ATOM      8  C   UNL     1      -0.428  10.117   0.670  0.00  0.00    +0.111 C 
ATOM      9  N   UNL     1      -0.088   9.935  -0.752  0.00  0.00    -0.284 N 
ATOM     10  C   UNL     1      -0.247   8.627  -1.021  0.00  0.00    +0.326 C 
ATOM     11  O   UNL     1      -0.048   8.133  -2.114  0.00  0.00    -0.251 OA
ATOM     12  C   UNL     1      -1.621  11.063   0.822  0.00  0.00    +0.041 C 
ATOM     13  H   UNL     1       0.221  10.799  -1.359  0.00  0.00    +0.151 HD
BRANCH   8  14
ATOM     14  C   UNL     1       0.779  10.647   1.448  0.00  0.00    +0.032 C 
ATOM     15  C   UNL     1       1.188  12.011   0.888  0.00  0.00    +0.006 C 
ENDBRANCH   8  14
ENDBRANCH   3   5
BRANCH   1  16
ATOM     16  C   UNL     1      -0.114   4.201   0.025  0.00  0.00    +0.199 C 
BRANCH  16  17
ATOM     17  N   UNL     1       1.163   3.483   0.009  0.00  0.00    -0.335 N 
ATOM     18  H   UNL     1       2.109   4.043   0.003  0.00  0.00    +0.147 HD
BRANCH  17  24
ATOM     19  C   UNL     1       2.387   1.403  -0.013  0.00  0.00    -0.027 A 
ATOM     20  C   UNL     1       2.399   0.022  -0.021  0.00  0.00    +0.005 A 
ATOM     21  C   UNL     1       1.208  -0.681  -0.014  0.00  0.00    +0.000 A 
ATOM     22  C   UNL     1       0.002  -0.004   0.002  0.00  0.00    +0.002 A 
ATOM     23  C   UNL     1      -0.017   1.377   0.010  0.00  0.00    +0.023 A 
ATOM     24  C   UNL     1       1.178   2.086   0.002  0.00  0.00    +0.031 A 
BRANCH  19  26
ATOM     25  C   UNL     1       4.074   2.528   1.415  0.00  0.00    +0.009 C 
ATOM     26  C   UNL     1       3.686   2.168  -0.021  0.00  0.00    +0.033 C 
ENDBRANCH  19  26
ENDBRANCH  17  24
ENDBRANCH  16  17
ENDBRANCH   1  16
TORSDOF 6
