REMARK  Name = ZINC51096556
REMARK  8 active torsions:
REMARK  status: ('A' for Active; 'I' for Inactive)
REMARK    1  A    between atoms: C_1  and  C_2
REMARK    2  A    between atoms: C_8  and  N_10
REMARK    3  A    between atoms: C_11  and  C_13
REMARK    4  A    between atoms: C_14  and  N_22
REMARK    5  A    between atoms: C_17  and  C_19
REMARK    6  A    between atoms: C_19  and  C_20
REMARK    7  A    between atoms: C_19  and  C_21
REMARK    8  A    between atoms: N_22  and  N_23
REMARK                            x       y       z     vdW  Elec       q    Type
REMARK                         _______ _______ _______ _____ _____    ______ ____
ROOT
ATOM      1  C   UNL     1       0.043   0.564   4.821  0.00  0.00    +0.151 A 
ATOM      2  C   UNL     1       0.714   0.613   6.053  0.00  0.00    +0.090 A 
ATOM      3  C   UNL     1       0.011   1.080   7.167  0.00  0.00    +0.139 A 
ATOM      4  N   UNL     1      -1.246   1.454   7.020  0.00  0.00    -0.238 NA
ATOM      5  C   UNL     1      -1.844   1.393   5.845  0.00  0.00    +0.132 A 
ATOM      6  N   UNL     1      -1.226   0.967   4.766  0.00  0.00    -0.225 NA
ENDROOT
BRANCH   1   8
ATOM      7  N   UNL     1       0.048  -0.066   2.454  0.00  0.00    -0.307 N 
ATOM      8  C   UNL     1       0.734   0.080   3.605  0.00  0.00    +0.265 C 
ATOM      9  O   UNL     1       1.919  -0.186   3.644  0.00  0.00    -0.268 OA
ATOM     10  H   UNL     1      -0.898   0.146   2.422  0.00  0.00    +0.149 HD
BRANCH   7  17
ATOM     11  C   UNL     1      -0.046   1.475   0.004  0.00  0.00    +0.009 C 
ATOM     12  C   UNL     1      -0.017  -0.054   0.009  0.00  0.00    +0.006 C 
ATOM     13  C   UNL     1       0.697  -0.555  -1.248  0.00  0.00    +0.005 C 
ATOM     14  C   UNL     1       0.727  -2.085  -1.243  0.00  0.00    +0.000 C 
ATOM     15  C   UNL     1       1.475  -2.576  -0.002  0.00  0.00    +0.002 C 
ATOM     16  C   UNL     1       0.761  -2.075   1.255  0.00  0.00    +0.022 C 
ATOM     17  C   UNL     1       0.732  -0.546   1.250  0.00  0.00    +0.076 C 
ENDBRANCH   7  17
ENDBRANCH   1   8
BRANCH   5  18
ATOM     18  C   UNL     1      -3.281   1.832   5.735  0.00  0.00    +0.051 C 
ATOM     19  C   UNL     1      -4.150   0.970   6.654  0.00  0.00    +0.015 C 
ATOM     20  C   UNL     1      -3.400   3.299   6.151  0.00  0.00    +0.015 C 
ENDBRANCH   5  18
BRANCH   2  21
ATOM     21  N   UNL     1       2.039   0.210   6.161  0.00  0.00    -0.280 N 
ATOM     22  H   UNL     1       2.537  -0.039   5.367  0.00  0.00    +0.166 HD
BRANCH  21  23
ATOM     23  N   UNL     1       2.640   0.162   7.387  0.00  0.00    -0.256 NA
ATOM     24  H   UNL     1       2.121  -0.425   8.022  0.00  0.00    +0.140 HD
ATOM     25  H   UNL     1       3.597  -0.148   7.308  0.00  0.00    +0.140 HD
ENDBRANCH  21  23
ENDBRANCH   2  21
TORSDOF 5
