REMARK  Name = ZINC05200885
REMARK  5 active torsions:
REMARK  status: ('A' for Active; 'I' for Inactive)
REMARK    1  A    between atoms: C_1  and  C_2
REMARK    2  A    between atoms: C_5  and  C_8
REMARK    3  A    between atoms: C_11  and  C_28
REMARK    4  A    between atoms: C_16  and  C_18
REMARK    5  A    between atoms: C_23  and  C_26
REMARK                            x       y       z     vdW  Elec       q    Type
REMARK                         _______ _______ _______ _____ _____    ______ ____
ROOT
ATOM      1  C   UNL     1      -0.017  -4.295  -0.015  0.00  0.00    +0.104 C 
ATOM      2  C   UNL     1      -1.390  -4.659   0.559  0.00  0.00    +0.063 C 
ATOM      3  C   UNL     1      -1.554  -6.183   0.593  0.00  0.00    +0.215 C 
ATOM      4  N   UNL     1      -0.374  -6.773   1.232  0.00  0.00    -0.238 N 
ATOM      5  C   UNL     1       0.821  -6.125   1.361  0.00  0.00    +0.119 A 
ATOM      6  C   UNL     1       1.679  -6.949   1.993  0.00  0.00    +0.078 A 
ATOM      7  C   UNL     1       0.993  -8.154   2.264  0.00  0.00    +0.149 A 
ATOM      8  N   UNL     1      -0.240  -8.038   1.802  0.00  0.00    -0.164 NA
ATOM      9  N   UNL     1       1.028  -4.827   0.881  0.00  0.00    -0.322 N 
ATOM     10  H   UNL     1       1.809  -4.306   1.126  0.00  0.00    +0.148 HD
ENDROOT
BRANCH   7  11
ATOM     11  C   UNL     1       1.555  -9.338   2.945  0.00  0.00    +0.267 C 
ATOM     12  O   UNL     1       2.662  -9.284   3.445  0.00  0.00    -0.268 OA
ATOM     13  N   UNL     1       0.841 -10.479   3.013  0.00  0.00    -0.296 N 
ATOM     14  C   UNL     1      -0.424 -10.615   2.278  0.00  0.00    +0.108 C 
ATOM     15  C   UNL     1      -0.359 -11.879   1.414  0.00  0.00    +0.022 C 
ATOM     16  C   UNL     1      -0.014 -13.079   2.298  0.00  0.00    -0.011 C 
ATOM     17  C   UNL     1       1.358 -12.863   2.942  0.00  0.00    +0.022 C 
ATOM     18  C   UNL     1       1.316 -11.613   3.818  0.00  0.00    +0.108 C 
ATOM     19  C   UNL     1       0.018 -14.348   1.445  0.00  0.00    +0.007 C 
ENDBRANCH   7  11
BRANCH   1  24
ATOM     20  C   UNL     1       0.472   1.452  -0.373  0.00  0.00    +0.044 C 
ATOM     21  C   UNL     1       0.344  -0.047  -0.280  0.00  0.00    -0.050 A 
ATOM     22  C   UNL     1       0.038  -0.786  -1.407  0.00  0.00    +0.004 A 
ATOM     23  C   UNL     1      -0.079  -2.161  -1.322  0.00  0.00    +0.006 A 
ATOM     24  C   UNL     1       0.112  -2.796  -0.109  0.00  0.00    -0.027 A 
ATOM     25  C   UNL     1       0.419  -2.057   1.018  0.00  0.00    +0.006 A 
ATOM     26  C   UNL     1       0.540  -0.683   0.931  0.00  0.00    +0.004 A 
ENDBRANCH   1  24
BRANCH   3  27
ATOM     27  C   UNL     1      -2.808  -6.545   1.393  0.00  0.00    +0.412 C 
ATOM     28  F   UNL     1      -3.930  -5.970   0.787  0.00  0.00    -0.168 F 
ATOM     29  F   UNL     1      -2.955  -7.936   1.422  0.00  0.00    -0.168 F 
ATOM     30  F   UNL     1      -2.683  -6.062   2.700  0.00  0.00    -0.168 F 
ENDBRANCH   3  27
TORSDOF 3
