REMARK  Name = ZINC36505027
REMARK  14 active torsions:
REMARK  status: ('A' for Active; 'I' for Inactive)
REMARK    1  A    between atoms: C_1  and  C_2
REMARK    2  A    between atoms: C_2  and  C_3
REMARK    3  A    between atoms: C_3  and  C_4
REMARK    4  A    between atoms: C_4  and  N_5
REMARK    5  A    between atoms: C_6  and  C_8
REMARK    6  A    between atoms: C_8  and  C_10
REMARK    7  A    between atoms: C_8  and  N_19
REMARK    8  A    between atoms: C_11  and  O_18
REMARK    9  A    between atoms: C_13  and  O_17
REMARK   10  A    between atoms: C_15  and  O_16
REMARK   11  A    between atoms: N_19  and  C_20
REMARK   12  A    between atoms: C_20  and  C_21
REMARK   13  A    between atoms: C_26  and  C_28
REMARK   14  A    between atoms: C_28  and  C_30
REMARK                            x       y       z     vdW  Elec       q    Type
REMARK                         _______ _______ _______ _____ _____    ______ ____
ROOT
ATOM      1  C   UNL     1       1.532  -4.355  -4.977  0.00  0.00    +0.200 C 
ENDROOT
BRANCH   1   2
ATOM      2  C   UNL     1       2.086  -3.367  -3.983  0.00  0.00    +0.065 A 
ATOM      3  C   UNL     1       2.132  -3.691  -2.636  0.00  0.00    +0.129 A 
ATOM      4  C   UNL     1       2.642  -2.781  -1.722  0.00  0.00    +0.091 A 
ATOM      5  C   UNL     1       3.106  -1.548  -2.155  0.00  0.00    +0.124 A 
ATOM      6  C   UNL     1       3.061  -1.225  -3.503  0.00  0.00    +0.091 A 
ATOM      7  C   UNL     1       2.555  -2.136  -4.418  0.00  0.00    +0.129 A 
BRANCH   7   8
ATOM      8  O   UNL     1       2.514  -1.821  -5.739  0.00  0.00    -0.506 OA
ATOM      9  H   UNL     1       1.697  -1.385  -6.015  0.00  0.00    +0.292 HD
ENDBRANCH   7   8
BRANCH   5  10
ATOM     10  O   UNL     1       3.605  -0.657  -1.259  0.00  0.00    -0.507 OA
ATOM     11  H   UNL     1       4.556  -0.741  -1.108  0.00  0.00    +0.292 HD
ENDBRANCH   5  10
BRANCH   3  12
ATOM     12  O   UNL     1       1.677  -4.899  -2.211  0.00  0.00    -0.506 OA
ATOM     13  H   UNL     1       2.335  -5.606  -2.260  0.00  0.00    +0.292 HD
ENDBRANCH   3  12
ENDBRANCH   1   2
BRANCH   1  15
ATOM     14  N   UNL     1      -0.223  -2.741  -5.637  0.00  0.00    -0.313 N 
ATOM     15  C   UNL     1       0.101  -4.003  -5.291  0.00  0.00    +0.238 C 
ATOM     16  O   UNL     1      -0.760  -4.855  -5.234  0.00  0.00    -0.273 OA
ATOM     17  H   UNL     1       0.466  -2.059  -5.683  0.00  0.00    +0.149 HD
BRANCH  14  18
ATOM     18  C   UNL     1      -1.614  -2.399  -5.942  0.00  0.00    +0.104 C 
BRANCH  18  19
ATOM     19  C   UNL     1      -1.707  -0.914  -6.301  0.00  0.00    +0.018 C 
BRANCH  19  21
ATOM     20  C   UNL     1      -3.253   0.928  -6.980  0.00  0.00    +0.004 C 
ATOM     21  C   UNL     1      -3.160  -0.557  -6.620  0.00  0.00    -0.002 C 
ENDBRANCH  19  21
ENDBRANCH  18  19
ENDBRANCH  14  18
ENDBRANCH   1  15
BRANCH   1  22
ATOM     22  N   UNL     1       1.589  -5.704  -4.408  0.00  0.00    -0.275 N 
ATOM     23  C   UNL     1       2.602  -6.531  -4.736  0.00  0.00    +0.243 C 
ATOM     24  O   UNL     1       2.686  -7.626  -4.213  0.00  0.00    -0.270 OA
BRANCH  23  25
ATOM     25  C   UNL     1       3.605  -6.109  -5.725  0.00  0.00    +0.004 C 
ATOM     26  C   UNL     1       4.303  -7.022  -6.395  0.00  0.00    +0.017 C 
ATOM     27  C   UNL     1       3.842  -4.643  -5.979  0.00  0.00    +0.048 C 
ENDBRANCH  23  25
BRANCH  22  28
ATOM     28  C   UNL     1       0.546  -6.154  -3.483  0.00  0.00    +0.183 C 
BRANCH  28  29
ATOM     29  C   UNL     1      -0.323  -7.179  -4.166  0.00  0.00    +0.122 A 
ATOM     30  C   UNL     1      -0.121  -8.509  -4.162  0.00  0.00    +0.046 A 
ATOM     31  C   UNL     1      -1.167  -9.084  -4.919  0.00  0.00    +0.041 A 
ATOM     32  C   UNL     1      -1.946  -8.071  -5.341  0.00  0.00    +0.195 A 
ATOM     33  O   UNL     1      -1.433  -6.920  -4.877  0.00  0.00    -0.466 OA
ENDBRANCH  28  29
ENDBRANCH  22  28
ENDBRANCH   1  22
TORSDOF 12
