REMARK  Name = ZINC38733008
REMARK  7 active torsions:
REMARK  status: ('A' for Active; 'I' for Inactive)
REMARK    1  A    between atoms: C_13  and  C_15
REMARK    2  A    between atoms: C_21  and  C_23
REMARK    3  A    between atoms: N_25  and  C_26
REMARK    4  A    between atoms: C_26  and  C_27
REMARK    5  A    between atoms: C_27  and  C_28
REMARK    6  A    between atoms: C_31  and  S_34
REMARK    7  A    between atoms: S_34  and  N_37
REMARK                            x       y       z     vdW  Elec       q    Type
REMARK                         _______ _______ _______ _____ _____    ______ ____
ROOT
ATOM      1  C   UNL     1       0.176  -6.648   1.147  0.00  0.00    +0.091 C 
ATOM      2  C   UNL     1      -0.684  -6.224   2.340  0.00  0.00    +0.040 C 
ATOM      3  C   UNL     1      -1.836  -7.171   2.509  0.00  0.00    -0.030 C 
ATOM      4  C   UNL     1      -1.893  -8.348   1.972  0.00  0.00    -0.030 C 
ATOM      5  C   UNL     1      -0.818  -8.926   1.099  0.00  0.00    +0.040 C 
ATOM      6  C   UNL     1       0.485  -8.145   1.273  0.00  0.00    +0.091 C 
ENDROOT
BRANCH   1  19
ATOM      7  C   UNL     1       2.581   1.062  -1.341  0.00  0.00    +0.005 A 
ATOM      8  C   UNL     1       1.355   1.653  -1.618  0.00  0.00    +0.018 A 
ATOM      9  C   UNL     1       0.213   0.879  -1.606  0.00  0.00    +0.084 A 
ATOM     10  N   UNL     1       0.273  -0.412  -1.336  0.00  0.00    -0.350 N 
ATOM     11  C   UNL     1       1.422  -1.012  -1.068  0.00  0.00    +0.099 A 
ATOM     12  C   UNL     1       2.613  -0.293  -1.063  0.00  0.00    +0.042 A 
ATOM     13  N   UNL     1       1.439  -2.374  -0.789  0.00  0.00    -0.314 N 
ATOM     14  C   UNL     1       2.713  -3.087  -0.617  0.00  0.00    +0.125 C 
ATOM     15  C   UNL     1       2.701  -3.790   0.745  0.00  0.00    +0.126 C 
ATOM     16  N   UNL     1       1.446  -4.543   0.875  0.00  0.00    -0.298 N 
ATOM     17  C   UNL     1       0.172  -3.830   0.703  0.00  0.00    +0.126 C 
ATOM     18  C   UNL     1       0.183  -3.126  -0.654  0.00  0.00    +0.125 C 
ATOM     19  C   UNL     1       1.462  -5.863   1.145  0.00  0.00    +0.220 C 
ATOM     20  O   UNL     1       2.512  -6.420   1.387  0.00  0.00    -0.275 OA
ATOM     21  H   UNL     1      -0.545  -0.933  -1.335  0.00  0.00    +0.166 HD
ENDBRANCH   1  19
BRANCH   6  22
ATOM     22  C   UNL     1       1.470  -8.550   0.207  0.00  0.00    +0.217 C 
ATOM     23  O   UNL     1       1.886  -7.726  -0.580  0.00  0.00    -0.275 OA
ATOM     24  N   UNL     1       1.888  -9.829   0.127  0.00  0.00    -0.315 N 
ATOM     25  H   UNL     1       1.555 -10.489   0.755  0.00  0.00    +0.149 HD
BRANCH  24  26
ATOM     26  C   UNL     1       2.845 -10.223  -0.910  0.00  0.00    +0.109 C 
BRANCH  26  27
ATOM     27  C   UNL     1       3.151 -11.717  -0.781  0.00  0.00    +0.054 C 
BRANCH  27  28
ATOM     28  C   UNL     1       4.136 -12.122  -1.847  0.00  0.00    -0.046 A 
ATOM     29  C   UNL     1       3.681 -12.553  -3.079  0.00  0.00    +0.005 A 
ATOM     30  C   UNL     1       4.584 -12.925  -4.058  0.00  0.00    +0.029 A 
ATOM     31  C   UNL     1       5.942 -12.866  -3.804  0.00  0.00    +0.105 A 
ATOM     32  C   UNL     1       6.396 -12.434  -2.571  0.00  0.00    +0.029 A 
ATOM     33  C   UNL     1       5.493 -12.058  -1.595  0.00  0.00    +0.005 A 
BRANCH  31  34
ATOM     34  S   UNL     1       7.093 -13.341  -5.050  0.00  0.00    +0.056 S 
ATOM     35  O   UNL     1       8.288 -13.713  -4.378  0.00  0.00    -0.153 OA
ATOM     36  O   UNL     1       6.403 -14.224  -5.924  0.00  0.00    -0.153 OA
BRANCH  34  37
ATOM     37  N   UNL     1       7.448 -11.985  -5.931  0.00  0.00    -0.204 NA
ATOM     38  H   UNL     1       7.034 -11.137  -5.705  0.00  0.00    +0.144 HD
ATOM     39  H   UNL     1       8.071 -12.037  -6.673  0.00  0.00    +0.144 HD
ENDBRANCH  34  37
ENDBRANCH  31  34
ENDBRANCH  27  28
ENDBRANCH  26  27
ENDBRANCH  24  26
ENDBRANCH   6  22
TORSDOF 7
