REMARK  Name = ZINC35620742
REMARK  13 active torsions:
REMARK  status: ('A' for Active; 'I' for Inactive)
REMARK    1  A    between atoms: C_1  and  C_2
REMARK    2  A    between atoms: C_2  and  N_3
REMARK    3  A    between atoms: N_6  and  C_7
REMARK    4  A    between atoms: N_6  and  C_15
REMARK    5  A    between atoms: C_7  and  C_8
REMARK    6  A    between atoms: C_15  and  C_16
REMARK    7  A    between atoms: C_18  and  N_25
REMARK    8  A    between atoms: C_21  and  N_22
REMARK    9  A    between atoms: N_22  and  C_23
REMARK   10  A    between atoms: N_22  and  C_24
REMARK   11  A    between atoms: N_28  and  C_29
REMARK   12  A    between atoms: C_29  and  C_30
REMARK   13  A    between atoms: C_29  and  C_31
REMARK                            x       y       z     vdW  Elec       q    Type
REMARK                         _______ _______ _______ _____ _____    ______ ____
ROOT
ATOM      1  C   UNL     1      -4.102  -1.234  -1.488  0.00  0.00    -0.007 A 
ATOM      2  C   UNL     1      -3.498  -0.123  -2.042  0.00  0.00    +0.030 A 
ATOM      3  C   UNL     1      -3.655   0.152  -3.393  0.00  0.00    +0.035 A 
ATOM      4  C   UNL     1      -4.420  -0.691  -4.189  0.00  0.00    +0.025 A 
ATOM      5  C   UNL     1      -5.024  -1.802  -3.636  0.00  0.00    +0.025 A 
ATOM      6  C   UNL     1      -4.862  -2.080  -2.284  0.00  0.00    +0.034 A 
ENDROOT
BRANCH   3   7
ATOM      7  N   UNL     1      -3.042   1.281  -3.955  0.00  0.00    -0.269 N 
ATOM      8  C   UNL     1      -2.566   1.232  -5.215  0.00  0.00    +0.304 C 
ATOM      9  O   UNL     1      -2.736   0.236  -5.891  0.00  0.00    -0.253 OA
ATOM     10  N   UNL     1      -1.901   2.287  -5.725  0.00  0.00    -0.297 N 
ATOM     11  H   UNL     1      -2.961   2.097  -3.437  0.00  0.00    +0.156 HD
ATOM     12  H   UNL     1      -1.765   3.082  -5.186  0.00  0.00    +0.151 HD
BRANCH  10  13
ATOM     13  C   UNL     1      -1.383   2.234  -7.095  0.00  0.00    +0.068 C 
ATOM     14  C   UNL     1      -2.486   2.643  -8.073  0.00  0.00    +0.027 C 
ATOM     15  C   UNL     1      -0.200   3.195  -7.230  0.00  0.00    +0.027 C 
ENDBRANCH  10  13
ENDBRANCH   3   7
BRANCH   6  16
ATOM     16  N   UNL     1      -5.470  -3.210  -1.725  0.00  0.00    -0.336 N 
ATOM     17  C   UNL     1      -4.715  -4.458  -1.594  0.00  0.00    +0.129 C 
ATOM     18  C   UNL     1      -6.861  -3.144  -1.270  0.00  0.00    +0.129 C 
ENDBRANCH   6  16
BRANCH   1  19
ATOM     19  C   UNL     1      -3.932  -1.532  -0.020  0.00  0.00    +0.146 C 
BRANCH  19  23
ATOM     20  N   UNL     1      -5.199   0.576   1.224  0.00  0.00    -0.299 N 
ATOM     21  C   UNL     1      -3.851   0.568   1.212  0.00  0.00    +0.303 C 
ATOM     22  O   UNL     1      -3.234   1.472   1.741  0.00  0.00    -0.253 OA
ATOM     23  N   UNL     1      -3.188  -0.442   0.616  0.00  0.00    -0.277 N 
ATOM     24  H   UNL     1      -5.691  -0.146   0.802  0.00  0.00    +0.150 HD
BRANCH  20  26
ATOM     25  C   UNL     1      -7.426   1.441   1.743  0.00  0.00    +0.024 C 
ATOM     26  C   UNL     1      -5.920   1.674   1.872  0.00  0.00    +0.102 C 
ENDBRANCH  20  26
BRANCH  23  27
ATOM     27  C   UNL     1      -1.723  -0.451   0.604  0.00  0.00    +0.144 C 
BRANCH  27  28
ATOM     28  C   UNL     1      -1.214  -1.069   1.880  0.00  0.00    -0.030 A 
ATOM     29  C   UNL     1      -0.975  -0.274   2.986  0.00  0.00    +0.008 A 
ATOM     30  C   UNL     1      -0.509  -0.840   4.157  0.00  0.00    +0.038 A 
ATOM     31  C   UNL     1      -0.280  -2.204   4.223  0.00  0.00    +0.123 A 
ATOM     32  C   UNL     1      -0.519  -2.999   3.115  0.00  0.00    +0.038 A 
ATOM     33  C   UNL     1      -0.991  -2.432   1.947  0.00  0.00    +0.008 A 
ATOM     34  F   UNL     1       0.177  -2.758   5.367  0.00  0.00    -0.205 F 
ENDBRANCH  27  28
ENDBRANCH  23  27
ENDBRANCH  19  23
ENDBRANCH   1  19
TORSDOF 8
