REMARK  Name = ZINC20739701
REMARK  3 active torsions:
REMARK  status: ('A' for Active; 'I' for Inactive)
REMARK    1  A    between atoms: C_1  and  C_2
REMARK    2  A    between atoms: C_2  and  C_3
REMARK    3  A    between atoms: C_2  and  N_4
REMARK                            x       y       z     vdW  Elec       q    Type
REMARK                         _______ _______ _______ _____ _____    ______ ____
ROOT
ATOM      1  N   UNL     1      -0.686   1.560   1.240  0.00  0.00    -0.278 N 
ATOM      2  C   UNL     1      -0.716   2.878   1.514  0.00  0.00    +0.264 A 
ATOM      3  O   UNL     1      -0.191   3.678   0.758  0.00  0.00    -0.267 OA
ATOM      4  C   UNL     1      -1.377   3.327   2.701  0.00  0.00    +0.076 A 
ATOM      5  C   UNL     1      -1.534   4.698   3.189  0.00  0.00    -0.023 A 
ATOM      6  C   UNL     1      -2.199   4.863   4.350  0.00  0.00    -0.004 A 
ATOM      7  S   UNL     1      -2.651   3.226   4.857  0.00  0.00    -0.073 S 
ATOM      8  C   UNL     1      -1.942   2.322   3.503  0.00  0.00    +0.117 A 
ATOM      9  N   UNL     1      -1.874   1.036   3.178  0.00  0.00    -0.208 NA
ATOM     10  C   UNL     1      -1.264   0.651   2.076  0.00  0.00    +0.202 A 
ATOM     11  N   UNL     1      -1.208  -0.685   1.766  0.00  0.00    -0.298 N 
ATOM     12  C   UNL     1      -2.537  -1.198   1.407  0.00  0.00    +0.127 C 
ATOM     13  C   UNL     1      -2.405  -2.636   0.895  0.00  0.00    +0.128 C 
ATOM     14  N   UNL     1      -1.684  -3.427   1.904  0.00  0.00    -0.283 N 
ATOM     15  C   UNL     1      -0.407  -2.906   2.414  0.00  0.00    +0.128 C 
ATOM     16  C   UNL     1      -0.618  -1.458   2.867  0.00  0.00    +0.127 C 
ATOM     17  C   UNL     1      -2.181  -4.598   2.349  0.00  0.00    +0.300 C 
ATOM     18  O   UNL     1      -1.629  -5.186   3.259  0.00  0.00    -0.253 OA
ATOM     19  N   UNL     1      -3.291  -5.117   1.787  0.00  0.00    -0.313 N 
ATOM     20  C   UNL     1      -2.490   6.153   5.054  0.00  0.00    +0.043 C 
ATOM     21  C   UNL     1      -1.599   7.247   4.450  0.00  0.00    +0.005 C 
ATOM     22  C   UNL     1      -1.685   7.164   2.923  0.00  0.00    +0.005 C 
ATOM     23  C   UNL     1      -0.977   5.901   2.431  0.00  0.00    +0.037 C 
ATOM     24  H   UNL     1      -3.696  -6.072   2.150  0.00  0.00    +0.146 HD
ATOM     25  H   UNL     1      -3.790  -4.585   0.964  0.00  0.00    +0.146 HD
ENDROOT
BRANCH   1  27
ATOM     26  C   UNL     1       1.439   1.569   0.030  0.00  0.00    +0.031 C 
ATOM     27  C   UNL     1      -0.016   1.094   0.024  0.00  0.00    +0.087 C 
ATOM     28  C   UNL     1      -0.733   1.661  -1.203  0.00  0.00    +0.031 C 
ENDBRANCH   1  27
TORSDOF 1
