REMARK  Name = ZINC17724773
REMARK  7 active torsions:
REMARK  status: ('A' for Active; 'I' for Inactive)
REMARK    1  A    between atoms: C_1  and  C_2
REMARK    2  A    between atoms: C_2  and  C_3
REMARK    3  A    between atoms: C_3  and  C_4
REMARK    4  A    between atoms: C_4  and  C_5
REMARK    5  A    between atoms: C_12  and  N_27
REMARK    6  A    between atoms: C_13  and  C_25
REMARK    7  A    between atoms: N_21  and  C_24
REMARK                            x       y       z     vdW  Elec       q    Type
REMARK                         _______ _______ _______ _____ _____    ______ ____
ROOT
ATOM      1  C   UNL     1      -2.826  -2.585   0.015  0.00  0.00    +0.045 A 
ATOM      2  C   UNL     1      -3.610  -2.770  -1.058  0.00  0.00    +0.061 A 
ATOM      3  C   UNL     1      -4.854  -3.272  -0.611  0.00  0.00    +0.245 A 
ATOM      4  N   UNL     1      -4.802  -3.378   0.685  0.00  0.00    -0.135 NA
ATOM      5  N   UNL     1      -3.532  -2.957   1.108  0.00  0.00    -0.278 N 
ATOM      6  H   UNL     1      -3.216  -2.935   2.025  0.00  0.00    +0.189 HD
ATOM      7  O   UNL     1      -5.864  -3.562  -1.474  0.00  0.00    -0.421 OA
ATOM      8  C   UNL     1      -5.572  -3.611  -2.789  0.00  0.00    +0.201 C 
ATOM      9  C   UNL     1      -4.423  -3.152  -3.334  0.00  0.00    +0.110 C 
ATOM     10  C   UNL     1      -3.330  -2.524  -2.514  0.00  0.00    +0.145 C 
ATOM     11  C   UNL     1      -3.202  -1.063  -2.804  0.00  0.00    -0.001 A 
ATOM     12  C   UNL     1      -4.092  -0.020  -2.663  0.00  0.00    +0.007 A 
ATOM     13  C   UNL     1      -3.645   1.244  -3.032  0.00  0.00    +0.000 A 
ATOM     14  C   UNL     1      -2.368   1.443  -3.516  0.00  0.00    +0.002 A 
ATOM     15  C   UNL     1      -1.468   0.399  -3.661  0.00  0.00    +0.024 A 
ATOM     16  C   UNL     1      -1.903  -0.876  -3.295  0.00  0.00    +0.041 A 
ATOM     17  N   UNL     1      -1.225  -2.081  -3.336  0.00  0.00    -0.273 N 
ATOM     18  C   UNL     1      -1.987  -3.105  -2.896  0.00  0.00    +0.240 C 
ATOM     19  O   UNL     1      -1.657  -4.270  -2.822  0.00  0.00    -0.274 OA
ATOM     20  C   UNL     1       0.156  -2.229  -3.801  0.00  0.00    +0.138 C 
ENDROOT
BRANCH   8  21
ATOM     21  N   UNL     1      -6.504  -4.163  -3.631  0.00  0.00    -0.328 N 
ATOM     22  H   UNL     1      -7.339  -4.503  -3.275  0.00  0.00    +0.145 HD
ATOM     23  H   UNL     1      -6.327  -4.215  -4.584  0.00  0.00    +0.145 HD
ENDBRANCH   8  21
BRANCH   9  24
ATOM     24  C   UNL     1      -4.239  -3.268  -4.749  0.00  0.00    +0.102 C 
ATOM     25  N   UNL     1      -4.094  -3.360  -5.872  0.00  0.00    -0.191 NA
ENDBRANCH   9  24
BRANCH   1  26
ATOM     26  C   UNL     1      -1.413  -2.063   0.004  0.00  0.00    +0.055 C 
BRANCH  26  27
ATOM     27  C   UNL     1      -1.433  -0.534   0.013  0.00  0.00    +0.006 C 
BRANCH  27  29
ATOM     28  C   UNL     1      -0.019   1.526   0.010  0.00  0.00    +0.004 C 
ATOM     29  C   UNL     1       0.002  -0.004   0.002  0.00  0.00    -0.003 C 
ENDBRANCH  27  29
ENDBRANCH  26  27
ENDBRANCH   1  26
TORSDOF 5
