REMARK  Name = ZINC67637995
REMARK  9 active torsions:
REMARK  status: ('A' for Active; 'I' for Inactive)
REMARK    1  A    between atoms: C_1  and  C_2
REMARK    2  A    between atoms: N_5  and  C_8
REMARK    3  A    between atoms: C_8  and  C_9
REMARK    4  A    between atoms: C_9  and  C_11
REMARK    5  A    between atoms: C_9  and  O_25
REMARK    6  A    between atoms: C_11  and  N_12
REMARK    7  A    between atoms: N_15  and  C_16
REMARK    8  A    between atoms: C_16  and  C_17
REMARK    9  A    between atoms: C_17  and  C_18
REMARK                            x       y       z     vdW  Elec       q    Type
REMARK                         _______ _______ _______ _____ _____    ______ ____
ROOT
ATOM      1  N   UNL     1       3.476  -6.287   2.330  0.00  0.00    -0.297 N 
ATOM      2  C   UNL     1       3.733  -7.594   2.535  0.00  0.00    +0.300 C 
ATOM      3  O   UNL     1       3.350  -8.422   1.731  0.00  0.00    -0.253 OA
ATOM      4  N   UNL     1       4.413  -7.983   3.631  0.00  0.00    -0.299 N 
ATOM      5  H   UNL     1       3.781  -5.626   2.971  0.00  0.00    +0.150 HD
ATOM      6  H   UNL     1       4.718  -7.322   4.272  0.00  0.00    +0.150 HD
ENDROOT
BRANCH   1   7
ATOM      7  C   UNL     1       2.736  -5.863   1.138  0.00  0.00    +0.135 C 
BRANCH   7   8
ATOM      8  C   UNL     1       2.582  -4.341   1.147  0.00  0.00    +0.115 C 
BRANCH   8   9
ATOM      9  O   UNL     1       3.869  -3.731   1.030  0.00  0.00    -0.392 OA
ATOM     10  H   UNL     1       4.342  -3.965   0.220  0.00  0.00    +0.210 HD
ENDBRANCH   8   9
BRANCH   8  11
ATOM     11  C   UNL     1       1.704  -3.911  -0.029  0.00  0.00    -0.046 C 
BRANCH  11  16
ATOM     12  C   UNL     1      -0.019   1.526   0.010  0.00  0.00    +0.007 C 
ATOM     13  C   UNL     1       0.002  -0.004   0.002  0.00  0.00    -0.018 C 
ATOM     14  C   UNL     1       0.727  -0.499  -1.252  0.00  0.00    -0.016 C 
ATOM     15  C   UNL     1       0.814  -2.027  -1.215  0.00  0.00    -0.078 C 
ATOM     16  N   UNL     1       1.556  -2.449  -0.021  0.00  0.00    +0.381 N 
ATOM     17  C   UNL     1       0.829  -2.040   1.187  0.00  0.00    -0.078 C 
ATOM     18  C   UNL     1       0.743  -0.513   1.242  0.00  0.00    -0.016 C 
ATOM     19  H   UNL     1       2.469  -2.020  -0.024  0.00  0.00    -0.082 HD
ENDBRANCH  11  16
ENDBRANCH   8  11
ENDBRANCH   7   8
ENDBRANCH   1   7
BRANCH   4  20
ATOM     20  C   UNL     1       4.692  -9.403   3.854  0.00  0.00    +0.110 C 
BRANCH  20  21
ATOM     21  C   UNL     1       5.472  -9.571   5.160  0.00  0.00    +0.055 C 
BRANCH  21  22
ATOM     22  C   UNL     1       5.759 -11.033   5.389  0.00  0.00    -0.032 A 
ATOM     23  C   UNL     1       4.911 -11.789   6.177  0.00  0.00    +0.005 A 
ATOM     24  C   UNL     1       5.174 -13.129   6.387  0.00  0.00    +0.000 A 
ATOM     25  C   UNL     1       6.285 -13.715   5.809  0.00  0.00    +0.001 A 
ATOM     26  C   UNL     1       7.133 -12.960   5.021  0.00  0.00    +0.015 A 
ATOM     27  C   UNL     1       6.868 -11.620   4.806  0.00  0.00    +0.021 A 
ATOM     28 BR   UNL     1       8.024 -10.588   3.723  0.00  0.00    -0.050 Br
ENDBRANCH  21  22
ENDBRANCH  20  21
ENDBRANCH   4  20
TORSDOF 8
