REMARK  Name = ZINC63174659
REMARK  7 active torsions:
REMARK  status: ('A' for Active; 'I' for Inactive)
REMARK    1  A    between atoms: C_1  and  C_2
REMARK    2  A    between atoms: C_4  and  N_21
REMARK    3  A    between atoms: C_6  and  S_9
REMARK    4  A    between atoms: C_7  and  C_8
REMARK    5  A    between atoms: S_9  and  N_12
REMARK    6  A    between atoms: N_12  and  C_13
REMARK    7  A    between atoms: C_18  and  N_20
REMARK                            x       y       z     vdW  Elec       q    Type
REMARK                         _______ _______ _______ _____ _____    ______ ____
ROOT
ATOM      1  S   UNL     1       0.045  -2.920   2.482  0.00  0.00    +0.059 S 
ATOM      2  O   UNL     1      -0.945  -2.334   3.316  0.00  0.00    -0.153 OA
ATOM      3  O   UNL     1       0.013  -4.291   2.111  0.00  0.00    -0.153 OA
ENDROOT
BRANCH   1   9
ATOM      4  C   UNL     1       1.977  -1.891  -2.264  0.00  0.00    +0.044 C 
ATOM      5  C   UNL     1       0.980  -1.564  -1.182  0.00  0.00    -0.044 A 
ATOM      6  C   UNL     1       0.074  -0.536  -1.366  0.00  0.00    +0.036 A 
ATOM      7  C   UNL     1      -0.841  -0.236  -0.374  0.00  0.00    +0.128 A 
ATOM      8  C   UNL     1      -0.850  -0.964   0.801  0.00  0.00    +0.061 A 
ATOM      9  C   UNL     1       0.056  -1.992   0.984  0.00  0.00    +0.111 A 
ATOM     10  C   UNL     1       0.968  -2.295  -0.010  0.00  0.00    -0.021 A 
ATOM     11  C   UNL     1       1.952  -3.419   0.188  0.00  0.00    +0.046 C 
BRANCH   7  12
ATOM     12  N   UNL     1      -1.811   0.865  -0.570  0.00  0.00    +0.056 N 
ATOM     13  O   UNL     1      -1.803   1.502  -1.597  0.00  0.00    -0.126 OA
ATOM     14  O   UNL     1      -2.611   1.127   0.298  0.00  0.00    -0.126 OA
ENDBRANCH   7  12
ENDBRANCH   1   9
BRANCH   1  15
ATOM     15  N   UNL     1       1.502  -2.665   3.227  0.00  0.00    -0.188 NA
ATOM     16  H   UNL     1       2.125  -3.400   3.338  0.00  0.00    +0.148 HD
BRANCH  15  17
ATOM     17  C   UNL     1       1.850  -1.329   3.718  0.00  0.00    +0.062 C 
ATOM     18  C   UNL     1       2.781  -0.622   2.712  0.00  0.00    +0.019 C 
ATOM     19  C   UNL     1       3.771   0.169   3.602  0.00  0.00    -0.000 C 
ATOM     20  C   UNL     1       4.012  -0.797   4.788  0.00  0.00    -0.015 C 
ATOM     21  C   UNL     1       2.631  -1.440   5.039  0.00  0.00    -0.056 C 
BRANCH  21  22
ATOM     22  N   UNL     1       2.793  -2.852   5.410  0.00  0.00    +0.381 N 
ATOM     23  H   UNL     1       3.300  -3.335   4.684  0.00  0.00    -0.090 HD
ATOM     24  H   UNL     1       3.306  -2.915   6.277  0.00  0.00    -0.090 HD
ATOM     25  H   UNL     1       1.885  -3.276   5.526  0.00  0.00    -0.090 HD
ENDBRANCH  21  22
ENDBRANCH  15  17
ENDBRANCH   1  15
TORSDOF 5
