REMARK  Name = ZINC38692291
REMARK  7 active torsions:
REMARK  status: ('A' for Active; 'I' for Inactive)
REMARK    1  A    between atoms: C_1  and  C_2
REMARK    2  A    between atoms: C_2  and  C_3
REMARK    3  A    between atoms: C_2  and  C_4
REMARK    4  A    between atoms: C_13  and  N_16
REMARK    5  A    between atoms: C_17  and  C_19
REMARK    6  A    between atoms: C_20  and  C_21
REMARK    7  A    between atoms: C_24  and  N_27
REMARK                            x       y       z     vdW  Elec       q    Type
REMARK                         _______ _______ _______ _____ _____    ______ ____
ROOT
ATOM      1  C   UNL     1      -1.419  -0.535  -0.025  0.00  0.00    +0.222 C 
ATOM      2  O   UNL     1      -2.350   0.242  -0.029  0.00  0.00    -0.275 OA
ATOM      3  N   UNL     1      -1.649  -1.863  -0.027  0.00  0.00    -0.271 N 
ATOM      4  C   UNL     1      -0.536  -2.813  -0.154  0.00  0.00    +0.114 C 
ATOM      5  C   UNL     1      -0.954  -3.890  -1.165  0.00  0.00    +0.024 C 
ATOM      6  C   UNL     1      -2.157  -4.650  -0.608  0.00  0.00    +0.038 C 
ATOM      7  C   UNL     1      -3.236  -3.690  -0.180  0.00  0.00    -0.026 A 
ATOM      8  C   UNL     1      -2.954  -2.360   0.099  0.00  0.00    +0.041 A 
ATOM      9  C   UNL     1      -3.968  -1.500   0.501  0.00  0.00    +0.047 A 
ATOM     10  C   UNL     1      -5.267  -1.971   0.628  0.00  0.00    +0.035 A 
ATOM     11  C   UNL     1      -5.547  -3.304   0.351  0.00  0.00    +0.024 A 
ATOM     12  C   UNL     1      -4.536  -4.155  -0.059  0.00  0.00    +0.007 A 
ENDROOT
BRANCH  10  13
ATOM     13  N   UNL     1      -6.290  -1.109   1.033  0.00  0.00    -0.282 N 
ATOM     14  C   UNL     1      -7.296  -1.571   1.800  0.00  0.00    +0.241 C 
ATOM     15  O   UNL     1      -7.266  -2.712   2.222  0.00  0.00    -0.270 OA
ATOM     16  H   UNL     1      -6.274  -0.177   0.762  0.00  0.00    +0.155 HD
BRANCH  14  17
ATOM     17  C   UNL     1      -8.427  -0.701   2.126  0.00  0.00    +0.068 C 
ATOM     18  C   UNL     1      -9.435  -1.163   2.894  0.00  0.00    +0.013 C 
BRANCH  18  19
ATOM     19  C   UNL     1     -10.572  -0.288   3.222  0.00  0.00    -0.025 A 
ATOM     20  C   UNL     1     -10.614   1.022   2.735  0.00  0.00    +0.010 A 
ATOM     21  C   UNL     1     -11.683   1.835   3.046  0.00  0.00    +0.033 A 
ATOM     22  C   UNL     1     -12.712   1.359   3.838  0.00  0.00    +0.126 A 
ATOM     23  C   UNL     1     -12.678   0.063   4.325  0.00  0.00    +0.033 A 
ATOM     24  C   UNL     1     -11.619  -0.764   4.017  0.00  0.00    +0.010 A 
BRANCH  22  25
ATOM     25  N   UNL     1     -13.856   2.239   4.168  0.00  0.00    +0.056 N 
ATOM     26  O   UNL     1     -13.889   3.371   3.745  0.00  0.00    -0.126 OA
ATOM     27  O   UNL     1     -14.757   1.825   4.860  0.00  0.00    -0.126 OA
ENDBRANCH  22  25
ENDBRANCH  18  19
ENDBRANCH  14  17
ENDBRANCH  10  13
BRANCH   1  29
ATOM     28  C   UNL     1      -0.022   1.514  -0.015  0.00  0.00    +0.017 C 
ATOM     29  C   UNL     1      -0.004  -0.015  -0.016  0.00  0.00    +0.069 C 
ATOM     30  C   UNL     1       0.716  -0.518   1.238  0.00  0.00    +0.017 C 
ENDBRANCH   1  29
TORSDOF 5
