REMARK  Name = ZINC54689218
REMARK  4 active torsions:
REMARK  status: ('A' for Active; 'I' for Inactive)
REMARK    1  A    between atoms: C_1  and  C_2
REMARK    2  A    between atoms: C_7  and  S_10
REMARK    3  A    between atoms: S_10  and  C_11
REMARK    4  A    between atoms: C_14  and  N_20
REMARK                            x       y       z     vdW  Elec       q    Type
REMARK                         _______ _______ _______ _____ _____    ______ ____
ROOT
ATOM      1  C   UNL     1       2.518   0.068   3.813  0.00  0.00    +0.039 A 
ATOM      2  C   UNL     1       2.799   0.936   2.803  0.00  0.00    +0.019 A 
ATOM      3  C   UNL     1       4.061   1.507   2.636  0.00  0.00    +0.026 A 
ATOM      4  C   UNL     1       5.101   1.236   3.469  0.00  0.00    +0.056 A 
ATOM      5  C   UNL     1       4.906   0.312   4.591  0.00  0.00    +0.156 A 
ATOM      6  C   UNL     1       3.568  -0.287   4.773  0.00  0.00    +0.149 A 
ATOM      7  N   UNL     1       3.611  -1.067   5.825  0.00  0.00    -0.048 NA
ATOM      8  O   UNL     1       4.922  -1.009   6.359  0.00  0.00    -0.241 OA
ATOM      9  N   UNL     1       5.687  -0.139   5.542  0.00  0.00    -0.047 NA
ENDROOT
BRANCH   4  10
ATOM     10  N   UNL     1       6.346   1.833   3.258  0.00  0.00    -0.356 N 
ATOM     11  H   UNL     1       6.472   2.443   2.514  0.00  0.00    +0.142 HD
ATOM     12  H   UNL     1       7.086   1.637   3.854  0.00  0.00    +0.142 HD
ENDBRANCH   4  10
BRANCH   1  13
ATOM     13  S   UNL     1       0.903  -0.618   3.970  0.00  0.00    -0.120 S 
BRANCH  13  19
ATOM     14  C   UNL     1       0.056   1.258  -0.139  0.00  0.00    +0.007 C 
ATOM     15  C   UNL     1      -0.139  -0.252   0.006  0.00  0.00    -0.013 C 
ATOM     16  C   UNL     1      -1.631  -0.563   0.136  0.00  0.00    +0.003 C 
ATOM     17  C   UNL     1      -2.194   0.145   1.370  0.00  0.00    +0.001 C 
ATOM     18  C   UNL     1      -1.460  -0.347   2.619  0.00  0.00    +0.014 C 
ATOM     19  C   UNL     1       0.033  -0.036   2.489  0.00  0.00    +0.052 C 
ATOM     20  C   UNL     1       0.595  -0.744   1.255  0.00  0.00    +0.017 C 
ENDBRANCH  13  19
ENDBRANCH   1  13
TORSDOF 3
