REMARK  Name = ZINC04008555
REMARK  3 active torsions:
REMARK  status: ('A' for Active; 'I' for Inactive)
REMARK    1  A    between atoms: C_7  and  C_9
REMARK    2  A    between atoms: C_9  and  N_10
REMARK    3  A    between atoms: C_11  and  C_13
REMARK                            x       y       z     vdW  Elec       q    Type
REMARK                         _______ _______ _______ _____ _____    ______ ____
ROOT
ATOM      1  N   UNL     1      -0.911  -4.987   0.208  0.00  0.00    -0.306 N 
ATOM      2  C   UNL     1      -1.002  -6.332   0.212  0.00  0.00    +0.220 C 
ATOM      3  O   UNL     1      -0.050  -7.005  -0.118  0.00  0.00    -0.275 OA
ATOM      4  H   UNL     1      -1.673  -4.448   0.472  0.00  0.00    +0.149 HD
ENDROOT
BRANCH   2   5
ATOM      5  C   UNL     1      -2.289  -6.998   0.626  0.00  0.00    +0.048 C 
ATOM      6  C   UNL     1      -2.630  -6.600   2.063  0.00  0.00    +0.019 C 
ATOM      7  C   UNL     1      -3.936  -7.277   2.484  0.00  0.00    -0.009 C 
ATOM      8  C   UNL     1      -3.774  -8.796   2.400  0.00  0.00    +0.007 C 
ATOM      9  C   UNL     1      -3.433  -9.194   0.963  0.00  0.00    -0.009 C 
ATOM     10  C   UNL     1      -2.127  -8.517   0.542  0.00  0.00    +0.019 C 
ATOM     11  C   UNL     1      -4.561  -8.749   0.029  0.00  0.00    +0.007 C 
ATOM     12  C   UNL     1      -4.723  -7.230   0.113  0.00  0.00    -0.009 C 
ATOM     13  C   UNL     1      -5.064  -6.832   1.550  0.00  0.00    +0.007 C 
ATOM     14  C   UNL     1      -3.417  -6.553  -0.307  0.00  0.00    +0.019 C 
ENDBRANCH   2   5
BRANCH   1  15
ATOM     15  C   UNL     1       0.340  -4.339  -0.195  0.00  0.00    +0.200 C 
BRANCH  15  22
ATOM     16  C   UNL     1      -0.018   1.447   0.010  0.00  0.00    +0.155 C 
ATOM     17  C   UNL     1       1.424   2.026  -0.001  0.00  0.00    +0.100 C 
ATOM     18  S   UNL     1       2.288   0.577  -0.745  0.00  0.00    -0.089 S 
ATOM     19  C   UNL     1       1.063  -0.664  -0.362  0.00  0.00    +0.156 C 
ATOM     20  N   UNL     1       0.002  -0.004   0.002  0.00  0.00    -0.262 NA
ATOM     21  N   UNL     1       1.209  -2.036  -0.438  0.00  0.00    -0.264 N 
ATOM     22  C   UNL     1       0.180  -2.843  -0.112  0.00  0.00    +0.236 C 
ATOM     23  O   UNL     1      -0.875  -2.365   0.248  0.00  0.00    -0.274 OA
ATOM     24  H   UNL     1       2.053  -2.419  -0.725  0.00  0.00    +0.157 HD
ENDBRANCH  15  22
ENDBRANCH   1  15
TORSDOF 3
