REMARK  Name = ZINC20236085
REMARK  7 active torsions:
REMARK  status: ('A' for Active; 'I' for Inactive)
REMARK    1  A    between atoms: C_1  and  C_2
REMARK    2  A    between atoms: C_9  and  C_10
REMARK    3  A    between atoms: C_13  and  O_18
REMARK    4  A    between atoms: C_14  and  O_16
REMARK    5  A    between atoms: O_16  and  C_17
REMARK    6  A    between atoms: O_18  and  C_19
REMARK    7  A    between atoms: C_19  and  C_20
REMARK                            x       y       z     vdW  Elec       q    Type
REMARK                         _______ _______ _______ _____ _____    ______ ____
ROOT
ATOM      1  C   UNL     1       0.639  -6.804   1.134  0.00  0.00    -0.021 A 
ATOM      2  C   UNL     1      -0.744  -6.900   0.922  0.00  0.00    +0.012 A 
ATOM      3  C   UNL     1      -1.413  -8.054   1.260  0.00  0.00    +0.050 A 
ATOM      4  C   UNL     1      -0.721  -9.126   1.812  0.00  0.00    +0.162 A 
ATOM      5  C   UNL     1       0.654  -9.039   2.027  0.00  0.00    +0.162 A 
ATOM      6  C   UNL     1       1.336  -7.888   1.686  0.00  0.00    +0.057 A 
ENDROOT
BRANCH   1  15
ATOM      7  C   UNL     1       8.191  -3.462   1.946  0.00  0.00    +0.089 C 
ATOM      8  C   UNL     1       6.756  -3.917   2.017  0.00  0.00    +0.134 C 
ATOM      9  C   UNL     1       6.241  -4.732   2.963  0.00  0.00    +0.091 C 
ATOM     10  C   UNL     1       4.877  -4.915   2.695  0.00  0.00    +0.168 C 
ATOM     11  N   UNL     1       3.981  -5.668   3.331  0.00  0.00    -0.156 NA
ATOM     12  C   UNL     1       2.729  -5.758   2.860  0.00  0.00    +0.273 C 
ATOM     13  O   UNL     1       1.868  -6.341   3.499  0.00  0.00    -0.268 OA
ATOM     14  C   UNL     1       2.404  -5.140   1.550  0.00  0.00    +0.082 C 
ATOM     15  C   UNL     1       1.354  -5.577   0.774  0.00  0.00    +0.024 C 
ATOM     16  C   UNL     1       3.289  -4.011   1.128  0.00  0.00    +0.156 C 
ATOM     17  N   UNL     1       2.883  -3.010   0.393  0.00  0.00    -0.382 N 
ATOM     18  N   UNL     1       4.588  -4.140   1.600  0.00  0.00    -0.144 N 
ATOM     19  O   UNL     1       5.788  -3.571   1.153  0.00  0.00    -0.375 OA
ATOM     20  H   UNL     1       1.962  -2.972   0.092  0.00  0.00    +0.157 HD
ATOM     21  H   UNL     1       3.502  -2.304   0.150  0.00  0.00    +0.157 HD
ENDBRANCH   1  15
BRANCH   5  22
ATOM     22  O   UNL     1       1.326 -10.091   2.568  0.00  0.00    -0.491 OA
ATOM     23  C   UNL     1       2.733  -9.932   2.761  0.00  0.00    +0.277 C 
ENDBRANCH   5  22
BRANCH   4  24
ATOM     24  O   UNL     1      -1.387 -10.261   2.144  0.00  0.00    -0.484 OA
BRANCH  24  25
ATOM     25  C   UNL     1      -2.795 -10.283   1.898  0.00  0.00    +0.264 C 
BRANCH  25  26
ATOM     26  C   UNL     1      -3.359 -11.614   2.326  0.00  0.00    -0.010 A 
ATOM     27  C   UNL     1      -3.414 -12.663   1.427  0.00  0.00    +0.007 A 
ATOM     28  C   UNL     1      -3.931 -13.883   1.819  0.00  0.00    +0.000 A 
ATOM     29  C   UNL     1      -4.393 -14.055   3.111  0.00  0.00    +0.000 A 
ATOM     30  C   UNL     1      -4.337 -13.006   4.010  0.00  0.00    +0.000 A 
ATOM     31  C   UNL     1      -3.816 -11.787   3.619  0.00  0.00    +0.007 A 
ENDBRANCH  25  26
ENDBRANCH  24  25
ENDBRANCH   4  24
TORSDOF 5
