REMARK  Name = ZINC47405912
REMARK  6 active torsions:
REMARK  status: ('A' for Active; 'I' for Inactive)
REMARK    1  A    between atoms: C_2  and  C_3
REMARK    2  A    between atoms: C_3  and  N_4
REMARK    3  A    between atoms: N_4  and  C_5
REMARK    4  A    between atoms: N_4  and  C_21
REMARK    5  A    between atoms: C_5  and  C_6
REMARK    6  A    between atoms: N_8  and  N_9
REMARK                            x       y       z     vdW  Elec       q    Type
REMARK                         _______ _______ _______ _____ _____    ______ ____
ROOT
ATOM      1  C   UNL     1       1.049   4.054   1.220  0.00  0.00    +0.213 C 
ATOM      2  O   UNL     1       0.674   3.346   2.131  0.00  0.00    -0.276 OA
ATOM      3  N   UNL     1       1.078   5.393   1.376  0.00  0.00    -0.225 N 
ATOM      4  H   UNL     1       1.378   5.959   0.648  0.00  0.00    +0.173 HD
ENDROOT
BRANCH   3   5
ATOM      5  N   UNL     1       0.674   5.966   2.589  0.00  0.00    -0.137 N 
ATOM      6  C   UNL     1      -0.503   6.598   2.774  0.00  0.00    +0.263 C 
ATOM      7  O   UNL     1      -1.379   6.773   1.954  0.00  0.00    -0.271 OA
ATOM      8  C   UNL     1      -0.499   7.044   4.218  0.00  0.00    +0.114 C 
ATOM      9  C   UNL     1      -1.649   6.391   4.979  0.00  0.00    +0.035 C 
ATOM     10  C   UNL     1      -1.609   6.831   6.444  0.00  0.00    +0.003 C 
ATOM     11  C   UNL     1      -1.723   8.355   6.522  0.00  0.00    +0.000 C 
ATOM     12  C   UNL     1      -0.551   8.994   5.775  0.00  0.00    +0.003 C 
ATOM     13  C   UNL     1      -0.587   8.563   4.307  0.00  0.00    +0.035 C 
ATOM     14  N   UNL     1       0.792   6.572   4.734  0.00  0.00    -0.284 N 
ATOM     15  C   UNL     1       1.406   5.948   3.710  0.00  0.00    +0.326 C 
ATOM     16  O   UNL     1       2.503   5.432   3.793  0.00  0.00    -0.251 OA
ATOM     17  H   UNL     1       1.134   6.683   5.635  0.00  0.00    +0.151 HD
ENDBRANCH   3   5
BRANCH   1  18
ATOM     18  C   UNL     1       1.484   3.438  -0.084  0.00  0.00    +0.022 C 
BRANCH  18  19
ATOM     19  N   UNL     1       1.360   1.976  -0.000  0.00  0.00    +0.397 N 
ATOM     20  H   UNL     1       1.867   1.642   0.805  0.00  0.00    -0.079 HD
BRANCH  19  21
ATOM     21  C   UNL     1       1.916   1.367  -1.216  0.00  0.00    -0.035 C 
ATOM     22  C   UNL     1       3.415   1.711  -1.350  0.00  0.00    -0.006 C 
ATOM     23  C   UNL     1       3.386   2.987  -2.218  0.00  0.00    +0.034 C 
ATOM     24  C   UNL     1       2.107   2.890  -3.022  0.00  0.00    -0.046 A 
ATOM     25  C   UNL     1       1.260   1.958  -2.446  0.00  0.00    -0.058 A 
ATOM     26  C   UNL     1       0.025   1.700  -3.015  0.00  0.00    +0.002 A 
ATOM     27  C   UNL     1      -0.368   2.372  -4.157  0.00  0.00    +0.000 A 
ATOM     28  C   UNL     1       0.475   3.303  -4.734  0.00  0.00    +0.000 A 
ATOM     29  C   UNL     1       1.714   3.563  -4.166  0.00  0.00    +0.004 A 
ENDBRANCH  19  21
BRANCH  19  30
ATOM     30  C   UNL     1      -0.057   1.611   0.126  0.00  0.00    +0.013 C 
BRANCH  30  32
ATOM     31  C   UNL     1      -0.264  -1.000   0.506  0.00  0.00    +0.002 C 
ATOM     32  C   UNL     1      -0.172   0.159   0.338  0.00  0.00    -0.124 C 
ENDBRANCH  30  32
ENDBRANCH  19  30
ENDBRANCH  18  19
ENDBRANCH   1  18
TORSDOF 6
