REMARK  Name = ZINC41119385
REMARK  11 active torsions:
REMARK  status: ('A' for Active; 'I' for Inactive)
REMARK    1  A    between atoms: C_1  and  C_2
REMARK    2  A    between atoms: C_2  and  C_4
REMARK    3  A    between atoms: C_2  and  N_17
REMARK    4  A    between atoms: C_4  and  N_5
REMARK    5  A    between atoms: N_5  and  C_6
REMARK    6  A    between atoms: C_7  and  C_9
REMARK    7  A    between atoms: C_18  and  O_20
REMARK    8  A    between atoms: O_20  and  C_21
REMARK    9  A    between atoms: C_21  and  C_22
REMARK   10  A    between atoms: C_21  and  C_23
REMARK   11  A    between atoms: C_21  and  C_24
REMARK                            x       y       z     vdW  Elec       q    Type
REMARK                         _______ _______ _______ _____ _____    ______ ____
ROOT
ATOM      1  C   UNL     1       0.915  -0.435  -1.424  0.00  0.00    +0.129 C 
ENDROOT
BRANCH   1   2
ATOM      2  N   UNL     1       1.118  -1.880  -1.554  0.00  0.00    -0.299 N 
ATOM      3  C   UNL     1       0.334  -2.646  -2.525  0.00  0.00    +0.132 C 
ATOM      4  C   UNL     1       2.027  -2.504  -0.779  0.00  0.00    +0.248 C 
ATOM      5  O   UNL     1       2.617  -1.886   0.086  0.00  0.00    -0.270 OA
BRANCH   4   6
ATOM      6  C   UNL     1       2.308  -3.940  -0.981  0.00  0.00    +0.055 A 
ATOM      7  C   UNL     1       2.442  -4.454  -2.273  0.00  0.00    +0.016 A 
ATOM      8  C   UNL     1       2.704  -5.795  -2.455  0.00  0.00    +0.021 A 
ATOM      9  C   UNL     1       2.833  -6.634  -1.361  0.00  0.00    +0.042 A 
ATOM     10  C   UNL     1       2.701  -6.133  -0.077  0.00  0.00    +0.040 A 
ATOM     11  C   UNL     1       2.446  -4.790   0.119  0.00  0.00    +0.054 A 
ATOM     12 CL   UNL     1       2.287  -4.161   1.730  0.00  0.00    -0.083 Cl
ATOM     13 CL   UNL     1       3.162  -8.322  -1.599  0.00  0.00    -0.083 Cl
ENDBRANCH   4   6
ENDBRANCH   1   2
BRANCH   1  15
ATOM     14  C   UNL     1      -0.294   1.344  -0.152  0.00  0.00    +0.029 C 
ATOM     15  C   UNL     1      -0.169  -0.164  -0.378  0.00  0.00    +0.090 C 
BRANCH  15  16
ATOM     16  N   UNL     1       0.195  -0.818   0.881  0.00  0.00    -0.277 N 
ATOM     17  C   UNL     1      -0.765  -1.161   1.764  0.00  0.00    +0.401 C 
ATOM     18  O   UNL     1      -1.931  -0.927   1.515  0.00  0.00    -0.226 OA
ATOM     19  H   UNL     1       1.126  -1.004   1.080  0.00  0.00    +0.152 HD
BRANCH  17  20
ATOM     20  O   UNL     1      -0.431  -1.762   2.921  0.00  0.00    -0.445 OA
BRANCH  20  21
ATOM     21  C   UNL     1      -1.499  -2.097   3.810  0.00  0.00    +0.107 C 
ATOM     22  C   UNL     1      -2.462  -3.058   3.110  0.00  0.00    +0.055 C 
ATOM     23  C   UNL     1      -0.929  -2.767   5.062  0.00  0.00    +0.055 C 
ATOM     24  C   UNL     1      -2.249  -0.824   4.209  0.00  0.00    +0.055 C 
ENDBRANCH  20  21
ENDBRANCH  17  20
ENDBRANCH  15  16
ENDBRANCH   1  15
TORSDOF 6
