REMARK  Name = ZINC08473899
REMARK  8 active torsions:
REMARK  status: ('A' for Active; 'I' for Inactive)
REMARK    1  A    between atoms: C_1  and  C_2
REMARK    2  A    between atoms: C_2  and  C_4
REMARK    3  A    between atoms: C_2  and  N_15
REMARK    4  A    between atoms: N_6  and  C_7
REMARK    5  A    between atoms: C_8  and  C_12
REMARK    6  A    between atoms: N_15  and  C_16
REMARK    7  A    between atoms: N_15  and  C_17
REMARK    8  A    between atoms: C_17  and  C_18
REMARK                            x       y       z     vdW  Elec       q    Type
REMARK                         _______ _______ _______ _____ _____    ______ ____
ROOT
ATOM      1  C   UNL     1      -1.374  -0.627   0.145  0.00  0.00    +0.204 C 
ATOM      2  O   UNL     1      -1.599  -1.415   1.040  0.00  0.00    -0.277 OA
ATOM      3  N   UNL     1      -2.348  -0.305  -0.729  0.00  0.00    -0.281 N 
ATOM      4  H   UNL     1      -2.169   0.325  -1.445  0.00  0.00    +0.155 HD
ENDROOT
BRANCH   3   5
ATOM      5  C   UNL     1      -3.607  -0.874  -0.606  0.00  0.00    +0.084 A 
ATOM      6  C   UNL     1      -4.719  -0.667  -1.409  0.00  0.00    +0.065 A 
ATOM      7  C   UNL     1      -5.917  -1.393  -1.053  0.00  0.00    +0.022 A 
ATOM      8  C   UNL     1      -5.819  -2.194   0.024  0.00  0.00    +0.048 A 
ATOM      9  S   UNL     1      -4.132  -1.976   0.545  0.00  0.00    -0.081 S 
BRANCH   6  10
ATOM     10  C   UNL     1      -4.681   0.243  -2.558  0.00  0.00    +0.244 C 
ATOM     11  O   UNL     1      -3.655   0.839  -2.829  0.00  0.00    -0.270 OA
ATOM     12  N   UNL     1      -5.782   0.418  -3.315  0.00  0.00    -0.325 N 
ATOM     13  H   UNL     1      -6.600  -0.057  -3.099  0.00  0.00    +0.145 HD
ATOM     14  H   UNL     1      -5.757   1.019  -4.076  0.00  0.00    +0.145 HD
ENDBRANCH   6  10
ENDBRANCH   3   5
BRANCH   1  16
ATOM     15  C   UNL     1       0.031   1.318   0.772  0.00  0.00    -0.004 C 
ATOM     16  C   UNL     1      -0.006  -0.009   0.011  0.00  0.00    +0.016 C 
BRANCH  16  17
ATOM     17  N   UNL     1       1.000  -0.922   0.568  0.00  0.00    +0.388 N 
ATOM     18  C   UNL     1       1.008  -2.172  -0.203  0.00  0.00    -0.095 C 
ATOM     19  H   UNL     1       0.776  -1.122   1.531  0.00  0.00    -0.081 HD
BRANCH  17  20
ATOM     20  C   UNL     1       2.326  -0.293   0.495  0.00  0.00    -0.035 C 
BRANCH  20  21
ATOM     21  C   UNL     1       3.339  -1.176   1.177  0.00  0.00    -0.025 A 
ATOM     22  C   UNL     1       4.101  -2.165   0.650  0.00  0.00    +0.011 A 
ATOM     23  C   UNL     1       4.973  -2.851   1.474  0.00  0.00    +0.028 A 
ATOM     24  C   UNL     1       5.041  -2.512   2.786  0.00  0.00    +0.078 A 
ATOM     25  S   UNL     1       3.854  -1.183   2.886  0.00  0.00    -0.084 S 
ATOM     26 CL   UNL     1       6.031  -3.190   4.041  0.00  0.00    -0.076 Cl
ENDBRANCH  20  21
ENDBRANCH  17  20
ENDBRANCH  16  17
ENDBRANCH   1  16
TORSDOF 6
