REMARK  Name = ZINC07688471
REMARK  8 active torsions:
REMARK  status: ('A' for Active; 'I' for Inactive)
REMARK    1  A    between atoms: C_1  and  C_2
REMARK    2  A    between atoms: C_2  and  N_3
REMARK    3  A    between atoms: N_3  and  C_4
REMARK    4  A    between atoms: C_5  and  N_20
REMARK    5  A    between atoms: N_6  and  C_13
REMARK    6  A    between atoms: C_13  and  C_14
REMARK    7  A    between atoms: C_21  and  C_23
REMARK    8  A    between atoms: C_24  and  C_25
REMARK                            x       y       z     vdW  Elec       q    Type
REMARK                         _______ _______ _______ _____ _____    ______ ____
ROOT
ATOM      1  C   UNL     1      -2.363  -4.259   0.087  0.00  0.00    +0.140 A 
ATOM      2  C   UNL     1      -1.214  -5.022   0.026  0.00  0.00    +0.128 A 
ATOM      3  N   UNL     1      -1.316  -6.393   0.066  0.00  0.00    -0.276 N 
ATOM      4  C   UNL     1      -2.521  -6.984   0.152  0.00  0.00    +0.331 A 
ATOM      5  O   UNL     1      -2.590  -8.198   0.180  0.00  0.00    -0.246 OA
ATOM      6  N   UNL     1      -3.651  -6.258   0.208  0.00  0.00    -0.273 N 
ATOM      7  H   UNL     1      -4.535  -6.722   0.272  0.00  0.00    +0.173 HD
ATOM      8  C   UNL     1      -3.607  -4.912   0.177  0.00  0.00    +0.277 A 
ATOM      9  O   UNL     1      -4.638  -4.262   0.228  0.00  0.00    -0.266 OA
ENDROOT
BRANCH   1  10
ATOM     10  N   UNL     1      -2.292  -2.852   0.054  0.00  0.00    -0.261 N 
ATOM     11  C   UNL     1      -1.648  -2.186   1.033  0.00  0.00    +0.244 C 
ATOM     12  O   UNL     1      -1.196  -2.793   1.987  0.00  0.00    -0.270 OA
BRANCH  10  14
ATOM     13  C   UNL     1      -1.876  -1.827  -2.127  0.00  0.00    +0.025 C 
ATOM     14  C   UNL     1      -2.918  -2.112  -1.044  0.00  0.00    +0.111 C 
ENDBRANCH  10  14
BRANCH  11  15
ATOM     15  C   UNL     1      -1.491  -0.733   0.950  0.00  0.00    +0.068 C 
ATOM     16  C   UNL     1      -0.847  -0.067   1.929  0.00  0.00    +0.013 C 
BRANCH  16  17
ATOM     17  C   UNL     1      -0.689   1.394   1.846  0.00  0.00    -0.025 A 
ATOM     18  C   UNL     1      -1.202   2.095   0.750  0.00  0.00    +0.008 A 
ATOM     19  C   UNL     1      -1.055   3.464   0.681  0.00  0.00    +0.001 A 
ATOM     20  C   UNL     1      -0.393   4.144   1.689  0.00  0.00    +0.000 A 
ATOM     21  C   UNL     1       0.122   3.457   2.774  0.00  0.00    +0.001 A 
ATOM     22  C   UNL     1      -0.022   2.088   2.860  0.00  0.00    +0.008 A 
ENDBRANCH  16  17
ENDBRANCH  11  15
ENDBRANCH   1  10
BRANCH   2  23
ATOM     23  N   UNL     1       0.017  -4.418  -0.068  0.00  0.00    -0.343 N 
ATOM     24  H   UNL     1       0.078  -3.457  -0.181  0.00  0.00    +0.144 HD
ATOM     25  H   UNL     1       0.824  -4.953  -0.021  0.00  0.00    +0.144 HD
ENDBRANCH   2  23
BRANCH   3  26
ATOM     26  C   UNL     1      -0.104  -7.215   0.007  0.00  0.00    +0.163 C 
BRANCH  26  27
ATOM     27  C   UNL     1       0.223  -7.525  -1.431  0.00  0.00    -0.028 A 
ATOM     28  C   UNL     1      -0.291  -8.661  -2.027  0.00  0.00    +0.005 A 
ATOM     29  C   UNL     1       0.006  -8.943  -3.347  0.00  0.00    +0.000 A 
ATOM     30  C   UNL     1       0.825  -8.095  -4.068  0.00  0.00    +0.000 A 
ATOM     31  C   UNL     1       1.344  -6.961  -3.470  0.00  0.00    +0.000 A 
ATOM     32  C   UNL     1       1.043  -6.676  -2.151  0.00  0.00    +0.005 A 
ENDBRANCH  26  27
ENDBRANCH   3  26
TORSDOF 7
