REMARK  Name = ZINC36693250
REMARK  4 active torsions:
REMARK  status: ('A' for Active; 'I' for Inactive)
REMARK    1  A    between atoms: C_1  and  S_2
REMARK    2  A    between atoms: S_2  and  C_5
REMARK    3  A    between atoms: C_10  and  C_11
REMARK    4  A    between atoms: C_17  and  C_19
REMARK                            x       y       z     vdW  Elec       q    Type
REMARK                         _______ _______ _______ _____ _____    ______ ____
ROOT
ATOM      1  C   UNL     1      -1.017   0.571  -2.794  0.00  0.00    +0.252 A 
ATOM      2  N   UNL     1      -1.748   0.956  -1.776  0.00  0.00    -0.106 NA
ATOM      3  N   UNL     1      -2.816   1.529  -2.210  0.00  0.00    -0.092 NA
ATOM      4  C   UNL     1      -2.808   1.532  -3.522  0.00  0.00    +0.315 A 
ATOM      5  O   UNL     1      -1.670   0.932  -3.920  0.00  0.00    -0.405 OA
ATOM      6  N   UNL     1      -3.787   2.059  -4.345  0.00  0.00    -0.232 N 
ATOM      7  C   UNL     1      -4.879   2.639  -3.808  0.00  0.00    +0.287 C 
ATOM      8  O   UNL     1      -5.003   2.700  -2.599  0.00  0.00    -0.266 OA
ATOM      9  H   UNL     1      -3.688   2.011  -5.309  0.00  0.00    +0.160 HD
ENDROOT
BRANCH   1  15
ATOM     10  C   UNL     1       0.845  -0.437  -1.483  0.00  0.00    +0.100 A 
ATOM     11  C   UNL     1       2.059  -1.092  -1.424  0.00  0.00    +0.028 A 
ATOM     12  C   UNL     1       2.722  -1.433  -2.589  0.00  0.00    +0.002 A 
ATOM     13  C   UNL     1       2.175  -1.121  -3.821  0.00  0.00    +0.001 A 
ATOM     14  C   UNL     1       0.962  -0.467  -3.894  0.00  0.00    +0.015 A 
ATOM     15  C   UNL     1       0.285  -0.124  -2.723  0.00  0.00    +0.063 A 
BRANCH  10  17
ATOM     16  C   UNL     1      -0.022   1.810   0.012  0.00  0.00    +0.200 C 
ATOM     17  S   UNL     1       0.002  -0.004   0.002  0.00  0.00    -0.005 S 
ATOM     18  O   UNL     1       0.835  -0.488   1.046  0.00  0.00    -0.170 OA
ATOM     19  O   UNL     1      -1.315  -0.510  -0.168  0.00  0.00    -0.170 OA
ENDBRANCH  10  17
ENDBRANCH   1  15
BRANCH   7  20
ATOM     20  C   UNL     1      -5.915   3.197  -4.680  0.00  0.00    +0.191 A 
ATOM     21  C   UNL     1      -7.063   3.815  -4.269  0.00  0.00    +0.056 A 
ATOM     22  C   UNL     1      -7.757   4.190  -5.429  0.00  0.00    +0.058 A 
ATOM     23  C   UNL     1      -7.012   3.790  -6.486  0.00  0.00    +0.171 A 
ATOM     24  O   UNL     1      -5.901   3.197  -6.030  0.00  0.00    -0.444 OA
ATOM     25 BR   UNL     1      -7.463   4.034  -8.306  0.00  0.00    -0.008 Br
ENDBRANCH   7  20
TORSDOF 3
