REMARK  Name = ZINC46778654
REMARK  10 active torsions:
REMARK  status: ('A' for Active; 'I' for Inactive)
REMARK    1  A    between atoms: C_1  and  C_2
REMARK    2  A    between atoms: C_2  and  C_3
REMARK    3  A    between atoms: C_2  and  N_4
REMARK    4  A    between atoms: N_7  and  C_8
REMARK    5  A    between atoms: C_11  and  C_14
REMARK    6  A    between atoms: C_14  and  N_15
REMARK    7  A    between atoms: C_16  and  C_18
REMARK    8  A    between atoms: C_18  and  N_19
REMARK    9  A    between atoms: C_20  and  C_22
REMARK   10  A    between atoms: C_25  and  C_28
REMARK                            x       y       z     vdW  Elec       q    Type
REMARK                         _______ _______ _______ _____ _____    ______ ____
ROOT
ATOM      1  N   UNL     1      -3.682  -8.431  -1.145  0.00  0.00    -0.310 N 
ATOM      2  C   UNL     1      -3.855  -9.754  -1.337  0.00  0.00    +0.230 C 
ATOM      3  O   UNL     1      -4.085 -10.181  -2.448  0.00  0.00    -0.274 OA
ATOM      4  H   UNL     1      -3.498  -8.090  -0.256  0.00  0.00    +0.149 HD
ENDROOT
BRANCH   1   5
ATOM      5  C   UNL     1      -3.772  -7.509  -2.280  0.00  0.00    +0.139 C 
BRANCH   5   9
ATOM      6  C   UNL     1      -3.121  -3.510  -0.921  0.00  0.00    +0.035 A 
ATOM      7  C   UNL     1      -2.048  -4.287  -1.338  0.00  0.00    +0.023 A 
ATOM      8  C   UNL     1      -2.262  -5.579  -1.776  0.00  0.00    +0.007 A 
ATOM      9  C   UNL     1      -3.543  -6.099  -1.801  0.00  0.00    -0.030 A 
ATOM     10  C   UNL     1      -4.613  -5.328  -1.386  0.00  0.00    +0.007 A 
ATOM     11  C   UNL     1      -4.405  -4.037  -0.941  0.00  0.00    +0.023 A 
BRANCH   6  15
ATOM     12  N   UNL     1      -3.392  -0.472   1.017  0.00  0.00    -0.297 N 
ATOM     13  C   UNL     1      -3.658  -1.698   0.525  0.00  0.00    +0.304 C 
ATOM     14  O   UNL     1      -4.576  -2.352   0.984  0.00  0.00    -0.253 OA
ATOM     15  N   UNL     1      -2.908  -2.201  -0.475  0.00  0.00    -0.269 N 
ATOM     16  H   UNL     1      -2.660   0.049   0.651  0.00  0.00    +0.151 HD
ATOM     17  H   UNL     1      -2.219  -1.655  -0.886  0.00  0.00    +0.156 HD
BRANCH  12  19
ATOM     18  C   UNL     1      -3.394   1.110   2.882  0.00  0.00    +0.027 C 
ATOM     19  C   UNL     1      -4.208   0.074   2.104  0.00  0.00    +0.068 C 
ATOM     20  C   UNL     1      -5.456   0.739   1.521  0.00  0.00    +0.027 C 
ENDBRANCH  12  19
ENDBRANCH   6  15
ENDBRANCH   5   9
ENDBRANCH   1   5
BRANCH   2  21
ATOM     21  C   UNL     1      -3.762 -10.703  -0.169  0.00  0.00    +0.200 C 
BRANCH  21  22
ATOM     22  N   UNL     1      -3.985 -12.074  -0.635  0.00  0.00    -0.303 N 
ATOM     23  C   UNL     1      -3.949 -13.098   0.241  0.00  0.00    +0.244 C 
ATOM     24  O   UNL     1      -3.731 -12.883   1.417  0.00  0.00    -0.270 OA
ATOM     25  H   UNL     1      -4.160 -12.245  -1.574  0.00  0.00    +0.150 HD
BRANCH  23  26
ATOM     26  C   UNL     1      -4.174 -14.481  -0.229  0.00  0.00    +0.037 A 
ATOM     27  C   UNL     1      -4.419 -14.731  -1.581  0.00  0.00    +0.013 A 
ATOM     28  C   UNL     1      -4.628 -16.024  -2.013  0.00  0.00    +0.013 A 
ATOM     29  C   UNL     1      -4.596 -17.073  -1.110  0.00  0.00    +0.055 A 
ATOM     30  C   UNL     1      -4.354 -16.831   0.231  0.00  0.00    +0.013 A 
ATOM     31  C   UNL     1      -4.137 -15.544   0.675  0.00  0.00    +0.013 A 
BRANCH  29  32
ATOM     32  C   UNL     1      -4.826 -18.483  -1.589  0.00  0.00    +0.417 C 
ATOM     33  F   UNL     1      -3.602 -19.059  -1.946  0.00  0.00    -0.166 F 
ATOM     34  F   UNL     1      -5.413 -19.233  -0.565  0.00  0.00    -0.166 F 
ATOM     35  F   UNL     1      -5.675 -18.465  -2.701  0.00  0.00    -0.166 F 
ENDBRANCH  29  32
ENDBRANCH  23  26
ENDBRANCH  21  22
ENDBRANCH   2  21
TORSDOF 8
