REMARK  Name = ZINC26492763
REMARK  9 active torsions:
REMARK  status: ('A' for Active; 'I' for Inactive)
REMARK    1  A    between atoms: C_1  and  C_2
REMARK    2  A    between atoms: C_4  and  C_24
REMARK    3  A    between atoms: C_6  and  N_8
REMARK    4  A    between atoms: C_9  and  C_11
REMARK    5  A    between atoms: C_11  and  C_13
REMARK    6  A    between atoms: C_11  and  S_14
REMARK    7  A    between atoms: S_14  and  C_15
REMARK    8  A    between atoms: C_18  and  C_22
REMARK    9  A    between atoms: C_19  and  N_21
REMARK                            x       y       z     vdW  Elec       q    Type
REMARK                         _______ _______ _______ _____ _____    ______ ____
ROOT
ATOM      1  C   UNL     1       0.034   1.000   0.140  0.00  0.00    +0.137 C 
ATOM      2  C   UNL     1      -0.763   1.677  -0.977  0.00  0.00    +0.029 C 
ENDROOT
BRANCH   1   4
ATOM      3  N   UNL     1       2.336   1.006  -0.765  0.00  0.00    -0.285 N 
ATOM      4  C   UNL     1       1.453   1.506   0.122  0.00  0.00    +0.230 C 
ATOM      5  O   UNL     1       1.801   2.364   0.906  0.00  0.00    -0.274 OA
ATOM      6  H   UNL     1       2.046   0.169  -1.417  0.00  0.00    +0.155 HD
BRANCH   3  12
ATOM      7  C   UNL     1       7.141   0.397  -1.607  0.00  0.00    +0.044 C 
ATOM      8  C   UNL     1       5.968   1.279  -1.263  0.00  0.00    -0.048 A 
ATOM      9  C   UNL     1       6.162   2.630  -1.038  0.00  0.00    +0.006 A 
ATOM     10  C   UNL     1       5.089   3.442  -0.722  0.00  0.00    -0.048 A 
ATOM     11  C   UNL     1       3.819   2.907  -0.631  0.00  0.00    +0.026 A 
ATOM     12  C   UNL     1       3.621   1.551  -0.857  0.00  0.00    +0.034 A 
ATOM     13  C   UNL     1       4.702   0.737  -1.168  0.00  0.00    +0.026 A 
ATOM     14  C   UNL     1       5.305   4.913  -0.477  0.00  0.00    +0.044 C 
ENDBRANCH   3  12
ENDBRANCH   1   4
BRANCH   1  15
ATOM     15  S   UNL     1      -0.724   1.384   1.738  0.00  0.00    -0.074 S 
BRANCH  15  16
ATOM     16  C   UNL     1      -2.275   0.571   1.545  0.00  0.00    +0.191 A 
ATOM     17  N   UNL     1      -2.530  -0.066   0.408  0.00  0.00    -0.229 NA
ATOM     18  C   UNL     1      -3.677  -0.693   0.221  0.00  0.00    +0.136 A 
ATOM     19  C   UNL     1      -4.638  -0.673   1.237  0.00  0.00    +0.109 A 
ATOM     20  C   UNL     1      -4.332   0.018   2.430  0.00  0.00    +0.138 A 
ATOM     21  N   UNL     1      -3.153   0.618   2.537  0.00  0.00    -0.206 NA
BRANCH  20  22
ATOM     22  N   UNL     1      -5.243   0.070   3.465  0.00  0.00    -0.342 N 
ATOM     23  H   UNL     1      -4.995   0.612   4.390  0.00  0.00    +0.144 HD
ATOM     24  H   UNL     1      -6.218  -0.431   3.366  0.00  0.00    +0.144 HD
ENDBRANCH  20  22
BRANCH  19  25
ATOM     25  C   UNL     1      -5.897  -1.336   1.073  0.00  0.00    +0.104 C 
ATOM     26  N   UNL     1      -6.895  -1.861   0.943  0.00  0.00    -0.191 NA
ENDBRANCH  19  25
ENDBRANCH  15  16
ENDBRANCH   1  15
TORSDOF 6
