REMARK  Name = ZINC43338648
REMARK  8 active torsions:
REMARK  status: ('A' for Active; 'I' for Inactive)
REMARK    1  A    between atoms: C_1  and  C_2
REMARK    2  A    between atoms: C_2  and  C_3
REMARK    3  A    between atoms: C_3  and  C_5
REMARK    4  A    between atoms: C_3  and  N_22
REMARK    5  A    between atoms: C_5  and  C_7
REMARK    6  A    between atoms: C_5  and  S_12
REMARK    7  A    between atoms: S_12  and  C_13
REMARK    8  A    between atoms: C_19  and  N_21
REMARK                            x       y       z     vdW  Elec       q    Type
REMARK                         _______ _______ _______ _____ _____    ______ ____
ROOT
ATOM      1  C   UNL     1      -1.700  -2.121   0.148  0.00  0.00    +0.106 C 
ENDROOT
BRANCH   1   2
ATOM      2  C   UNL     1      -3.075  -2.729   0.258  0.00  0.00    +0.117 A 
ATOM      3  C   UNL     1      -3.650  -3.542  -0.647  0.00  0.00    +0.046 A 
ATOM      4  C   UNL     1      -4.929  -3.873  -0.145  0.00  0.00    +0.041 A 
ATOM      5  C   UNL     1      -5.060  -3.243   1.036  0.00  0.00    +0.195 A 
ATOM      6  O   UNL     1      -3.932  -2.556   1.278  0.00  0.00    -0.467 OA
ENDBRANCH   1   2
BRANCH   1   7
ATOM      7  C   UNL     1      -1.815  -0.595   0.171  0.00  0.00    -0.054 C 
BRANCH   7   8
ATOM      8  N   UNL     1      -2.666  -0.151  -0.941  0.00  0.00    +0.381 N 
ATOM      9  H   UNL     1      -2.257  -0.445  -1.815  0.00  0.00    -0.090 HD
ATOM     10  H   UNL     1      -3.584  -0.559  -0.845  0.00  0.00    -0.090 HD
ATOM     11  H   UNL     1      -2.741   0.855  -0.926  0.00  0.00    -0.090 HD
ENDBRANCH   7   8
BRANCH   7  13
ATOM     12  C   UNL     1      -0.520   1.542   0.179  0.00  0.00    +0.002 C 
ATOM     13  C   UNL     1      -0.422   0.023   0.025  0.00  0.00    -0.018 C 
ENDBRANCH   7  13
ENDBRANCH   1   7
BRANCH   1  14
ATOM     14  S   UNL     1      -0.683  -2.672   1.545  0.00  0.00    -0.078 S 
BRANCH  14  15
ATOM     15  C   UNL     1      -0.472  -4.398   1.264  0.00  0.00    +0.171 A 
ATOM     16  N   UNL     1       0.160  -5.155   2.204  0.00  0.00    -0.302 N 
ATOM     17  H   UNL     1       0.488  -4.742   3.018  0.00  0.00    +0.171 HD
ATOM     18  C   UNL     1       0.330  -6.479   2.006  0.00  0.00    +0.254 A 
ATOM     19  O   UNL     1       0.894  -7.165   2.843  0.00  0.00    -0.268 OA
ATOM     20  C   UNL     1      -0.153  -7.052   0.825  0.00  0.00    +0.113 A 
ATOM     21  C   UNL     1      -0.790  -6.238  -0.101  0.00  0.00    +0.124 A 
ATOM     22  N   UNL     1      -0.934  -4.932   0.152  0.00  0.00    -0.209 NA
BRANCH  21  23
ATOM     23  N   UNL     1      -1.277  -6.774  -1.276  0.00  0.00    -0.343 N 
ATOM     24  H   UNL     1      -1.175  -7.722  -1.456  0.00  0.00    +0.144 HD
ATOM     25  H   UNL     1      -1.722  -6.203  -1.922  0.00  0.00    +0.144 HD
ENDBRANCH  21  23
ENDBRANCH  14  15
ENDBRANCH   1  14
TORSDOF 7
