REMARK  Name = ZINC56154609
REMARK  11 active torsions:
REMARK  status: ('A' for Active; 'I' for Inactive)
REMARK    1  A    between atoms: C_1  and  C_2
REMARK    2  A    between atoms: C_2  and  C_3
REMARK    3  A    between atoms: C_3  and  C_5
REMARK    4  A    between atoms: C_3  and  N_14
REMARK    5  A    between atoms: C_10  and  C_13
REMARK    6  A    between atoms: N_14  and  C_15
REMARK    7  A    between atoms: C_17  and  N_22
REMARK    8  A    between atoms: C_20  and  C_21
REMARK    9  A    between atoms: C_23  and  C_25
REMARK   10  A    between atoms: C_25  and  C_26
REMARK   11  A    between atoms: C_25  and  C_27
REMARK                            x       y       z     vdW  Elec       q    Type
REMARK                         _______ _______ _______ _____ _____    ______ ____
ROOT
ATOM      1  N   UNL     1       1.991   0.121  -0.917  0.00  0.00    -0.333 N 
ATOM      2  H   UNL     1       2.697  -0.519  -0.739  0.00  0.00    +0.147 HD
ENDROOT
BRANCH   1   3
ATOM      3  C   UNL     1       2.298   1.361  -1.482  0.00  0.00    +0.032 A 
ATOM      4  C   UNL     1       1.280   2.233  -1.841  0.00  0.00    +0.046 A 
ATOM      5  C   UNL     1       1.589   3.463  -2.401  0.00  0.00    +0.035 A 
ATOM      6  C   UNL     1       2.917   3.820  -2.601  0.00  0.00    +0.024 A 
ATOM      7  C   UNL     1       3.929   2.950  -2.243  0.00  0.00    +0.007 A 
ATOM      8  C   UNL     1       3.624   1.726  -1.680  0.00  0.00    -0.029 A 
ATOM      9  C   UNL     1       4.731   0.782  -1.285  0.00  0.00    +0.045 C 
BRANCH   5  10
ATOM     10  N   UNL     1       0.565   4.345  -2.765  0.00  0.00    -0.285 N 
ATOM     11  C   UNL     1       0.735   5.673  -2.615  0.00  0.00    +0.220 C 
ATOM     12  O   UNL     1       1.803   6.110  -2.243  0.00  0.00    -0.275 OA
ATOM     13  H   UNL     1      -0.267   4.000  -3.124  0.00  0.00    +0.155 HD
BRANCH  11  14
ATOM     14  C   UNL     1      -0.403   6.616  -2.909  0.00  0.00    +0.069 C 
ATOM     15  C   UNL     1      -1.586   6.290  -1.996  0.00  0.00    +0.017 C 
ATOM     16  C   UNL     1       0.050   8.056  -2.661  0.00  0.00    +0.017 C 
ENDBRANCH  11  14
ENDBRANCH   5  10
ENDBRANCH   1   3
BRANCH   1  17
ATOM     17  C   UNL     1       0.602  -0.212  -0.594  0.00  0.00    +0.157 C 
BRANCH  17  18
ATOM     18  C   UNL     1      -0.065  -0.816  -1.803  0.00  0.00    +0.239 C 
ATOM     19  O   UNL     1       0.559  -0.954  -2.833  0.00  0.00    -0.273 OA
ATOM     20  N   UNL     1      -1.355  -1.202  -1.739  0.00  0.00    -0.266 N 
ATOM     21  C   UNL     1      -1.971  -1.761  -2.859  0.00  0.00    +0.168 A 
ATOM     22  C   UNL     1      -1.367  -1.985  -4.116  0.00  0.00    +0.091 A 
ATOM     23  C   UNL     1      -2.286  -2.537  -4.928  0.00  0.00    +0.136 A 
ATOM     24  O   UNL     1      -3.430  -2.667  -4.239  0.00  0.00    -0.358 OA
ATOM     25  N   UNL     1      -3.210  -2.175  -2.929  0.00  0.00    -0.063 NA
ATOM     26  C   UNL     1      -2.068  -2.940  -6.364  0.00  0.00    +0.089 C 
ATOM     27  H   UNL     1      -1.854  -1.092  -0.915  0.00  0.00    +0.156 HD
ENDBRANCH  17  18
BRANCH  17  29
ATOM     28  C   UNL     1       1.191  -0.582   1.806  0.00  0.00    +0.006 C 
ATOM     29  C   UNL     1       0.573  -1.218   0.559  0.00  0.00    +0.028 C 
ENDBRANCH  17  29
ENDBRANCH   1  17
TORSDOF 6
