REMARK  Name = ZINC15163235
REMARK  4 active torsions:
REMARK  status: ('A' for Active; 'I' for Inactive)
REMARK    1  A    between atoms: C_1  and  C_2
REMARK    2  A    between atoms: C_2  and  C_3
REMARK    3  A    between atoms: C_16  and  C_19
REMARK    4  A    between atoms: C_22  and  N_25
REMARK                            x       y       z     vdW  Elec       q    Type
REMARK                         _______ _______ _______ _____ _____    ______ ____
ROOT
ATOM      1  C   UNL     1       3.544   1.912  -3.152  0.00  0.00    -0.047 A 
ATOM      2  C   UNL     1       3.101   0.739  -3.735  0.00  0.00    +0.005 A 
ATOM      3  C   UNL     1       2.127  -0.018  -3.116  0.00  0.00    +0.023 A 
ATOM      4  C   UNL     1       1.587   0.390  -1.902  0.00  0.00    +0.031 A 
ATOM      5  C   UNL     1       2.049   1.572  -1.312  0.00  0.00    -0.019 A 
ATOM      6  C   UNL     1       3.016   2.325  -1.942  0.00  0.00    +0.009 A 
ATOM      7  C   UNL     1       1.477   1.950  -0.002  0.00  0.00    +0.049 C 
ATOM      8  C   UNL     1       1.422   3.363   0.453  0.00  0.00    -0.023 C 
ATOM      9  C   UNL     1       0.355   3.519   1.226  0.00  0.00    -0.030 C 
ATOM     10  C   UNL     1      -0.418   2.202   1.322  0.00  0.00    +0.033 C 
ATOM     11  C   UNL     1      -0.018   1.514   0.010  0.00  0.00    +0.029 C 
ATOM     12  C   UNL     1       0.002  -0.004   0.002  0.00  0.00    +0.105 C 
ATOM     13  N   UNL     1       0.590  -0.387  -1.300  0.00  0.00    -0.336 N 
ATOM     14  H   UNL     1       0.279  -1.191  -1.745  0.00  0.00    +0.147 HD
ENDROOT
BRANCH  12  15
ATOM     15  C   UNL     1      -1.400  -0.544   0.120  0.00  0.00    -0.027 A 
ATOM     16  C   UNL     1      -2.219  -0.588  -0.993  0.00  0.00    +0.008 A 
ATOM     17  C   UNL     1      -3.504  -1.088  -0.886  0.00  0.00    +0.033 A 
ATOM     18  C   UNL     1      -3.972  -1.535   0.336  0.00  0.00    +0.126 A 
ATOM     19  C   UNL     1      -3.154  -1.487   1.449  0.00  0.00    +0.033 A 
ATOM     20  C   UNL     1      -1.868  -0.992   1.341  0.00  0.00    +0.008 A 
BRANCH  18  21
ATOM     21  N   UNL     1      -5.349  -2.065   0.452  0.00  0.00    +0.056 N 
ATOM     22  O   UNL     1      -5.762  -2.459   1.528  0.00  0.00    -0.126 OA
ATOM     23  O   UNL     1      -6.070  -2.108  -0.529  0.00  0.00    -0.126 OA
ENDBRANCH  18  21
ENDBRANCH  12  15
BRANCH   1  25
ATOM     24  C   UNL     1       3.934   3.756  -4.764  0.00  0.00    +0.009 C 
ATOM     25  C   UNL     1       4.602   2.741  -3.835  0.00  0.00    +0.032 C 
ENDBRANCH   1  25
TORSDOF 3
