REMARK  Name = ZINC44774293
REMARK  4 active torsions:
REMARK  status: ('A' for Active; 'I' for Inactive)
REMARK    1  A    between atoms: C_5  and  C_8
REMARK    2  A    between atoms: C_5  and  C_11
REMARK    3  A    between atoms: C_8  and  N_10
REMARK    4  A    between atoms: C_17  and  C_19
REMARK                            x       y       z     vdW  Elec       q    Type
REMARK                         _______ _______ _______ _____ _____    ______ ____
ROOT
ATOM      1  C   UNL     1       0.102   1.729  -0.437  0.00  0.00    +0.000 C 
ATOM      2  C   UNL     1       1.577   2.177  -0.472  0.00  0.00    +0.000 C 
ATOM      3  C   UNL     1       2.073   2.301   0.943  0.00  0.00    +0.001 C 
ATOM      4  C   UNL     1       2.772   1.020   1.437  0.00  0.00    +0.023 C 
ATOM      5  C   UNL     1       2.038  -0.264   1.009  0.00  0.00    +0.091 C 
ATOM      6  C   UNL     1       0.544  -0.146   1.144  0.00  0.00    +0.023 C 
ATOM      7  C   UNL     1      -0.038   0.297  -0.214  0.00  0.00    +0.001 C 
ENDROOT
BRANCH   5   8
ATOM      8  C   UNL     1       2.375  -0.563  -0.429  0.00  0.00    +0.228 C 
ATOM      9  O   UNL     1       1.608  -1.209  -1.111  0.00  0.00    -0.275 OA
ATOM     10  N   UNL     1       3.530  -0.111  -0.958  0.00  0.00    -0.289 N 
ATOM     11  C   UNL     1       4.622   0.538  -0.210  0.00  0.00    +0.108 C 
ATOM     12  C   UNL     1       5.888   0.297  -1.069  0.00  0.00    +0.021 C 
ATOM     13  C   UNL     1       5.320   0.427  -2.506  0.00  0.00    +0.033 C 
ATOM     14  C   UNL     1       3.911  -0.190  -2.376  0.00  0.00    +0.162 C 
BRANCH  14  15
ATOM     15  C   UNL     1       2.933   0.591  -3.214  0.00  0.00    +0.231 C 
ATOM     16  O   UNL     1       2.002   1.162  -2.686  0.00  0.00    -0.274 OA
ATOM     17  N   UNL     1       3.092   0.654  -4.551  0.00  0.00    -0.328 N 
ATOM     18  H   UNL     1       3.836   0.198  -4.974  0.00  0.00    +0.145 HD
ATOM     19  H   UNL     1       2.462   1.157  -5.091  0.00  0.00    +0.145 HD
ENDBRANCH  14  15
ENDBRANCH   5   8
BRANCH   5  20
ATOM     20  C   UNL     1       2.516  -1.408   1.866  0.00  0.00    +0.061 C 
ATOM     21  S   UNL     1       3.657  -1.165   2.959  0.00  0.00    -0.040 S 
BRANCH  20  22
ATOM     22  N   UNL     1       1.981  -2.635   1.712  0.00  0.00    -0.355 N 
ATOM     23  H   UNL     1       1.354  -2.804   0.991  0.00  0.00    +0.143 HD
ATOM     24  H   UNL     1       2.223  -3.350   2.321  0.00  0.00    +0.143 HD
ENDBRANCH  20  22
ENDBRANCH   5  20
TORSDOF 4
