REMARK  Name = ZINC43163804
REMARK  8 active torsions:
REMARK  status: ('A' for Active; 'I' for Inactive)
REMARK    1  A    between atoms: C_1  and  C_2
REMARK    2  A    between atoms: C_2  and  C_3
REMARK    3  A    between atoms: C_2  and  C_4
REMARK    4  A    between atoms: C_4  and  N_5
REMARK    5  A    between atoms: N_14  and  C1*_17
REMARK    6  A    between atoms: C3*_20  and  O3*_27
REMARK    7  A    between atoms: C4*_22  and  C5*_25
REMARK    8  A    between atoms: C5*_25  and  O5*_26
REMARK                            x       y       z     vdW  Elec       q    Type
REMARK                         _______ _______ _______ _____ _____    ______ ____
ROOT
ATOM      1  N   UNL     1      -1.416  -1.993  -0.116  0.00  0.00    -0.315 N 
ATOM      2  C   UNL     1      -2.596  -2.694  -0.130  0.00  0.00    +0.198 A 
ATOM      3  N   UNL     1      -2.557  -4.052  -0.245  0.00  0.00    -0.293 N 
ATOM      4  H   UNL     1      -1.703  -4.506  -0.315  0.00  0.00    +0.172 HD
ATOM      5  C   UNL     1      -3.703  -4.768  -0.261  0.00  0.00    +0.280 A 
ATOM      6  O   UNL     1      -3.679  -5.983  -0.362  0.00  0.00    -0.265 OA
ATOM      7  C   UNL     1      -4.931  -4.074  -0.157  0.00  0.00    +0.172 A 
ATOM      8  C   UNL     1      -4.904  -2.679  -0.042  0.00  0.00    +0.171 A 
ATOM      9  N   UNL     1      -3.730  -2.038  -0.027  0.00  0.00    -0.196 NA
ATOM     10  N   UNL     1      -6.211  -2.280   0.041  0.00  0.00    -0.288 N 
ATOM     11  C   UNL     1      -6.987  -3.401  -0.023  0.00  0.00    +0.203 A 
ATOM     12  N   UNL     1      -6.232  -4.454  -0.139  0.00  0.00    -0.229 NA
ATOM     13  H   UNL     1      -0.572  -2.463  -0.190  0.00  0.00    +0.149 HD
ENDROOT
BRANCH  10  14
ATOM     14  C1* UNL     1      -6.688  -0.901   0.174  0.00  0.00    +0.225 C 
ATOM     15  C2* UNL     1      -6.832  -0.245  -1.222  0.00  0.00    +0.088 C 
ATOM     16  C3* UNL     1      -7.895   0.849  -0.926  0.00  0.00    +0.150 C 
ATOM     17  C4* UNL     1      -8.783   0.163   0.135  0.00  0.00    +0.175 C 
ATOM     18  O4* UNL     1      -8.010  -0.884   0.737  0.00  0.00    -0.348 OA
BRANCH  16  19
ATOM     19  O3* UNL     1      -8.646   1.159  -2.101  0.00  0.00    -0.389 OA
ATOM     20  H3* UNL     1      -8.114   1.512  -2.827  0.00  0.00    +0.210 HD
ENDBRANCH  16  19
BRANCH  17  21
ATOM     21  C5* UNL     1      -9.197   1.180   1.200  0.00  0.00    +0.190 C 
BRANCH  21  22
ATOM     22  O5* UNL     1     -10.111   0.569   2.112  0.00  0.00    -0.392 OA
ATOM     23  H5* UNL     1     -10.417   1.157   2.817  0.00  0.00    +0.210 HD
ENDBRANCH  21  22
ENDBRANCH  17  21
ENDBRANCH  10  14
BRANCH   1  24
ATOM     24  C   UNL     1      -1.433  -0.534   0.013  0.00  0.00    +0.107 C 
BRANCH  24  26
ATOM     25  C   UNL     1      -0.019   1.526   0.010  0.00  0.00    +0.009 C 
ATOM     26  C   UNL     1       0.002  -0.004   0.002  0.00  0.00    -0.000 C 
ATOM     27  C   UNL     1       0.742  -0.511   1.242  0.00  0.00    +0.009 C 
ENDBRANCH  24  26
ENDBRANCH   1  24
TORSDOF 6
