REMARK  Name = ZINC09331831
REMARK  5 active torsions:
REMARK  status: ('A' for Active; 'I' for Inactive)
REMARK    1  A    between atoms: C_1  and  C_2
REMARK    2  A    between atoms: C_7  and  C_8
REMARK    3  A    between atoms: C_13  and  C_30
REMARK    4  A    between atoms: C_30  and  C_32
REMARK    5  A    between atoms: C_36  and  N_38
REMARK                            x       y       z     vdW  Elec       q    Type
REMARK                         _______ _______ _______ _____ _____    ______ ____
ROOT
ATOM      1  C   UNL     1      -2.089   5.611   6.379  0.00  0.00    +0.044 C 
ATOM      2  C   UNL     1      -2.267   4.908   5.058  0.00  0.00    -0.046 A 
ATOM      3  C   UNL     1      -1.208   4.827   4.173  0.00  0.00    +0.004 A 
ATOM      4  C   UNL     1      -1.371   4.181   2.960  0.00  0.00    +0.005 A 
ATOM      5  C   UNL     1      -2.587   3.622   2.636  0.00  0.00    -0.027 A 
ATOM      6  C   UNL     1      -3.660   3.697   3.519  0.00  0.00    +0.039 A 
ATOM      7  C   UNL     1      -3.487   4.348   4.738  0.00  0.00    -0.026 A 
ATOM      8  C   UNL     1      -4.635   4.442   5.710  0.00  0.00    +0.046 C 
ATOM      9  N   UNL     1      -4.779   3.064   2.974  0.00  0.00    -0.286 N 
ATOM     10  C   UNL     1      -4.529   2.553   1.752  0.00  0.00    +0.212 C 
ATOM     11  O   UNL     1      -5.311   1.954   1.044  0.00  0.00    -0.277 OA
ATOM     12  C   UNL     1      -3.093   2.870   1.438  0.00  0.00    +0.052 C 
ATOM     13  C   UNL     1      -2.981   3.725   0.160  0.00  0.00    +0.080 C 
ATOM     14  C   UNL     1      -2.949   2.640  -0.934  0.00  0.00    +0.071 C 
ATOM     15  C   UNL     1      -2.239   3.122  -2.165  0.00  0.00    -0.012 A 
ATOM     16  C   UNL     1      -0.966   3.590  -2.405  0.00  0.00    +0.006 A 
ATOM     17  C   UNL     1      -0.598   3.971  -3.683  0.00  0.00    +0.000 A 
ATOM     18  C   UNL     1      -1.511   3.880  -4.718  0.00  0.00    +0.002 A 
ATOM     19  C   UNL     1      -2.787   3.410  -4.482  0.00  0.00    +0.023 A 
ATOM     20  C   UNL     1      -3.166   3.026  -3.199  0.00  0.00    +0.038 A 
ATOM     21  N   UNL     1      -4.379   2.529  -2.715  0.00  0.00    -0.285 N 
ATOM     22  C   UNL     1      -4.333   2.278  -1.391  0.00  0.00    +0.227 C 
ATOM     23  O   UNL     1      -5.234   1.845  -0.704  0.00  0.00    -0.275 OA
ATOM     24  C   UNL     1      -2.231   1.455  -0.283  0.00  0.00    -0.046 C 
ATOM     25  C   UNL     1      -0.934   1.813   1.706  0.00  0.00    -0.076 C 
ATOM     26  C   UNL     1      -0.029   1.112   0.663  0.00  0.00    -0.020 C 
ATOM     27  C   UNL     1      -0.738   1.479  -0.667  0.00  0.00    -0.016 C 
ATOM     28  H   UNL     1      -5.637   2.998   3.422  0.00  0.00    +0.155 HD
ATOM     29  H   UNL     1      -5.162   2.382  -3.268  0.00  0.00    +0.155 HD
ATOM     30  N   UNL     1      -2.307   1.659   1.170  0.00  0.00    +0.395 N 
ATOM     31  H   UNL     1      -2.760   0.850   1.613  0.00  0.00    -0.079 HD
ENDROOT
BRANCH  13  32
ATOM     32  C   UNL     1      -1.708   4.531   0.159  0.00  0.00    +0.167 C 
ATOM     33  O   UNL     1      -0.637   3.972   0.261  0.00  0.00    -0.292 OA
BRANCH  32  34
ATOM     34  C   UNL     1      -1.765   5.996   0.033  0.00  0.00    +0.020 A 
ATOM     35  C   UNL     1      -2.999   6.644  -0.085  0.00  0.00    +0.011 A 
ATOM     36  C   UNL     1      -3.044   8.017  -0.202  0.00  0.00    +0.003 A 
ATOM     37  C   UNL     1      -1.873   8.754  -0.202  0.00  0.00    +0.033 A 
ATOM     38  C   UNL     1      -0.648   8.120  -0.086  0.00  0.00    +0.127 A 
ATOM     39  C   UNL     1      -0.586   6.748   0.037  0.00  0.00    +0.044 A 
BRANCH  38  40
ATOM     40  N   UNL     1       0.599   8.918  -0.088  0.00  0.00    +0.056 N 
ATOM     41  O   UNL     1       0.546  10.130  -0.192  0.00  0.00    -0.126 OA
ATOM     42  O   UNL     1       1.678   8.362   0.014  0.00  0.00    -0.126 OA
ENDBRANCH  38  40
ENDBRANCH  32  34
ENDBRANCH  13  32
TORSDOF 3
