REMARK  Name = ZINC40847962
REMARK  7 active torsions:
REMARK  status: ('A' for Active; 'I' for Inactive)
REMARK    1  A    between atoms: C_4  and  S_8
REMARK    2  A    between atoms: C_5  and  O_7
REMARK    3  A    between atoms: S_8  and  C_9
REMARK    4  A    between atoms: C_10  and  C_28
REMARK    5  A    between atoms: C_11  and  C_18
REMARK    6  A    between atoms: C_12  and  C_16
REMARK    7  A    between atoms: C_13  and  N_15
REMARK                            x       y       z     vdW  Elec       q    Type
REMARK                         _______ _______ _______ _____ _____    ______ ____
ROOT
ATOM      1  C   UNL     1       5.144   0.466  -0.196  0.00  0.00    +0.122 A 
ATOM      2  C   UNL     1       6.502   0.133  -0.357  0.00  0.00    +0.093 A 
ATOM      3  C   UNL     1       7.448   1.170  -0.480  0.00  0.00    +0.023 A 
ATOM      4  C   UNL     1       6.984   2.501  -0.435  0.00  0.00    +0.100 A 
ATOM      5  C   UNL     1       5.606   2.736  -0.271  0.00  0.00    +0.136 A 
ATOM      6  N   UNL     1       4.752   1.731  -0.165  0.00  0.00    -0.223 NA
ENDROOT
BRANCH   3   7
ATOM      7  C   UNL     1       8.886   0.872  -0.650  0.00  0.00    -0.012 A 
ATOM      8  C   UNL     1       9.595   0.235   0.370  0.00  0.00    +0.012 A 
ATOM      9  C   UNL     1      10.935  -0.041   0.209  0.00  0.00    +0.050 A 
ATOM     10  C   UNL     1      11.587   0.312  -0.966  0.00  0.00    +0.162 A 
ATOM     11  C   UNL     1      10.885   0.946  -1.988  0.00  0.00    +0.163 A 
ATOM     12  C   UNL     1       9.538   1.221  -1.834  0.00  0.00    +0.058 A 
ATOM     13  O   UNL     1      11.507   1.291  -3.149  0.00  0.00    -0.485 OA
ATOM     14  C   UNL     1      12.938   1.330  -3.126  0.00  0.00    +0.270 C 
ATOM     15  C   UNL     1      13.442   0.059  -2.431  0.00  0.00    +0.270 C 
ATOM     16  O   UNL     1      12.911   0.034  -1.101  0.00  0.00    -0.485 OA
ENDBRANCH   3   7
BRANCH   5  17
ATOM     17  N   UNL     1       5.138   4.034  -0.226  0.00  0.00    -0.342 N 
ATOM     18  H   UNL     1       5.758   4.776  -0.307  0.00  0.00    +0.144 HD
ATOM     19  H   UNL     1       4.190   4.205  -0.113  0.00  0.00    +0.144 HD
ENDBRANCH   5  17
BRANCH   4  20
ATOM     20  C   UNL     1       7.899   3.595  -0.554  0.00  0.00    +0.103 C 
ATOM     21  N   UNL     1       8.626   4.464  -0.649  0.00  0.00    -0.191 NA
ENDBRANCH   4  20
BRANCH   2  22
ATOM     22  C   UNL     1       6.916  -1.237  -0.395  0.00  0.00    +0.102 C 
ATOM     23  N   UNL     1       7.244  -2.324  -0.425  0.00  0.00    -0.191 NA
ENDBRANCH   2  22
BRANCH   1  24
ATOM     24  S   UNL     1       3.947  -0.818  -0.042  0.00  0.00    -0.065 S 
BRANCH  24  28
ATOM     25  C   UNL     1      -0.016   1.379   0.021  0.00  0.00    +0.004 A 
ATOM     26  C   UNL     1       0.510   0.867   1.193  0.00  0.00    +0.001 A 
ATOM     27  C   UNL     1       1.718   0.197   1.177  0.00  0.00    +0.019 A 
ATOM     28  C   UNL     1       2.406   0.036  -0.018  0.00  0.00    +0.056 A 
ATOM     29  C   UNL     1       1.875   0.552  -1.198  0.00  0.00    +0.131 A 
ATOM     30  C   UNL     1       0.663   1.223  -1.173  0.00  0.00    +0.046 A 
BRANCH  29  31
ATOM     31  O   UNL     1       2.544   0.398  -2.372  0.00  0.00    -0.506 OA
ATOM     32  H   UNL     1       2.313  -0.409  -2.853  0.00  0.00    +0.292 HD
ENDBRANCH  29  31
ENDBRANCH  24  28
ENDBRANCH   1  24
TORSDOF 7
