REMARK  Name = ZINC59501514
REMARK  8 active torsions:
REMARK  status: ('A' for Active; 'I' for Inactive)
REMARK    1  A    between atoms: C_1  and  C_2
REMARK    2  A    between atoms: C_7  and  C_8
REMARK    3  A    between atoms: N_10  and  C_12
REMARK    4  A    between atoms: C_15  and  C_18
REMARK    5  A    between atoms: N_20  and  N_21
REMARK    6  A    between atoms: C_22  and  C_23
REMARK    7  A    between atoms: C_26  and  O_30
REMARK    8  A    between atoms: C_27  and  O_29
REMARK                            x       y       z     vdW  Elec       q    Type
REMARK                         _______ _______ _______ _____ _____    ______ ____
ROOT
ATOM      1  C   UNL     1       0.068  -5.607  -2.476  0.00  0.00    +0.030 A 
ATOM      2  C   UNL     1       0.082  -6.816  -1.785  0.00  0.00    +0.024 A 
ATOM      3  C   UNL     1       0.095  -8.005  -2.477  0.00  0.00    +0.015 A 
ATOM      4  C   UNL     1       0.093  -7.998  -3.876  0.00  0.00    +0.038 A 
ATOM      5  C   UNL     1       0.079  -6.783  -4.566  0.00  0.00    +0.015 A 
ATOM      6  C   UNL     1       0.061  -5.597  -3.868  0.00  0.00    +0.024 A 
ENDROOT
BRANCH   1  16
ATOM      7  C   UNL     1      -0.018   1.503   0.010  0.00  0.00    +0.044 C 
ATOM      8  C   UNL     1       0.002  -0.004   0.002  0.00  0.00    -0.047 A 
ATOM      9  C   UNL     1       0.006  -0.689  -1.198  0.00  0.00    +0.009 A 
ATOM     10  C   UNL     1       0.025  -2.073  -1.208  0.00  0.00    -0.025 A 
ATOM     11  C   UNL     1       0.040  -2.770  -0.016  0.00  0.00    -0.025 A 
ATOM     12  C   UNL     1       0.037  -2.084   1.186  0.00  0.00    +0.009 A 
ATOM     13  C   UNL     1       0.023  -0.702   1.195  0.00  0.00    -0.047 A 
ATOM     14  C   UNL     1       0.025   0.044   2.505  0.00  0.00    +0.044 C 
ATOM     15  C   UNL     1       0.059  -4.247  -0.316  0.00  0.00    +0.141 C 
ATOM     16  N   UNL     1       0.054  -4.407  -1.774  0.00  0.00    -0.321 N 
ATOM     17  C   UNL     1       0.033  -3.058  -2.349  0.00  0.00    +0.141 C 
ENDBRANCH   1  16
BRANCH   4  18
ATOM     18  C   UNL     1       0.107  -9.271  -4.620  0.00  0.00    +0.263 C 
ATOM     19  O   UNL     1       0.120 -10.328  -4.018  0.00  0.00    -0.268 OA
ATOM     20  N   UNL     1       0.106  -9.263  -5.968  0.00  0.00    -0.203 N 
ATOM     21  H   UNL     1       0.095  -8.421  -6.448  0.00  0.00    +0.178 HD
BRANCH  20  22
ATOM     22  N   UNL     1       0.119 -10.473  -6.676  0.00  0.00    -0.187 NA
ATOM     23  C   UNL     1       0.117 -10.465  -7.974  0.00  0.00    +0.138 C 
BRANCH  23  24
ATOM     24  C   UNL     1       0.132 -11.737  -8.718  0.00  0.00    -0.002 A 
ATOM     25  C   UNL     1       0.141 -12.952  -8.028  0.00  0.00    +0.013 A 
ATOM     26  C   UNL     1       0.154 -14.141  -8.727  0.00  0.00    +0.050 A 
ATOM     27  C   UNL     1       0.158 -14.135 -10.114  0.00  0.00    +0.158 A 
ATOM     28  C   UNL     1       0.149 -12.927 -10.809  0.00  0.00    +0.159 A 
ATOM     29  C   UNL     1       0.130 -11.731 -10.116  0.00  0.00    +0.058 A 
BRANCH  28  30
ATOM     30  O   UNL     1       0.154 -12.925 -12.169  0.00  0.00    -0.503 OA
ATOM     31  H   UNL     1      -0.728 -12.932 -12.565  0.00  0.00    +0.292 HD
ENDBRANCH  28  30
BRANCH  27  32
ATOM     32  O   UNL     1       0.172 -15.310 -10.798  0.00  0.00    -0.503 OA
ATOM     33  H   UNL     1      -0.708 -15.658 -10.998  0.00  0.00    +0.292 HD
ENDBRANCH  27  32
ENDBRANCH  23  24
ENDBRANCH  20  22
ENDBRANCH   4  18
TORSDOF 6
