REMARK  Name = ZINC04085567
REMARK  8 active torsions:
REMARK  status: ('A' for Active; 'I' for Inactive)
REMARK    1  A    between atoms: C_1  and  C_2
REMARK    2  A    between atoms: C_3  and  C_28
REMARK    3  A    between atoms: C_9  and  C_27
REMARK    4  A    between atoms: C_10  and  C_16
REMARK    5  A    between atoms: C_16  and  C_17
REMARK    6  A    between atoms: N_19  and  C_20
REMARK    7  A    between atoms: C_20  and  C_21
REMARK    8  A    between atoms: C_21  and  N_55
REMARK                            x       y       z     vdW  Elec       q    Type
REMARK                         _______ _______ _______ _____ _____    ______ ____
ROOT
ATOM      1  C   UNL     1      -6.355  -2.523   4.733  0.00  0.00    +0.048 C 
ATOM      2  C   UNL     1      -6.475  -2.612   3.233  0.00  0.00    -0.002 A 
ATOM      3  C   UNL     1      -7.338  -3.365   2.539  0.00  0.00    +0.106 A 
ATOM      4  O   UNL     1      -7.152  -3.188   1.219  0.00  0.00    -0.460 OA
ATOM      5  C   UNL     1      -6.157  -2.309   0.984  0.00  0.00    +0.139 A 
ATOM      6  C   UNL     1      -5.668  -1.891   2.239  0.00  0.00    +0.024 A 
ATOM      7  C   UNL     1      -4.628  -0.977   2.320  0.00  0.00    +0.023 A 
ATOM      8  C   UNL     1      -4.068  -0.473   1.145  0.00  0.00    +0.022 A 
ATOM      9  C   UNL     1      -2.967   0.494   1.193  0.00  0.00    -0.029 A 
ATOM     10  C   UNL     1      -2.462   0.950   0.019  0.00  0.00    +0.049 A 
ATOM     11  C   UNL     1      -3.003   0.494  -1.202  0.00  0.00    +0.341 A 
ATOM     12  O   UNL     1      -2.543   0.915  -2.248  0.00  0.00    -0.245 OA
ATOM     13  O   UNL     1      -4.006  -0.396  -1.241  0.00  0.00    -0.422 OA
ATOM     14  C   UNL     1      -4.557  -0.891  -0.110  0.00  0.00    +0.143 A 
ATOM     15  C   UNL     1      -5.596  -1.803  -0.179  0.00  0.00    +0.093 A 
ATOM     16  C   UNL     1      -2.412   0.970   2.511  0.00  0.00    +0.045 C 
ATOM     17  C   UNL     1      -8.368  -4.279   3.150  0.00  0.00    +0.086 C 
ENDROOT
BRANCH  10  18
ATOM     18  C   UNL     1      -1.330   1.944   0.019  0.00  0.00    +0.138 C 
BRANCH  18  19
ATOM     19  C   UNL     1      -0.014   1.209   0.009  0.00  0.00    +0.218 C 
ATOM     20  O   UNL     1       0.002  -0.004   0.002  0.00  0.00    -0.275 OA
ATOM     21  N   UNL     1       1.143   1.898   0.001  0.00  0.00    -0.317 N 
ATOM     22  H   UNL     1       1.130   2.868   0.007  0.00  0.00    +0.149 HD
BRANCH  21  23
ATOM     23  C   UNL     1       2.422   1.183  -0.015  0.00  0.00    +0.085 C 
BRANCH  23  24
ATOM     24  C   UNL     1       3.571   2.193  -0.020  0.00  0.00    -0.060 C 
BRANCH  24  30
ATOM     25  C   UNL     1       5.056   0.732   1.215  0.00  0.00    -0.050 C 
ATOM     26  C   UNL     1       6.372  -0.046   1.132  0.00  0.00    +0.141 C 
ATOM     27  O   UNL     1       7.442   0.864   0.863  0.00  0.00    -0.383 OA
ATOM     28  C   UNL     1       7.277   1.605  -0.349  0.00  0.00    +0.141 C 
ATOM     29  C   UNL     1       5.971   2.400  -0.280  0.00  0.00    -0.050 C 
ATOM     30  N   UNL     1       4.854   1.458  -0.056  0.00  0.00    +0.384 N 
ATOM     31  H   UNL     1       4.828   0.780  -0.827  0.00  0.00    -0.082 HD
ENDBRANCH  24  30
ENDBRANCH  23  24
ENDBRANCH  21  23
ENDBRANCH  18  19
ENDBRANCH  10  18
TORSDOF 5
