REMARK  Name = ZINC25406251
REMARK  6 active torsions:
REMARK  status: ('A' for Active; 'I' for Inactive)
REMARK    1  A    between atoms: C_1  and  C_2
REMARK    2  A    between atoms: C_4  and  N_24
REMARK    3  A    between atoms: C_7  and  N_8
REMARK    4  A    between atoms: C_9  and  C_11
REMARK    5  A    between atoms: C_11  and  C_13
REMARK    6  A    between atoms: C_11  and  N_14
REMARK                            x       y       z     vdW  Elec       q    Type
REMARK                         _______ _______ _______ _____ _____    ______ ____
ROOT
ATOM      1  N   UNL     1       2.444   1.107  -0.206  0.00  0.00    -0.284 N 
ATOM      2  C   UNL     1       2.457  -0.239  -0.124  0.00  0.00    +0.237 C 
ATOM      3  O   UNL     1       1.433  -0.867  -0.293  0.00  0.00    -0.273 OA
ATOM      4  H   UNL     1       3.386   1.671  -0.141  0.00  0.00    +0.155 HD
ENDROOT
BRANCH   1  11
ATOM      5  C   UNL     1       2.504   3.688  -1.401  0.00  0.00    +0.046 C 
ATOM      6  C   UNL     1       1.216   3.048  -0.951  0.00  0.00    -0.027 A 
ATOM      7  C   UNL     1       0.018   3.716  -1.114  0.00  0.00    +0.038 A 
ATOM      8  C   UNL     1      -1.164   3.129  -0.702  0.00  0.00    +0.127 A 
ATOM      9  C   UNL     1      -1.152   1.869  -0.131  0.00  0.00    +0.034 A 
ATOM     10  C   UNL     1       0.043   1.199   0.040  0.00  0.00    +0.026 A 
ATOM     11  C   UNL     1       1.232   1.786  -0.373  0.00  0.00    +0.036 A 
BRANCH   8  12
ATOM     12  N   UNL     1      -2.446   3.847  -0.879  0.00  0.00    +0.056 N 
ATOM     13  O   UNL     1      -2.459   4.954  -1.387  0.00  0.00    -0.126 OA
ATOM     14  O   UNL     1      -3.488   3.331  -0.517  0.00  0.00    -0.126 OA
ENDBRANCH   8  12
ENDBRANCH   1  11
BRANCH   2  15
ATOM     15  C   UNL     1       3.744  -0.963   0.178  0.00  0.00    +0.157 C 
ATOM     16  C   UNL     1       4.246  -0.555   1.564  0.00  0.00    +0.038 C 
BRANCH  15  17
ATOM     17  N   UNL     1       3.508  -2.413   0.149  0.00  0.00    -0.318 N 
ATOM     18  C   UNL     1       2.566  -2.811   1.196  0.00  0.00    +0.106 C 
ATOM     19  C   UNL     1       2.381  -4.333   1.137  0.00  0.00    +0.024 C 
ATOM     20  C   UNL     1       3.696  -4.984   1.570  0.00  0.00    +0.038 C 
ATOM     21  C   UNL     1       4.848  -4.329   0.850  0.00  0.00    -0.026 A 
ATOM     22  C   UNL     1       4.711  -3.115   0.199  0.00  0.00    +0.034 A 
ATOM     23  C   UNL     1       5.816  -2.555  -0.445  0.00  0.00    +0.023 A 
ATOM     24  C   UNL     1       7.032  -3.204  -0.437  0.00  0.00    +0.002 A 
ATOM     25  C   UNL     1       7.162  -4.419   0.211  0.00  0.00    +0.000 A 
ATOM     26  C   UNL     1       6.073  -4.977   0.851  0.00  0.00    +0.005 A 
ENDBRANCH  15  17
ENDBRANCH   2  15
TORSDOF 4
