REMARK  Name = ZINC39669979
REMARK  8 active torsions:
REMARK  status: ('A' for Active; 'I' for Inactive)
REMARK    1  A    between atoms: C_1  and  C_2
REMARK    2  A    between atoms: C_6  and  C_7
REMARK    3  A    between atoms: C_11  and  C_20
REMARK    4  A    between atoms: N_22  and  C_23
REMARK    5  A    between atoms: C_23  and  C_24
REMARK    6  A    between atoms: C_24  and  C_25
REMARK    7  A    between atoms: C_31  and  O_35
REMARK    8  A    between atoms: O_35  and  C_36
REMARK                            x       y       z     vdW  Elec       q    Type
REMARK                         _______ _______ _______ _____ _____    ______ ____
ROOT
ATOM      1  C   UNL     1       0.032  -0.278   2.568  0.00  0.00    +0.254 C 
ATOM      2  O   UNL     1       0.122   0.910   2.814  0.00  0.00    -0.269 OA
ATOM      3  N   UNL     1      -0.049  -1.170   3.575  0.00  0.00    -0.296 N 
ATOM      4  C   UNL     1      -0.041  -2.649   3.480  0.00  0.00    +0.121 C 
ATOM      5  C   UNL     1       0.813  -3.113   4.682  0.00  0.00    +0.100 C 
ATOM      6  C   UNL     1       0.726  -1.958   5.694  0.00  0.00    -0.004 C 
ATOM      7  C   UNL     1      -0.159  -0.894   5.027  0.00  0.00    +0.115 C 
ATOM      8  C   UNL     1       2.114  -1.386   5.964  0.00  0.00    -0.010 C 
ATOM      9  C   UNL     1       2.009  -0.278   7.015  0.00  0.00    -0.082 C 
ATOM     10  N   UNL     1       1.434  -0.825   8.250  0.00  0.00    +0.379 N 
ATOM     11  C   UNL     1       0.063  -1.288   8.002  0.00  0.00    -0.082 C 
ATOM     12  C   UNL     1       0.086  -2.439   6.992  0.00  0.00    -0.010 C 
ATOM     13  H   UNL     1       1.997  -1.600   8.567  0.00  0.00    -0.086 HD
ATOM     14  H   UNL     1       1.422  -0.108   8.960  0.00  0.00    -0.086 HD
ENDROOT
BRANCH   1  20
ATOM     15  C   UNL     1      -0.011   1.515   0.021  0.00  0.00    +0.045 C 
ATOM     16  C   UNL     1      -0.009   0.008   0.009  0.00  0.00    -0.031 A 
ATOM     17  C   UNL     1      -0.020  -0.713  -1.161  0.00  0.00    +0.011 A 
ATOM     18  C   UNL     1      -0.016  -2.068  -1.100  0.00  0.00    +0.046 A 
ATOM     19  S   UNL     1       0.003  -2.406   0.545  0.00  0.00    -0.092 S 
ATOM     20  C   UNL     1       0.011  -0.739   1.177  0.00  0.00    +0.077 A 
ENDBRANCH   1  20
BRANCH   5  21
ATOM     21  C   UNL     1       2.241  -3.334   4.257  0.00  0.00    +0.218 C 
ATOM     22  O   UNL     1       2.739  -2.622   3.410  0.00  0.00    -0.275 OA
ATOM     23  N   UNL     1       2.966  -4.323   4.816  0.00  0.00    -0.315 N 
ATOM     24  H   UNL     1       2.567  -4.892   5.494  0.00  0.00    +0.149 HD
BRANCH  23  25
ATOM     25  C   UNL     1       4.354  -4.538   4.403  0.00  0.00    +0.112 C 
BRANCH  25  26
ATOM     26  C   UNL     1       4.944  -5.713   5.186  0.00  0.00    +0.093 C 
BRANCH  26  27
ATOM     27  C   UNL     1       6.372  -5.935   4.761  0.00  0.00    +0.110 A 
ATOM     28  H   UNL     1       7.420  -5.834   6.564  0.00  0.00    +0.167 HD
ATOM     29  N   UNL     1       6.763  -6.128   3.535  0.00  0.00    -0.232 NA
ATOM     30  C   UNL     1       8.112  -6.292   3.506  0.00  0.00    +0.089 A 
ATOM     31  C   UNL     1       9.031  -6.524   2.480  0.00  0.00    +0.033 A 
ATOM     32  C   UNL     1      10.360  -6.648   2.770  0.00  0.00    +0.048 A 
ATOM     33  C   UNL     1      10.812  -6.545   4.083  0.00  0.00    +0.122 A 
ATOM     34  C   UNL     1       9.918  -6.316   5.113  0.00  0.00    +0.073 A 
ATOM     35  C   UNL     1       8.565  -6.188   4.833  0.00  0.00    +0.070 A 
ATOM     36  N   UNL     1       7.442  -5.956   5.602  0.00  0.00    -0.342 N 
BRANCH  33  37
ATOM     37  O   UNL     1      12.138  -6.671   4.353  0.00  0.00    -0.495 OA
ATOM     38  C   UNL     1      13.007  -6.907   3.244  0.00  0.00    +0.277 C 
ENDBRANCH  33  37
ENDBRANCH  26  27
ENDBRANCH  25  26
ENDBRANCH  23  25
ENDBRANCH   5  21
TORSDOF 6
