REMARK  Name = ZINC39940434
REMARK  8 active torsions:
REMARK  status: ('A' for Active; 'I' for Inactive)
REMARK    1  A    between atoms: C_1  and  C_2
REMARK    2  A    between atoms: C_3  and  C_18
REMARK    3  A    between atoms: N_5  and  C_12
REMARK    4  A    between atoms: C_8  and  C_10
REMARK    5  A    between atoms: N_20  and  N_21
REMARK    6  A    between atoms: C_22  and  C_23
REMARK    7  A    between atoms: C_28  and  O_35
REMARK    8  A    between atoms: O_35  and  C_36
REMARK                            x       y       z     vdW  Elec       q    Type
REMARK                         _______ _______ _______ _____ _____    ______ ____
ROOT
ATOM      1  C   UNL     1       0.816  -0.120  -2.429  0.00  0.00    +0.279 C 
ATOM      2  O   UNL     1       0.931   1.090  -2.483  0.00  0.00    -0.267 OA
ATOM      3  N   UNL     1       1.058  -0.870  -3.522  0.00  0.00    -0.202 N 
ATOM      4  H   UNL     1       0.965  -1.834  -3.479  0.00  0.00    +0.178 HD
ENDROOT
BRANCH   1   7
ATOM      5  C   UNL     1       0.051   1.484  -0.276  0.00  0.00    +0.043 C 
ATOM      6  C   UNL     1       0.046  -0.016  -0.130  0.00  0.00    -0.020 C 
ATOM      7  C   UNL     1       0.410  -0.766  -1.166  0.00  0.00    +0.109 C 
ATOM      8  N   UNL     1       0.412  -2.161  -1.070  0.00  0.00    -0.253 N 
ATOM      9  N   UNL     1      -0.299  -2.783  -0.036  0.00  0.00    -0.189 N 
ATOM     10  C   UNL     1      -0.697  -2.074   1.034  0.00  0.00    +0.257 C 
ATOM     11  O   UNL     1      -1.336  -2.627   1.905  0.00  0.00    -0.272 OA
ATOM     12  C   UNL     1      -0.364  -0.616   1.183  0.00  0.00    +0.207 C 
ATOM     13  H   UNL     1       0.903  -2.694  -1.715  0.00  0.00    +0.171 HD
BRANCH   9  14
ATOM     14  C   UNL     1      -0.597  -4.147  -0.118  0.00  0.00    +0.056 A 
ATOM     15  C   UNL     1      -1.146  -4.671  -1.281  0.00  0.00    +0.025 A 
ATOM     16  C   UNL     1      -1.438  -6.019  -1.359  0.00  0.00    +0.002 A 
ATOM     17  C   UNL     1      -1.186  -6.846  -0.280  0.00  0.00    +0.000 A 
ATOM     18  C   UNL     1      -0.639  -6.328   0.880  0.00  0.00    +0.002 A 
ATOM     19  C   UNL     1      -0.339  -4.982   0.962  0.00  0.00    +0.025 A 
ENDBRANCH   9  14
BRANCH  12  20
ATOM     20  C   UNL     1       0.737  -0.464   2.148  0.00  0.00    +0.080 C 
ATOM     21  N   UNL     1       1.587  -0.346   2.892  0.00  0.00    -0.195 NA
ENDBRANCH  12  20
ENDBRANCH   1   7
BRANCH   3  22
ATOM     22  N   UNL     1       1.442  -0.256  -4.721  0.00  0.00    -0.191 NA
ATOM     23  C   UNL     1       1.672  -0.969  -5.760  0.00  0.00    +0.120 C 
BRANCH  23  24
ATOM     24  C   UNL     1       2.086  -0.309  -7.050  0.00  0.00    +0.141 C 
ATOM     25  C   UNL     1       1.001  -0.572  -8.076  0.00  0.00    +0.001 C 
ATOM     26  C   UNL     1       1.367  -1.211  -9.223  0.00  0.00    -0.003 A 
ATOM     27  C   UNL     1       0.383  -1.504 -10.265  0.00  0.00    +0.055 A 
ATOM     28  C   UNL     1       0.794  -2.145 -11.394  0.00  0.00    +0.121 A 
ATOM     29  C   UNL     1       2.130  -2.522 -11.570  0.00  0.00    +0.047 A 
ATOM     30  C   UNL     1       3.088  -2.277 -10.640  0.00  0.00    +0.027 A 
ATOM     31  C   UNL     1       2.766  -1.621  -9.437  0.00  0.00    +0.041 A 
ATOM     32  N   UNL     1       3.717  -1.387  -8.532  0.00  0.00    -0.284 N 
ATOM     33  C   UNL     1       3.485  -0.777  -7.383  0.00  0.00    +0.229 C 
ATOM     34  O   UNL     1       4.394  -0.592  -6.596  0.00  0.00    -0.274 OA
ATOM     35  H   UNL     1       4.622  -1.679  -8.726  0.00  0.00    +0.155 HD
BRANCH  28  36
ATOM     36  O   UNL     1      -0.112  -2.423 -12.370  0.00  0.00    -0.495 OA
ATOM     37  C   UNL     1       0.374  -3.096 -13.533  0.00  0.00    +0.277 C 
ENDBRANCH  28  36
ENDBRANCH  23  24
ENDBRANCH   3  22
TORSDOF 6
