REMARK  Name = ZINC67253303
REMARK  8 active torsions:
REMARK  status: ('A' for Active; 'I' for Inactive)
REMARK    1  A    between atoms: C_3  and  O_23
REMARK    2  A    between atoms: C_6  and  C_7
REMARK    3  A    between atoms: C_7  and  N_8
REMARK    4  A    between atoms: N_8  and  C_9
REMARK    5  A    between atoms: C_9  and  C_10
REMARK    6  A    between atoms: N_14  and  C_16
REMARK    7  A    between atoms: O_23  and  C_24
REMARK    8  A    between atoms: C_24  and  C_25
REMARK                            x       y       z     vdW  Elec       q    Type
REMARK                         _______ _______ _______ _____ _____    ______ ____
ROOT
ATOM      1  N   UNL     1      -1.728  -1.017  -1.371  0.00  0.00    +0.382 N 
ATOM      2  H   UNL     1      -1.864  -0.134  -1.841  0.00  0.00    -0.085 HD
ATOM      3  H   UNL     1      -1.023  -1.550  -1.857  0.00  0.00    -0.085 HD
ENDROOT
BRANCH   1   4
ATOM      4  C   UNL     1      -1.293  -0.774   0.011  0.00  0.00    -0.047 C 
BRANCH   4  10
ATOM      5  C   UNL     1      -0.017   1.378   0.010  0.00  0.00    +0.005 A 
ATOM      6  C   UNL     1       1.169   2.087   0.002  0.00  0.00    +0.046 A 
ATOM      7  C   UNL     1       2.380   1.409  -0.013  0.00  0.00    +0.121 A 
ATOM      8  C   UNL     1       2.396   0.022  -0.021  0.00  0.00    +0.046 A 
ATOM      9  C   UNL     1       1.207  -0.681  -0.013  0.00  0.00    +0.005 A 
ATOM     10  C   UNL     1       0.002  -0.004   0.002  0.00  0.00    -0.064 A 
BRANCH   7  11
ATOM     11  O   UNL     1       3.548   2.104  -0.021  0.00  0.00    -0.483 OA
BRANCH  11  12
ATOM     12  C   UNL     1       4.756   1.341  -0.036  0.00  0.00    +0.324 C 
BRANCH  12  13
ATOM     13  C   UNL     1       5.940   2.274  -0.043  0.00  0.00    +0.248 C 
ATOM     14  O   UNL     1       5.766   3.474  -0.036  0.00  0.00    -0.272 OA
ATOM     15  N   UNL     1       7.192   1.774  -0.058  0.00  0.00    -0.327 N 
ATOM     16  H   UNL     1       7.331   0.814  -0.064  0.00  0.00    +0.145 HD
ATOM     17  H   UNL     1       7.953   2.375  -0.062  0.00  0.00    +0.145 HD
ENDBRANCH  12  13
ENDBRANCH  11  12
ENDBRANCH   7  11
ENDBRANCH   4  10
ENDBRANCH   1   4
BRANCH   1  18
ATOM     18  C   UNL     1      -2.991  -1.767  -1.363  0.00  0.00    -0.077 C 
BRANCH  18  19
ATOM     19  C   UNL     1      -3.443  -2.020  -2.802  0.00  0.00    -0.009 C 
ATOM     20  C   UNL     1      -2.492  -3.021  -3.509  0.00  0.00    +0.022 C 
ATOM     21  C   UNL     1      -3.428  -3.639  -4.578  0.00  0.00    +0.105 C 
ATOM     22  N   UNL     1      -4.740  -3.744  -3.914  0.00  0.00    -0.330 N 
ATOM     23  C   UNL     1      -4.802  -2.752  -2.827  0.00  0.00    +0.106 C 
BRANCH  22  24
ATOM     24  C   UNL     1      -5.760  -4.636  -4.261  0.00  0.00    +0.030 A 
ATOM     25  C   UNL     1      -6.957  -4.631  -3.558  0.00  0.00    +0.026 A 
ATOM     26  C   UNL     1      -7.963  -5.513  -3.903  0.00  0.00    +0.040 A 
ATOM     27  C   UNL     1      -7.778  -6.400  -4.950  0.00  0.00    +0.124 A 
ATOM     28  C   UNL     1      -6.585  -6.407  -5.653  0.00  0.00    +0.040 A 
ATOM     29  C   UNL     1      -5.578  -5.524  -5.314  0.00  0.00    +0.026 A 
ATOM     30  F   UNL     1      -8.763  -7.262  -5.285  0.00  0.00    -0.205 F 
ENDBRANCH  22  24
ENDBRANCH  18  19
ENDBRANCH   1  18
TORSDOF 8
