REMARK  Name = ZINC35746414
REMARK  11 active torsions:
REMARK  status: ('A' for Active; 'I' for Inactive)
REMARK    1  A    between atoms: C_1  and  C_2
REMARK    2  A    between atoms: C_5  and  C_9
REMARK    3  A    between atoms: C_6  and  C_8
REMARK    4  A    between atoms: C_18  and  C_20
REMARK    5  A    between atoms: C_20  and  N_21
REMARK    6  A    between atoms: N_21  and  C_22
REMARK    7  A    between atoms: N_21  and  C_27
REMARK    8  A    between atoms: C_22  and  C_23
REMARK    9  A    between atoms: C_23  and  C_24
REMARK   10  A    between atoms: C_23  and  C_25
REMARK   11  A    between atoms: C_23  and  O_26
REMARK                            x       y       z     vdW  Elec       q    Type
REMARK                         _______ _______ _______ _____ _____    ______ ____
ROOT
ATOM      1  C   UNL     1       0.196  -4.356  -0.009  0.00  0.00    +0.004 A 
ATOM      2  C   UNL     1       1.264  -5.059  -0.456  0.00  0.00    +0.056 A 
ATOM      3  S   UNL     1       0.743  -6.755  -0.285  0.00  0.00    -0.076 S 
ATOM      4  C   UNL     1      -0.881  -6.484   0.376  0.00  0.00    +0.116 A 
ATOM      5  C   UNL     1      -0.979  -5.085   0.455  0.00  0.00    +0.080 A 
ATOM      6  C   UNL     1      -2.214  -4.579   0.971  0.00  0.00    +0.260 A 
ATOM      7  O   UNL     1      -2.396  -3.377   1.073  0.00  0.00    -0.267 OA
ATOM      8  N   UNL     1      -3.172  -5.448   1.342  0.00  0.00    -0.312 N 
ATOM      9  H   UNL     1      -4.011  -5.111   1.693  0.00  0.00    +0.170 HD
ATOM     10  C   UNL     1      -2.987  -6.789   1.235  0.00  0.00    +0.094 A 
ATOM     11  N   UNL     1      -1.875  -7.281   0.758  0.00  0.00    -0.229 NA
ENDROOT
BRANCH   1  16
ATOM     12  C   UNL     1       0.299   1.400   0.082  0.00  0.00    +0.044 C 
ATOM     13  C   UNL     1       0.273  -0.107   0.058  0.00  0.00    -0.050 A 
ATOM     14  C   UNL     1       0.318  -0.778  -1.151  0.00  0.00    +0.004 A 
ATOM     15  C   UNL     1       0.294  -2.157  -1.179  0.00  0.00    +0.009 A 
ATOM     16  C   UNL     1       0.223  -2.875   0.015  0.00  0.00    -0.014 A 
ATOM     17  C   UNL     1       0.177  -2.193   1.230  0.00  0.00    -0.042 A 
ATOM     18  C   UNL     1       0.208  -0.813   1.246  0.00  0.00    +0.007 A 
ATOM     19  C   UNL     1       0.100  -2.961   2.524  0.00  0.00    +0.044 C 
ENDBRANCH   1  16
BRANCH  10  20
ATOM     20  C   UNL     1      -4.088  -7.725   1.663  0.00  0.00    -0.003 C 
BRANCH  20  21
ATOM     21  N   UNL     1      -3.611  -9.112   1.580  0.00  0.00    +0.388 N 
ATOM     22  H   UNL     1      -3.242  -9.286   0.657  0.00  0.00    -0.081 HD
BRANCH  21  23
ATOM     23  C   UNL     1      -4.728 -10.030   1.841  0.00  0.00    -0.068 C 
ATOM     24  C   UNL     1      -5.055 -11.069   0.767  0.00  0.00    -0.017 C 
ATOM     25  C   UNL     1      -5.986  -9.874   0.985  0.00  0.00    -0.017 C 
ENDBRANCH  21  23
BRANCH  21  26
ATOM     26  C   UNL     1      -2.556  -9.328   2.579  0.00  0.00    -0.043 C 
BRANCH  26  27
ATOM     27  C   UNL     1      -1.973 -10.732   2.410  0.00  0.00    +0.046 C 
ATOM     28  C   UNL     1      -1.383 -10.874   1.005  0.00  0.00    +0.039 C 
ATOM     29  C   UNL     1      -0.874 -10.957   3.450  0.00  0.00    +0.039 C 
BRANCH  27  30
ATOM     30  O   UNL     1      -3.007 -11.702   2.592  0.00  0.00    -0.391 OA
ATOM     31  H   UNL     1      -3.427 -11.670   3.462  0.00  0.00    +0.210 HD
ENDBRANCH  27  30
ENDBRANCH  26  27
ENDBRANCH  21  26
ENDBRANCH  20  21
ENDBRANCH  10  20
TORSDOF 7
