REMARK  Name = ZINC65371013
REMARK  6 active torsions:
REMARK  status: ('A' for Active; 'I' for Inactive)
REMARK    1  A    between atoms: C_1  and  C_2
REMARK    2  A    between atoms: C_5  and  O_27
REMARK    3  A    between atoms: C_10  and  C_12
REMARK    4  A    between atoms: C_12  and  N_13
REMARK    5  A    between atoms: N_16  and  C_19
REMARK    6  A    between atoms: O_27  and  C_28
REMARK                            x       y       z     vdW  Elec       q    Type
REMARK                         _______ _______ _______ _____ _____    ______ ____
ROOT
ATOM      1  N   UNL     1      -1.106  -1.747   3.088  0.00  0.00    -0.297 NA
ATOM      2  C   UNL     1      -1.086  -3.124   2.577  0.00  0.00    +0.103 C 
ATOM      3  C   UNL     1      -0.836  -4.092   3.738  0.00  0.00    +0.122 C 
ATOM      4  N   UNL     1      -1.834  -3.832   4.786  0.00  0.00    -0.313 N 
ATOM      5  C   UNL     1      -2.008  -2.448   5.253  0.00  0.00    +0.122 C 
ATOM      6  C   UNL     1      -2.212  -1.544   4.033  0.00  0.00    +0.103 C 
ENDROOT
BRANCH   4   7
ATOM      7  C   UNL     1      -2.587  -4.859   5.318  0.00  0.00    +0.130 A 
ATOM      8  C   UNL     1      -2.054  -6.137   5.412  0.00  0.00    +0.113 A 
ATOM      9  C   UNL     1      -2.843  -7.156   5.956  0.00  0.00    +0.254 A 
ATOM     10  N   UNL     1      -4.093  -6.861   6.370  0.00  0.00    -0.295 N 
ATOM     11  C   UNL     1      -4.569  -5.591   6.256  0.00  0.00    +0.195 A 
ATOM     12  N   UNL     1      -3.832  -4.626   5.751  0.00  0.00    -0.201 NA
ATOM     13  N   UNL     1      -5.841  -5.312   6.681  0.00  0.00    -0.329 N 
ATOM     14  O   UNL     1      -2.409  -8.293   6.053  0.00  0.00    -0.268 OA
ATOM     15  H   UNL     1      -6.392  -6.015   7.059  0.00  0.00    +0.145 HD
ATOM     16  H   UNL     1      -6.190  -4.410   6.605  0.00  0.00    +0.145 HD
ATOM     17  H   UNL     1      -4.653  -7.556   6.750  0.00  0.00    +0.172 HD
ENDBRANCH   4   7
BRANCH   1  18
ATOM     18  C   UNL     1      -1.171  -0.777   1.986  0.00  0.00    +0.113 C 
BRANCH  18  28
ATOM     19  C   UNL     1      -1.825   2.021   0.486  0.00  0.00    +0.042 C 
ATOM     20  C   UNL     1      -0.662   1.577   1.335  0.00  0.00    -0.040 C 
ATOM     21  C   UNL     1       0.623   1.984   1.230  0.00  0.00    +0.002 A 
ATOM     22  C   UNL     1       1.299   2.924   0.329  0.00  0.00    +0.055 A 
ATOM     23  C   UNL     1       2.630   3.136   0.463  0.00  0.00    +0.121 A 
ATOM     24  C   UNL     1       3.400   2.483   1.442  0.00  0.00    +0.047 A 
ATOM     25  C   UNL     1       2.868   1.601   2.315  0.00  0.00    +0.029 A 
ATOM     26  C   UNL     1       1.435   1.296   2.261  0.00  0.00    +0.043 A 
ATOM     27  N   UNL     1       0.682   0.497   2.974  0.00  0.00    -0.376 N 
ATOM     28  C   UNL     1      -0.697   0.591   2.481  0.00  0.00    +0.120 C 
ATOM     29  H   UNL     1       0.984  -0.060   3.708  0.00  0.00    +0.160 HD
BRANCH  23  30
ATOM     30  O   UNL     1       3.243   4.009  -0.379  0.00  0.00    -0.495 OA
ATOM     31  C   UNL     1       4.648   4.203  -0.203  0.00  0.00    +0.277 C 
ENDBRANCH  23  30
ENDBRANCH  18  28
ENDBRANCH   1  18
TORSDOF 4
