REMARK  Name = ZINC57521144
REMARK  6 active torsions:
REMARK  status: ('A' for Active; 'I' for Inactive)
REMARK    1  A    between atoms: C_1  and  C_2
REMARK    2  A    between atoms: C_4  and  N_9
REMARK    3  A    between atoms: C_10  and  C_12
REMARK    4  A    between atoms: C_12  and  S_13
REMARK    5  A    between atoms: S_13  and  C_14
REMARK    6  A    between atoms: C_22  and  C_25
REMARK                            x       y       z     vdW  Elec       q    Type
REMARK                         _______ _______ _______ _____ _____    ______ ____
ROOT
ATOM      1  S   UNL     1       0.411  -6.631  -3.416  0.00  0.00    -0.078 S 
ENDROOT
BRANCH   1   2
ATOM      2  C   UNL     1       0.537  -7.345  -5.022  0.00  0.00    +0.171 A 
ATOM      3  N   UNL     1       0.513  -6.551  -6.072  0.00  0.00    -0.183 NA
ATOM      4  C   UNL     1       0.606  -7.036  -7.320  0.00  0.00    +0.298 A 
ATOM      5  O   UNL     1       0.582  -6.284  -8.283  0.00  0.00    -0.263 OA
ATOM      6  C   UNL     1       0.736  -8.479  -7.506  0.00  0.00    +0.130 A 
ATOM      7  C   UNL     1       0.758  -9.288  -6.375  0.00  0.00    +0.072 A 
ATOM      8  N   UNL     1       0.661  -8.694  -5.131  0.00  0.00    -0.333 N 
ATOM      9  C   UNL     1       0.889 -10.612  -6.823  0.00  0.00    +0.048 A 
ATOM     10  C   UNL     1       0.942 -10.589  -8.173  0.00  0.00    +0.015 A 
ATOM     11  N   UNL     1       0.851  -9.300  -8.602  0.00  0.00    -0.353 N 
ATOM     12  H   UNL     1       0.864  -9.010  -9.528  0.00  0.00    +0.166 HD
ATOM     13  C   UNL     1       1.082 -11.797  -9.062  0.00  0.00    +0.063 C 
ATOM     14  H   UNL     1       0.679  -9.243  -4.331  0.00  0.00    +0.168 HD
ENDBRANCH   1   2
BRANCH   1  15
ATOM     15  C   UNL     1       0.265  -4.851  -3.737  0.00  0.00    +0.173 C 
BRANCH  15  17
ATOM     16  N   UNL     1       0.028  -2.771  -2.420  0.00  0.00    -0.285 N 
ATOM     17  C   UNL     1       0.148  -4.113  -2.428  0.00  0.00    +0.227 C 
ATOM     18  O   UNL     1       0.162  -4.727  -1.382  0.00  0.00    -0.275 OA
ATOM     19  H   UNL     1      -0.060  -2.287  -3.256  0.00  0.00    +0.155 HD
BRANCH  16  23
ATOM     20  C   UNL     1       1.619  -2.350   2.213  0.00  0.00    +0.045 C 
ATOM     21  C   UNL     1       0.793  -1.849   1.057  0.00  0.00    -0.035 A 
ATOM     22  C   UNL     1       0.792  -2.538  -0.141  0.00  0.00    +0.027 A 
ATOM     23  C   UNL     1       0.030  -2.075  -1.206  0.00  0.00    +0.034 A 
ATOM     24  C   UNL     1      -0.729  -0.921  -1.063  0.00  0.00    +0.024 A 
ATOM     25  C   UNL     1      -0.724  -0.236   0.136  0.00  0.00    +0.017 A 
ATOM     26  C   UNL     1       0.032  -0.703   1.197  0.00  0.00    +0.021 A 
ATOM     27 BR   UNL     1       0.029   0.233   2.841  0.00  0.00    -0.050 Br
ENDBRANCH  16  23
ENDBRANCH  15  17
ENDBRANCH   1  15
TORSDOF 4
