REMARK  Name = ZINC37580470
REMARK  8 active torsions:
REMARK  status: ('A' for Active; 'I' for Inactive)
REMARK    1  A    between atoms: C_1  and  C_2
REMARK    2  A    between atoms: C_5  and  C_18
REMARK    3  A    between atoms: C_7  and  S_8
REMARK    4  A    between atoms: S_8  and  N_11
REMARK    5  A    between atoms: N_11  and  C_12
REMARK    6  A    between atoms: C_12  and  C_13
REMARK    7  A    between atoms: C_19  and  C_20
REMARK    8  A    between atoms: C_20  and  N_21
REMARK                            x       y       z     vdW  Elec       q    Type
REMARK                         _______ _______ _______ _____ _____    ______ ____
ROOT
ATOM      1  C   UNL     1      -0.500   1.402  -0.056  0.00  0.00    +0.046 C 
ATOM      2  C   UNL     1      -0.363  -0.098  -0.043  0.00  0.00    -0.024 A 
ATOM      3  C   UNL     1      -0.567  -0.818  -1.207  0.00  0.00    +0.006 A 
ATOM      4  C   UNL     1      -0.443  -2.192  -1.203  0.00  0.00    +0.017 A 
ATOM      5  C   UNL     1      -0.112  -2.856  -0.021  0.00  0.00    +0.027 A 
ATOM      6  C   UNL     1       0.091  -2.125   1.149  0.00  0.00    +0.045 A 
ATOM      7  C   UNL     1      -0.030  -0.750   1.131  0.00  0.00    +0.109 A 
ENDROOT
BRANCH   7   8
ATOM      8  S   UNL     1       0.234   0.176   2.606  0.00  0.00    +0.059 S 
ATOM      9  O   UNL     1       0.525  -0.765   3.630  0.00  0.00    -0.153 OA
ATOM     10  O   UNL     1       1.121   1.234   2.268  0.00  0.00    -0.153 OA
BRANCH   8  11
ATOM     11  N   UNL     1      -1.210   0.880   3.007  0.00  0.00    -0.183 NA
ATOM     12  H   UNL     1      -1.296   1.847   3.006  0.00  0.00    +0.148 HD
BRANCH  11  13
ATOM     13  C   UNL     1      -2.359   0.044   3.364  0.00  0.00    +0.180 C 
BRANCH  13  14
ATOM     14  C   UNL     1      -3.405   0.890   4.043  0.00  0.00    +0.120 A 
ATOM     15  C   UNL     1      -4.410   1.540   3.430  0.00  0.00    +0.046 A 
ATOM     16  C   UNL     1      -5.145   2.204   4.439  0.00  0.00    +0.041 A 
ATOM     17  C   UNL     1      -4.545   1.919   5.609  0.00  0.00    +0.195 A 
ATOM     18  O   UNL     1      -3.495   1.118   5.363  0.00  0.00    -0.466 OA
ENDBRANCH  13  14
ENDBRANCH  11  13
ENDBRANCH   8  11
ENDBRANCH   7   8
BRANCH   5  19
ATOM     19  C   UNL     1       0.017  -4.282  -0.009  0.00  0.00    -0.068 C 
ATOM     20  C   UNL     1       0.123  -5.451   0.000  0.00  0.00    -0.117 C 
BRANCH  20  21
ATOM     21  C   UNL     1       0.256  -6.917   0.012  0.00  0.00    +0.005 C 
BRANCH  21  22
ATOM     22  N   UNL     1       0.607  -7.366   1.366  0.00  0.00    +0.385 N 
ATOM     23  H   UNL     1       0.698  -8.371   1.374  0.00  0.00    -0.089 HD
ATOM     24  H   UNL     1       1.482  -6.947   1.643  0.00  0.00    -0.089 HD
ATOM     25  H   UNL     1      -0.117  -7.089   2.011  0.00  0.00    -0.089 HD
ENDBRANCH  21  22
ENDBRANCH  20  21
ENDBRANCH   5  19
TORSDOF 7
