REMARK  Name = ZINC12381753
REMARK  9 active torsions:
REMARK  status: ('A' for Active; 'I' for Inactive)
REMARK    1  A    between atoms: C_1  and  C_2
REMARK    2  A    between atoms: C_2  and  C_3
REMARK    3  A    between atoms: C_2  and  C_4
REMARK    4  A    between atoms: C_2  and  C_5
REMARK    5  A    between atoms: C_8  and  C_11
REMARK    6  A    between atoms: C_14  and  S_29
REMARK    7  A    between atoms: N_15  and  N_16
REMARK    8  A    between atoms: C_17  and  C_18
REMARK    9  A    between atoms: C_27  and  O_28
REMARK                            x       y       z     vdW  Elec       q    Type
REMARK                         _______ _______ _______ _____ _____    ______ ____
ROOT
ATOM      1  C   UNL     1       0.454   8.483  -1.014  0.00  0.00    +0.186 A 
ATOM      2  N   UNL     1       1.550   9.068  -0.587  0.00  0.00    -0.126 NA
ATOM      3  N   UNL     1       1.579   9.066   0.698  0.00  0.00    -0.121 NA
ATOM      4  C   UNL     1       0.499   8.485   1.173  0.00  0.00    +0.209 A 
ATOM      5  N   UNL     1      -0.253   8.088   0.101  0.00  0.00    -0.187 N 
ENDROOT
BRANCH   1   9
ATOM      6  C   UNL     1      -0.695   7.920  -5.063  0.00  0.00    -0.042 A 
ATOM      7  C   UNL     1       0.315   8.813  -4.752  0.00  0.00    +0.005 A 
ATOM      8  C   UNL     1       0.693   9.001  -3.438  0.00  0.00    +0.012 A 
ATOM      9  C   UNL     1       0.054   8.288  -2.423  0.00  0.00    +0.021 A 
ATOM     10  C   UNL     1      -0.961   7.385  -2.744  0.00  0.00    +0.012 A 
ATOM     11  C   UNL     1      -1.333   7.210  -4.061  0.00  0.00    +0.005 A 
BRANCH   6  13
ATOM     12  C   UNL     1       0.097   7.219  -7.306  0.00  0.00    +0.015 C 
ATOM     13  C   UNL     1      -1.103   7.721  -6.500  0.00  0.00    -0.013 C 
ATOM     14  C   UNL     1      -2.232   6.690  -6.571  0.00  0.00    +0.015 C 
ATOM     15  C   UNL     1      -1.589   9.050  -7.082  0.00  0.00    +0.015 C 
ENDBRANCH   6  13
ENDBRANCH   1   9
BRANCH   5  16
ATOM     16  N   UNL     1      -1.486   7.424   0.130  0.00  0.00    -0.170 NA
ATOM     17  C   UNL     1      -1.539   6.143  -0.085  0.00  0.00    +0.145 C 
BRANCH  17  18
ATOM     18  C   UNL     1      -0.338   5.421  -0.525  0.00  0.00    +0.044 A 
ATOM     19  C   UNL     1      -0.333   4.676  -1.783  0.00  0.00    -0.006 A 
ATOM     20  C   UNL     1      -1.465   4.624  -2.605  0.00  0.00    +0.009 A 
ATOM     21  C   UNL     1      -1.417   3.922  -3.773  0.00  0.00    +0.001 A 
ATOM     22  C   UNL     1      -0.261   3.246  -4.155  0.00  0.00    +0.001 A 
ATOM     23  C   UNL     1       0.858   3.276  -3.378  0.00  0.00    +0.008 A 
ATOM     24  C   UNL     1       0.846   3.994  -2.171  0.00  0.00    -0.017 A 
ATOM     25  C   UNL     1       1.982   4.047  -1.343  0.00  0.00    +0.012 A 
ATOM     26  C   UNL     1       1.960   4.745  -0.176  0.00  0.00    +0.046 A 
ATOM     27  C   UNL     1       0.824   5.432   0.248  0.00  0.00    +0.126 A 
BRANCH  27  28
ATOM     28  O   UNL     1       0.847   6.116   1.420  0.00  0.00    -0.506 OA
ATOM     29  H   UNL     1       0.636   5.577   2.194  0.00  0.00    +0.292 HD
ENDBRANCH  27  28
ENDBRANCH  17  18
ENDBRANCH   5  16
BRANCH   4  30
ATOM     30  S   UNL     1       0.097   8.256   2.873  0.00  0.00    -0.102 S 
ATOM     31  H   UNL     1       0.849   7.096   3.149  0.00  0.00    +0.110 HD
ENDBRANCH   4  30
TORSDOF 6
