REMARK  Name = ZINC01384571
REMARK  7 active torsions:
REMARK  status: ('A' for Active; 'I' for Inactive)
REMARK    1  A    between atoms: C_1  and  C_2
REMARK    2  A    between atoms: C_2  and  C_13
REMARK    3  A    between atoms: N_15  and  C_17
REMARK    4  A    between atoms: C_17  and  C_19
REMARK    5  A    between atoms: C_17  and  C_25
REMARK    6  A    between atoms: C_25  and  O_27
REMARK    7  A    between atoms: O_27  and  C_28
REMARK                            x       y       z     vdW  Elec       q    Type
REMARK                         _______ _______ _______ _____ _____    ______ ____
ROOT
ATOM      1  C   UNL     1      -1.204   3.513  -1.567  0.00  0.00    +0.267 C 
ATOM      2  O   UNL     1      -1.648   2.740  -2.389  0.00  0.00    -0.271 OA
ATOM      3  N   UNL     1      -0.721   4.709  -1.958  0.00  0.00    -0.295 N 
ATOM      4  H   UNL     1      -0.366   5.327  -1.300  0.00  0.00    +0.150 HD
ENDROOT
BRANCH   1   6
ATOM      5  C   UNL     1      -2.438   3.700   0.575  0.00  0.00    +0.076 C 
ATOM      6  C   UNL     1      -1.190   3.135  -0.108  0.00  0.00    +0.257 C 
ATOM      7  C   UNL     1      -1.184   1.633   0.017  0.00  0.00    +0.270 C 
ATOM      8  O   UNL     1      -2.229   1.027   0.129  0.00  0.00    -0.271 OA
ATOM      9  N   UNL     1      -0.011   0.966   0.007  0.00  0.00    -0.279 N 
ATOM     10  C   UNL     1       1.188   1.692  -0.000  0.00  0.00    +0.076 A 
ATOM     11  C   UNL     1       2.394   1.057  -0.251  0.00  0.00    +0.027 A 
ATOM     12  C   UNL     1       3.567   1.789  -0.266  0.00  0.00    +0.002 A 
ATOM     13  C   UNL     1       3.539   3.152  -0.034  0.00  0.00    +0.004 A 
ATOM     14  C   UNL     1       2.339   3.791   0.222  0.00  0.00    +0.047 A 
ATOM     15  C   UNL     1       1.161   3.063   0.244  0.00  0.00    +0.144 A 
ATOM     16  O   UNL     1      -0.022   3.677   0.513  0.00  0.00    -0.466 OA
ATOM     17  H   UNL     1       0.002  -0.004   0.002  0.00  0.00    +0.155 HD
ENDBRANCH   1   6
BRANCH   3  18
ATOM     18  C   UNL     1      -0.734   5.075  -3.376  0.00  0.00    +0.213 C 
BRANCH  18  19
ATOM     19  C   UNL     1      -0.745   6.577  -3.507  0.00  0.00    -0.017 A 
ATOM     20  C   UNL     1       0.021   7.350  -2.655  0.00  0.00    +0.006 A 
ATOM     21  C   UNL     1       0.014   8.727  -2.778  0.00  0.00    +0.000 A 
ATOM     22  C   UNL     1      -0.767   9.331  -3.746  0.00  0.00    +0.000 A 
ATOM     23  C   UNL     1      -1.537   8.557  -4.595  0.00  0.00    +0.000 A 
ATOM     24  C   UNL     1      -1.526   7.180  -4.475  0.00  0.00    +0.006 A 
ENDBRANCH  18  19
BRANCH  18  25
ATOM     25  C   UNL     1       0.495   4.522  -4.049  0.00  0.00    +0.332 C 
ATOM     26  O   UNL     1       1.300   3.886  -3.410  0.00  0.00    -0.248 OA
BRANCH  25  27
ATOM     27  O   UNL     1       0.697   4.735  -5.359  0.00  0.00    -0.466 OA
ATOM     28  C   UNL     1       1.903   4.172  -5.941  0.00  0.00    +0.280 C 
ENDBRANCH  25  27
ENDBRANCH  18  25
ENDBRANCH   3  18
TORSDOF 5
