REMARK  Name = ZINC05800433
REMARK  3 active torsions:
REMARK  status: ('A' for Active; 'I' for Inactive)
REMARK    1  A    between atoms: C_8  and  C_24
REMARK    2  A    between atoms: C_14  and  C_19
REMARK    3  A    between atoms: C_28  and  N_30
REMARK                            x       y       z     vdW  Elec       q    Type
REMARK                         _______ _______ _______ _____ _____    ______ ____
ROOT
ATOM      1  C   UNL     1       0.636   1.511   0.239  0.00  0.00    +0.002 A 
ATOM      2  C   UNL     1      -0.623   0.951   0.354  0.00  0.00    +0.002 A 
ATOM      3  C   UNL     1      -1.748   1.758   0.365  0.00  0.00    +0.025 A 
ATOM      4  C   UNL     1      -1.600   3.131   0.270  0.00  0.00    +0.052 A 
ATOM      5  C   UNL     1      -0.336   3.696   0.189  0.00  0.00    +0.049 A 
ATOM      6  C   UNL     1       0.787   2.885   0.157  0.00  0.00    +0.025 A 
ATOM      7  N   UNL     1      -0.229   5.086   0.210  0.00  0.00    -0.331 N 
ATOM      8  C   UNL     1      -0.625   5.847   1.377  0.00  0.00    +0.136 C 
ATOM      9  C   UNL     1      -2.098   5.776   1.703  0.00  0.00    +0.036 C 
ATOM     10  C   UNL     1      -2.986   4.926   1.160  0.00  0.00    +0.017 C 
ATOM     11  N   UNL     1      -2.687   3.995   0.218  0.00  0.00    -0.316 N 
ATOM     12  C   UNL     1      -4.447   4.969   1.574  0.00  0.00    +0.063 C 
ATOM     13  C   UNL     1      -4.561   5.389   3.038  0.00  0.00    +0.068 C 
ATOM     14  C   UNL     1      -3.927   6.778   3.177  0.00  0.00    +0.091 C 
ATOM     15  C   UNL     1      -2.513   6.709   2.683  0.00  0.00    +0.163 C 
ATOM     16  O   UNL     1      -1.694   7.481   3.140  0.00  0.00    -0.292 OA
ATOM     17  H   UNL     1       0.115   5.550  -0.568  0.00  0.00    +0.147 HD
ATOM     18  H   UNL     1      -3.278   3.927  -0.548  0.00  0.00    +0.152 HD
ENDROOT
BRANCH   8  19
ATOM     19  C   UNL     1       0.151   5.338   2.564  0.00  0.00    -0.021 A 
ATOM     20  C   UNL     1       1.009   6.183   3.243  0.00  0.00    +0.006 A 
ATOM     21  C   UNL     1       1.721   5.717   4.332  0.00  0.00    +0.003 A 
ATOM     22  C   UNL     1       1.575   4.404   4.742  0.00  0.00    +0.033 A 
ATOM     23  C   UNL     1       0.717   3.560   4.064  0.00  0.00    +0.127 A 
ATOM     24  C   UNL     1       0.002   4.027   2.978  0.00  0.00    +0.038 A 
BRANCH  23  25
ATOM     25  N   UNL     1       0.560   2.155   4.504  0.00  0.00    +0.056 N 
ATOM     26  O   UNL     1       1.187   1.744   5.464  0.00  0.00    -0.126 OA
ATOM     27  O   UNL     1      -0.196   1.410   3.906  0.00  0.00    -0.126 OA
ENDBRANCH  23  25
ENDBRANCH   8  19
BRANCH  13  28
ATOM     28  C   UNL     1      -6.012   5.446   3.442  0.00  0.00    +0.109 A 
ATOM     29  C   UNL     1      -6.588   4.717   4.415  0.00  0.00    +0.045 A 
ATOM     30  C   UNL     1      -7.951   5.089   4.453  0.00  0.00    +0.041 A 
ATOM     31  C   UNL     1      -8.129   6.018   3.496  0.00  0.00    +0.195 A 
ATOM     32  O   UNL     1      -6.951   6.230   2.887  0.00  0.00    -0.468 OA
ENDBRANCH  13  28
TORSDOF 3
