REMARK  Name = ZINC38062491
REMARK  7 active torsions:
REMARK  status: ('A' for Active; 'I' for Inactive)
REMARK    1  A    between atoms: C_1  and  C_2
REMARK    2  A    between atoms: C_4  and  N_21
REMARK    3  A    between atoms: C_6  and  S_9
REMARK    4  A    between atoms: C_7  and  C_8
REMARK    5  A    between atoms: S_9  and  N_12
REMARK    6  A    between atoms: N_12  and  C_13
REMARK    7  A    between atoms: C_13  and  C_14
REMARK                            x       y       z     vdW  Elec       q    Type
REMARK                         _______ _______ _______ _____ _____    ______ ____
ROOT
ATOM      1  S   UNL     1       0.046  -2.871   2.449  0.00  0.00    +0.059 S 
ATOM      2  O   UNL     1      -0.952  -2.237   3.236  0.00  0.00    -0.153 OA
ATOM      3  O   UNL     1      -0.023  -4.245   2.092  0.00  0.00    -0.153 OA
ENDROOT
BRANCH   1   9
ATOM      4  C   UNL     1       2.205  -1.982  -2.227  0.00  0.00    +0.044 C 
ATOM      5  C   UNL     1       1.177  -1.601  -1.193  0.00  0.00    -0.044 A 
ATOM      6  C   UNL     1       0.321  -0.544  -1.430  0.00  0.00    +0.026 A 
ATOM      7  C   UNL     1      -0.627  -0.193  -0.477  0.00  0.00    +0.027 A 
ATOM      8  C   UNL     1      -0.710  -0.908   0.712  0.00  0.00    +0.051 A 
ATOM      9  C   UNL     1       0.150  -1.964   0.942  0.00  0.00    +0.110 A 
ATOM     10  C   UNL     1       1.089  -2.314  -0.012  0.00  0.00    -0.021 A 
ATOM     11  C   UNL     1       2.021  -3.471   0.240  0.00  0.00    +0.046 C 
BRANCH   7  12
ATOM     12  N   UNL     1      -1.495   0.876  -0.712  0.00  0.00    -0.358 N 
ATOM     13  H   UNL     1      -1.436   1.374  -1.542  0.00  0.00    +0.142 HD
ATOM     14  H   UNL     1      -2.156   1.119  -0.046  0.00  0.00    +0.142 HD
ENDBRANCH   7  12
ENDBRANCH   1   9
BRANCH   1  15
ATOM     15  N   UNL     1       1.482  -2.661   3.246  0.00  0.00    -0.187 NA
ATOM     16  H   UNL     1       2.073  -3.417   3.389  0.00  0.00    +0.148 HD
BRANCH  15  17
ATOM     17  C   UNL     1       1.861  -1.333   3.736  0.00  0.00    +0.139 C 
BRANCH  17  18
ATOM     18  C   UNL     1       3.002  -1.468   4.746  0.00  0.00    +0.159 C 
ATOM     19  C   UNL     1       3.317  -0.096   5.349  0.00  0.00    +0.192 C 
ATOM     20  O   UNL     1       4.457  -0.211   6.206  0.00  0.00    -0.375 OA
ATOM     21  C   UNL     1       5.623  -0.712   5.546  0.00  0.00    +0.188 C 
ATOM     22  C   UNL     1       5.308  -2.084   4.943  0.00  0.00    +0.188 C 
ATOM     23  O   UNL     1       4.168  -1.971   4.085  0.00  0.00    -0.371 OA
ENDBRANCH  17  18
ENDBRANCH  15  17
ENDBRANCH   1  15
TORSDOF 5
