REMARK  Name = ZINC46792150
REMARK  14 active torsions:
REMARK  status: ('A' for Active; 'I' for Inactive)
REMARK    1  A    between atoms: C_1  and  C_2
REMARK    2  A    between atoms: C_5  and  C_8
REMARK    3  A    between atoms: C_10  and  C_13
REMARK    4  A    between atoms: C_13  and  C_14
REMARK    5  A    between atoms: C_14  and  C_15
REMARK    6  A    between atoms: N_17  and  C_18
REMARK    7  A    between atoms: C_18  and  C_19
REMARK    8  A    between atoms: C_22  and  O_27
REMARK    9  A    between atoms: C_23  and  O_25
REMARK   10  A    between atoms: O_25  and  C_26
REMARK   11  A    between atoms: O_27  and  C_28
REMARK   12  A    between atoms: C_28  and  C_29
REMARK   13  A    between atoms: N_31  and  C_32
REMARK   14  A    between atoms: N_31  and  C_33
REMARK                            x       y       z     vdW  Elec       q    Type
REMARK                         _______ _______ _______ _____ _____    ______ ____
ROOT
ATOM      1  C   UNL     1      -1.319  -9.084   2.892  0.00  0.00    +0.214 C 
ATOM      2  O   UNL     1      -0.263  -9.546   3.267  0.00  0.00    -0.276 OA
ATOM      3  N   UNL     1      -2.479  -9.628   3.311  0.00  0.00    -0.311 N 
ATOM      4  H   UNL     1      -3.324  -9.258   3.011  0.00  0.00    +0.149 HD
ENDROOT
BRANCH   1   5
ATOM      5  C   UNL     1      -1.335  -7.901   1.959  0.00  0.00    +0.105 C 
BRANCH   5   6
ATOM      6  C   UNL     1       0.102  -7.482   1.642  0.00  0.00    +0.108 C 
BRANCH   6   9
ATOM      7  C   UNL     1       0.059  -4.256  -0.021  0.00  0.00    +0.202 A 
ATOM      8  N   UNL     1       0.070  -5.047   1.067  0.00  0.00    -0.191 NA
ATOM      9  C   UNL     1       0.086  -6.299   0.708  0.00  0.00    +0.228 A 
ATOM     10  O   UNL     1       0.086  -6.357  -0.630  0.00  0.00    -0.338 OA
ATOM     11  N   UNL     1       0.064  -5.015  -1.090  0.00  0.00    -0.056 NA
BRANCH   7  16
ATOM     12  C   UNL     1      -0.018   1.503   0.010  0.00  0.00    +0.044 C 
ATOM     13  C   UNL     1       0.002  -0.004   0.002  0.00  0.00    -0.050 A 
ATOM     14  C   UNL     1       0.006  -0.686  -1.201  0.00  0.00    +0.004 A 
ATOM     15  C   UNL     1       0.024  -2.067  -1.214  0.00  0.00    +0.012 A 
ATOM     16  C   UNL     1       0.040  -2.772  -0.013  0.00  0.00    +0.022 A 
ATOM     17  C   UNL     1       0.036  -2.080   1.196  0.00  0.00    +0.012 A 
ATOM     18  C   UNL     1       0.023  -0.700   1.198  0.00  0.00    +0.004 A 
ENDBRANCH   7  16
ENDBRANCH   6   9
ENDBRANCH   5   6
ENDBRANCH   1   5
BRANCH   3  19
ATOM     19  C   UNL     1      -2.463 -10.778   4.218  0.00  0.00    +0.139 C 
BRANCH  19  20
ATOM     20  C   UNL     1      -3.879 -11.191   4.531  0.00  0.00    -0.027 A 
ATOM     21  C   UNL     1      -4.537 -10.633   5.611  0.00  0.00    +0.009 A 
ATOM     22  C   UNL     1      -5.836 -11.008   5.902  0.00  0.00    +0.050 A 
ATOM     23  C   UNL     1      -6.480 -11.945   5.109  0.00  0.00    +0.163 A 
ATOM     24  C   UNL     1      -5.817 -12.506   4.022  0.00  0.00    +0.162 A 
ATOM     25  C   UNL     1      -4.518 -12.121   3.733  0.00  0.00    +0.054 A 
BRANCH  24  26
ATOM     26  O   UNL     1      -6.446 -13.425   3.241  0.00  0.00    -0.491 OA
ATOM     27  C   UNL     1      -5.704 -13.958   2.142  0.00  0.00    +0.277 C 
ENDBRANCH  24  26
BRANCH  23  28
ATOM     28  O   UNL     1      -7.757 -12.315   5.394  0.00  0.00    -0.479 OA
BRANCH  28  29
ATOM     29  C   UNL     1      -8.374 -11.699   6.526  0.00  0.00    +0.324 C 
BRANCH  29  30
ATOM     30  C   UNL     1      -9.776 -12.229   6.685  0.00  0.00    +0.253 C 
ATOM     31  O   UNL     1     -10.204 -13.054   5.905  0.00  0.00    -0.272 OA
ATOM     32  N   UNL     1     -10.554 -11.787   7.693  0.00  0.00    -0.305 N 
ATOM     33  C   UNL     1     -11.916 -12.302   7.847  0.00  0.00    +0.131 C 
ATOM     34  C   UNL     1     -10.037 -10.790   8.634  0.00  0.00    +0.131 C 
ENDBRANCH  29  30
ENDBRANCH  28  29
ENDBRANCH  23  28
ENDBRANCH  19  20
ENDBRANCH   3  19
TORSDOF 10
