REMARK  Name = ZINC65149339
REMARK  7 active torsions:
REMARK  status: ('A' for Active; 'I' for Inactive)
REMARK    1  A    between atoms: C_1  and  C_2
REMARK    2  A    between atoms: C_3  and  N_15
REMARK    3  A    between atoms: C_5  and  C_7
REMARK    4  A    between atoms: C_10  and  C_12
REMARK    5  A    between atoms: C_12  and  C_13
REMARK    6  A    between atoms: C_12  and  C_14
REMARK    7  A    between atoms: C_16  and  C_18
REMARK                            x       y       z     vdW  Elec       q    Type
REMARK                         _______ _______ _______ _____ _____    ______ ____
ROOT
ATOM      1  C   UNL     1      -0.006   1.486   0.048  0.00  0.00    +0.053 C 
ATOM      2  C   UNL     1       0.005  -0.020   0.033  0.00  0.00    +0.009 A 
ATOM      3  C   UNL     1      -1.051  -0.882   0.015  0.00  0.00    +0.044 A 
ATOM      4  C   UNL     1      -0.808  -2.240   0.004  0.00  0.00    +0.044 A 
ATOM      5  C   UNL     1       0.504  -2.673   0.010  0.00  0.00    +0.078 A 
ATOM      6  S   UNL     1       1.402  -1.130   0.024  0.00  0.00    -0.087 S 
ENDROOT
BRANCH   5   7
ATOM      7  C   UNL     1       1.026  -4.048   0.000  0.00  0.00    +0.255 A 
ATOM      8  N   UNL     1       0.313  -5.153  -0.022  0.00  0.00    -0.107 NA
ATOM      9  N   UNL     1       1.105  -6.168  -0.025  0.00  0.00    -0.112 NA
ATOM     10  C   UNL     1       2.341  -5.757  -0.004  0.00  0.00    +0.220 A 
ATOM     11  O   UNL     1       2.325  -4.412   0.007  0.00  0.00    -0.419 OA
BRANCH  10  12
ATOM     12  C   UNL     1       3.568  -6.632   0.001  0.00  0.00    +0.071 C 
ATOM     13  C   UNL     1       3.549  -7.530   1.239  0.00  0.00    +0.017 C 
ATOM     14  C   UNL     1       3.581  -7.500  -1.259  0.00  0.00    +0.017 C 
ENDBRANCH  10  12
ENDBRANCH   5   7
BRANCH   3  15
ATOM     15  N   UNL     1      -2.370  -0.394   0.011  0.00  0.00    -0.283 N 
ATOM     16  C   UNL     1      -3.333  -1.059  -0.658  0.00  0.00    +0.248 C 
ATOM     17  O   UNL     1      -3.079  -2.119  -1.191  0.00  0.00    -0.273 OA
ATOM     18  H   UNL     1      -2.587   0.422   0.488  0.00  0.00    +0.155 HD
BRANCH  16  19
ATOM     19  C   UNL     1      -4.724  -0.487  -0.743  0.00  0.00    +0.241 C 
ATOM     20  C   UNL     1      -5.514  -0.815   0.498  0.00  0.00    -0.012 C 
ATOM     21  C   UNL     1      -6.542  -1.552   0.067  0.00  0.00    +0.065 C 
ATOM     22  C   UNL     1      -7.603  -2.107   0.992  0.00  0.00    +0.057 C 
ATOM     23  C   UNL     1      -7.070  -2.060   2.428  0.00  0.00    +0.006 C 
ATOM     24  C   UNL     1      -6.532  -0.659   2.733  0.00  0.00    +0.005 C 
ATOM     25  C   UNL     1      -5.250  -0.423   1.922  0.00  0.00    +0.035 C 
ATOM     26  N   UNL     1      -6.470  -1.708  -1.274  0.00  0.00    -0.158 NA
ATOM     27  N   UNL     1      -5.500  -1.152  -1.808  0.00  0.00    -0.170 NA
ENDBRANCH  16  19
ENDBRANCH   3  15
TORSDOF 4
