REMARK  Name = ZINC00309138
REMARK  4 active torsions:
REMARK  status: ('A' for Active; 'I' for Inactive)
REMARK    1  A    between atoms: C_1  and  C_2
REMARK    2  A    between atoms: C_5  and  N_23
REMARK    3  A    between atoms: C_7  and  N_8
REMARK    4  A    between atoms: C_9  and  C_11
REMARK                            x       y       z     vdW  Elec       q    Type
REMARK                         _______ _______ _______ _____ _____    ______ ____
ROOT
ATOM      1  N   UNL     1      -1.399   5.418  -1.128  0.00  0.00    -0.285 N 
ATOM      2  C   UNL     1      -1.503   6.084   0.039  0.00  0.00    +0.225 C 
ATOM      3  O   UNL     1      -1.487   5.475   1.088  0.00  0.00    -0.275 OA
ATOM      4  H   UNL     1      -1.331   5.909  -1.962  0.00  0.00    +0.155 HD
ENDROOT
BRANCH   2   5
ATOM      5  C   UNL     1      -1.640   7.585   0.041  0.00  0.00    +0.129 C 
ATOM      6  C   UNL     1      -2.201   8.081   1.393  0.00  0.00    +0.137 C 
ATOM      7  C   UNL     1      -0.974   8.604   2.117  0.00  0.00    +0.308 C 
ATOM      8  O   UNL     1      -0.794   8.612   3.312  0.00  0.00    -0.251 OA
ATOM      9  O   UNL     1      -0.122   9.058   1.178  0.00  0.00    -0.457 OA
ATOM     10  C   UNL     1      -0.256   8.258  -0.028  0.00  0.00    +0.125 C 
ATOM     11  C   UNL     1      -0.178   9.149  -1.265  0.00  0.00    +0.049 C 
ATOM     12  C   UNL     1       1.197   9.818  -1.327  0.00  0.00    +0.004 C 
ATOM     13  C   UNL     1       2.284   8.742  -1.391  0.00  0.00    +0.000 C 
ATOM     14  C   UNL     1       2.207   7.863  -0.141  0.00  0.00    +0.004 C 
ATOM     15  C   UNL     1       0.834   7.189  -0.076  0.00  0.00    +0.049 C 
ENDBRANCH   2   5
BRANCH   1  22
ATOM     16  C   UNL     1      -0.156   4.097  -3.320  0.00  0.00    +0.045 C 
ATOM     17  C   UNL     1      -0.793   3.334  -2.188  0.00  0.00    -0.029 A 
ATOM     18  C   UNL     1      -0.784   1.953  -2.193  0.00  0.00    +0.007 A 
ATOM     19  C   UNL     1      -1.369   1.252  -1.154  0.00  0.00    +0.033 A 
ATOM     20  C   UNL     1      -1.963   1.931  -0.106  0.00  0.00    +0.128 A 
ATOM     21  C   UNL     1      -1.979   3.312  -0.097  0.00  0.00    +0.056 A 
ATOM     22  C   UNL     1      -1.389   4.019  -1.137  0.00  0.00    +0.038 A 
BRANCH  20  23
ATOM     23  N   UNL     1      -2.587   1.177   1.004  0.00  0.00    +0.056 N 
ATOM     24  O   UNL     1      -2.578  -0.041   0.994  0.00  0.00    -0.126 OA
ATOM     25  O   UNL     1      -3.107   1.774   1.929  0.00  0.00    -0.126 OA
ENDBRANCH  20  23
ENDBRANCH   1  22
TORSDOF 3
