REMARK  Name = ZINC39061278
REMARK  3 active torsions:
REMARK  status: ('A' for Active; 'I' for Inactive)
REMARK    1  A    between atoms: C_1  and  C_2
REMARK    2  A    between atoms: C_2  and  C_3
REMARK    3  A    between atoms: C_7  and  C_12
REMARK                            x       y       z     vdW  Elec       q    Type
REMARK                         _______ _______ _______ _____ _____    ______ ____
ROOT
ATOM      1  C   UNL     1       0.769  -0.382  -1.269  0.00  0.00    +0.104 C 
ATOM      2  C   UNL     1       0.845  -1.918  -1.413  0.00  0.00    +0.184 C 
ATOM      3  O   UNL     1      -0.259  -2.231  -2.295  0.00  0.00    -0.357 OA
ATOM      4  C   UNL     1      -0.263  -1.145  -3.247  0.00  0.00    +0.205 C 
ATOM      5  N   UNL     1       0.033   0.075  -2.465  0.00  0.00    -0.273 N 
ATOM      6  C   UNL     1      -0.300   1.343  -2.778  0.00  0.00    +0.330 C 
ATOM      7  O   UNL     1      -0.985   1.566  -3.754  0.00  0.00    -0.279 OA
ATOM      8  C   UNL     1      -1.636  -1.029  -3.910  0.00  0.00    +0.060 C 
ENDROOT
BRANCH   1  10
ATOM      9  C   UNL     1       0.851  -0.358   1.228  0.00  0.00    +0.006 C 
ATOM     10  C   UNL     1       0.006  -0.003   0.002  0.00  0.00    +0.021 C 
ENDBRANCH   1  10
TORSDOF 1
