REMARK  Name = ZINC63491494
REMARK  7 active torsions:
REMARK  status: ('A' for Active; 'I' for Inactive)
REMARK    1  A    between atoms: C_1  and  O_2
REMARK    2  A    between atoms: O_2  and  C_3
REMARK    3  A    between atoms: C_15  and  N_16
REMARK    4  A    between atoms: C_17  and  C_19
REMARK    5  A    between atoms: N_21  and  C_22
REMARK    6  A    between atoms: C_22  and  C_23
REMARK    7  A    between atoms: C_23  and  C_24
REMARK                            x       y       z     vdW  Elec       q    Type
REMARK                         _______ _______ _______ _____ _____    ______ ____
ROOT
ATOM      1  N   UNL     1       0.095  -2.772  -0.110  0.00  0.00    -0.275 N 
ATOM      2  C   UNL     1       0.056  -4.115  -0.223  0.00  0.00    +0.303 C 
ATOM      3  O   UNL     1       0.593  -4.660  -1.165  0.00  0.00    -0.265 OA
ATOM      4  H   UNL     1      -0.264  -2.342   0.682  0.00  0.00    +0.155 HD
ENDROOT
BRANCH   1  17
ATOM      5  C   UNL     1       1.163  -0.733  -0.847  0.00  0.00    +0.142 A 
ATOM      6  C   UNL     1       1.720   0.030  -1.855  0.00  0.00    +0.059 A 
ATOM      7  C   UNL     1       1.763  -0.467  -3.155  0.00  0.00    +0.031 A 
ATOM      8  C   UNL     1       2.270   0.062  -4.436  0.00  0.00    +0.028 A 
ATOM      9  C   UNL     1       2.889   1.249  -4.812  0.00  0.00    +0.012 A 
ATOM     10  C   UNL     1       3.251   1.444  -6.129  0.00  0.00    +0.001 A 
ATOM     11  C   UNL     1       2.998   0.460  -7.072  0.00  0.00    +0.004 A 
ATOM     12  C   UNL     1       2.384  -0.720  -6.709  0.00  0.00    +0.047 A 
ATOM     13  C   UNL     1       2.013  -0.934  -5.387  0.00  0.00    +0.136 A 
ATOM     14  O   UNL     1       1.411  -1.974  -4.769  0.00  0.00    -0.455 OA
ATOM     15  C   UNL     1       1.245  -1.737  -3.448  0.00  0.00    +0.138 A 
ATOM     16  C   UNL     1       0.687  -2.495  -2.427  0.00  0.00    +0.074 A 
ATOM     17  C   UNL     1       0.652  -2.001  -1.133  0.00  0.00    +0.079 A 
BRANCH   5  19
ATOM     18  C   UNL     1       1.661   1.052   0.644  0.00  0.00    +0.277 C 
ATOM     19  O   UNL     1       1.119  -0.252   0.424  0.00  0.00    -0.493 OA
ENDBRANCH   5  19
ENDBRANCH   1  17
BRANCH   2  20
ATOM     20  C   UNL     1      -0.648  -4.931   0.811  0.00  0.00    +0.299 C 
ATOM     21  O   UNL     1      -1.185  -4.386   1.753  0.00  0.00    -0.265 OA
ATOM     22  N   UNL     1      -0.687  -6.274   0.698  0.00  0.00    -0.307 N 
ATOM     23  H   UNL     1      -0.258  -6.710  -0.055  0.00  0.00    +0.149 HD
BRANCH  22  24
ATOM     24  C   UNL     1      -1.377  -7.074   1.712  0.00  0.00    +0.109 C 
BRANCH  24  25
ATOM     25  C   UNL     1      -1.273  -8.557   1.348  0.00  0.00    +0.052 C 
BRANCH  25  26
ATOM     26  C   UNL     1      -1.984  -9.381   2.392  0.00  0.00    -0.040 C 
ATOM     27  C   UNL     1      -3.257  -9.834   2.341  0.00  0.00    -0.001 A 
ATOM     28  C   UNL     1      -4.321  -9.701   1.339  0.00  0.00    +0.010 A 
ATOM     29  C   UNL     1      -5.521 -10.279   1.575  0.00  0.00    +0.001 A 
ATOM     30  C   UNL     1      -5.773 -11.000   2.750  0.00  0.00    +0.002 A 
ATOM     31  C   UNL     1      -4.845 -11.166   3.717  0.00  0.00    +0.026 A 
ATOM     32  C   UNL     1      -3.548 -10.601   3.573  0.00  0.00    +0.043 A 
ATOM     33  N   UNL     1      -2.496 -10.621   4.355  0.00  0.00    -0.380 N 
ATOM     34  C   UNL     1      -1.415  -9.873   3.704  0.00  0.00    +0.144 C 
ATOM     35  H   UNL     1      -2.440 -11.060   5.218  0.00  0.00    +0.160 HD
ENDBRANCH  25  26
ENDBRANCH  24  25
ENDBRANCH  22  24
ENDBRANCH   2  20
TORSDOF 6
