REMARK  Name = ZINC58369306
REMARK  10 active torsions:
REMARK  status: ('A' for Active; 'I' for Inactive)
REMARK    1  A    between atoms: C_1  and  C_2
REMARK    2  A    between atoms: C_2  and  C_3
REMARK    3  A    between atoms: C_3  and  C_4
REMARK    4  A    between atoms: C_3  and  N_5
REMARK    5  A    between atoms: C_6  and  C_8
REMARK    6  A    between atoms: C_12  and  C_14
REMARK    7  A    between atoms: C_14  and  N_15
REMARK    8  A    between atoms: C_16  and  C_18
REMARK    9  A    between atoms: C_22  and  N_25
REMARK   10  A    between atoms: C_23  and  N_24
REMARK                            x       y       z     vdW  Elec       q    Type
REMARK                         _______ _______ _______ _____ _____    ______ ____
ROOT
ATOM      1  N   UNL     1      -0.032   2.846  -9.130  0.00  0.00    -0.307 N 
ATOM      2  C   UNL     1       0.750   3.165 -10.180  0.00  0.00    +0.246 C 
ATOM      3  O   UNL     1       0.771   2.449 -11.163  0.00  0.00    -0.270 OA
ATOM      4  H   UNL     1      -0.049   3.417  -8.346  0.00  0.00    +0.149 HD
ENDROOT
BRANCH   2   5
ATOM      5  C   UNL     1       1.581   4.382 -10.137  0.00  0.00    +0.062 A 
ATOM      6  C   UNL     1       1.473   5.269  -9.063  0.00  0.00    +0.053 A 
ATOM      7  C   UNL     1       2.253   6.406  -9.029  0.00  0.00    +0.126 A 
ATOM      8  C   UNL     1       3.146   6.673 -10.057  0.00  0.00    +0.073 A 
ATOM      9  C   UNL     1       3.263   5.806 -11.123  0.00  0.00    +0.150 A 
ATOM     10  C   UNL     1       2.490   4.653 -11.171  0.00  0.00    +0.068 A 
ATOM     11  F   UNL     1       2.147   7.264  -7.990  0.00  0.00    -0.205 F 
BRANCH  10  12
ATOM     12  N   UNL     1       2.612   3.774 -12.241  0.00  0.00    -0.356 N 
ATOM     13  H   UNL     1       2.803   4.115 -13.129  0.00  0.00    +0.142 HD
ATOM     14  H   UNL     1       2.506   2.820 -12.100  0.00  0.00    +0.142 HD
ENDBRANCH  10  12
BRANCH   9  15
ATOM     15  N   UNL     1       4.219   6.101 -12.215  0.00  0.00    +0.058 N 
ATOM     16  O   UNL     1       4.815   7.153 -12.228  0.00  0.00    -0.126 OA
ATOM     17  O   UNL     1       4.402   5.290 -13.093  0.00  0.00    -0.126 OA
ENDBRANCH   9  15
ENDBRANCH   2   5
BRANCH   1  18
ATOM     18  C   UNL     1      -0.858   1.636  -9.173  0.00  0.00    +0.139 C 
BRANCH  18  23
ATOM     19  C   UNL     1      -1.806   0.707  -5.630  0.00  0.00    +0.037 A 
ATOM     20  C   UNL     1      -3.071   1.288  -5.525  0.00  0.00    +0.013 A 
ATOM     21  C   UNL     1      -3.603   1.973  -6.597  0.00  0.00    +0.001 A 
ATOM     22  C   UNL     1      -2.886   2.084  -7.776  0.00  0.00    +0.005 A 
ATOM     23  C   UNL     1      -1.632   1.510  -7.886  0.00  0.00    -0.030 A 
ATOM     24  C   UNL     1      -1.086   0.827  -6.819  0.00  0.00    +0.018 A 
BRANCH  19  26
ATOM     25  N   UNL     1      -1.928  -0.144  -3.337  0.00  0.00    -0.309 N 
ATOM     26  C   UNL     1      -1.230  -0.029  -4.484  0.00  0.00    +0.244 C 
ATOM     27  O   UNL     1      -0.126  -0.529  -4.576  0.00  0.00    -0.270 OA
ATOM     28  H   UNL     1      -2.809   0.256  -3.263  0.00  0.00    +0.149 HD
BRANCH  25  29
ATOM     29  C   UNL     1      -1.357  -0.872  -2.201  0.00  0.00    +0.070 C 
ATOM     30  C   UNL     1      -1.647  -2.366  -2.356  0.00  0.00    +0.028 C 
BRANCH  29  32
ATOM     31  C   UNL     1      -1.589   1.099  -0.684  0.00  0.00    +0.005 C 
ATOM     32  C   UNL     1      -1.983  -0.363  -0.901  0.00  0.00    +0.018 C 
ENDBRANCH  29  32
ENDBRANCH  25  29
ENDBRANCH  19  26
ENDBRANCH  18  23
ENDBRANCH   1  18
TORSDOF 8
