REMARK  Name = ZINC39915949
REMARK  10 active torsions:
REMARK  status: ('A' for Active; 'I' for Inactive)
REMARK    1  A    between atoms: C_4  and  C_7
REMARK    2  A    between atoms: C_10  and  C_12
REMARK    3  A    between atoms: C_12  and  N_13
REMARK    4  A    between atoms: C_21  and  S_22
REMARK    5  A    between atoms: S_22  and  C_23
REMARK    6  A    between atoms: C_25  and  O_38
REMARK    7  A    between atoms: C_27  and  O_37
REMARK    8  A    between atoms: C_29  and  O_36
REMARK    9  A    between atoms: C_31  and  C_34
REMARK   10  A    between atoms: C_34  and  O_35
REMARK                            x       y       z     vdW  Elec       q    Type
REMARK                         _______ _______ _______ _____ _____    ______ ____
ROOT
ATOM      1  N   UNL     1       6.417  -4.160   1.387  0.00  0.00    -0.309 N 
ATOM      2  C   UNL     1       7.521  -3.952   2.197  0.00  0.00    +0.070 A 
ATOM      3  C   UNL     1       8.737  -3.310   2.018  0.00  0.00    +0.028 A 
ATOM      4  C   UNL     1       9.654  -3.276   3.049  0.00  0.00    +0.002 A 
ATOM      5  C   UNL     1       9.368  -3.880   4.264  0.00  0.00    +0.002 A 
ATOM      6  C   UNL     1       8.166  -4.522   4.459  0.00  0.00    +0.030 A 
ATOM      7  C   UNL     1       7.226  -4.565   3.426  0.00  0.00    +0.090 A 
ATOM      8  N   UNL     1       5.985  -5.107   3.315  0.00  0.00    -0.222 NA
ATOM      9  C   UNL     1       5.505  -4.865   2.120  0.00  0.00    +0.173 A 
ENDROOT
BRANCH   1  10
ATOM     10  C   UNL     1       6.255  -3.703   0.005  0.00  0.00    +0.222 C 
BRANCH  10  14
ATOM     11  C   UNL     1       4.213  -0.710  -0.027  0.00  0.00    +0.248 A 
ATOM     12  N   UNL     1       5.431  -0.224   0.011  0.00  0.00    -0.107 NA
ATOM     13  N   UNL     1       6.275  -1.195   0.026  0.00  0.00    -0.110 NA
ATOM     14  C   UNL     1       5.634  -2.330  -0.001  0.00  0.00    +0.237 A 
ATOM     15  O   UNL     1       4.319  -2.054  -0.030  0.00  0.00    -0.418 OA
BRANCH  11  19
ATOM     16  C   UNL     1       0.607   1.533  -0.107  0.00  0.00    +0.000 A 
ATOM     17  C   UNL     1       1.825   2.188  -0.074  0.00  0.00    +0.001 A 
ATOM     18  C   UNL     1       3.000   1.466  -0.048  0.00  0.00    +0.013 A 
ATOM     19  C   UNL     1       2.958   0.071  -0.055  0.00  0.00    +0.038 A 
ATOM     20  C   UNL     1       1.726  -0.584  -0.088  0.00  0.00    +0.013 A 
ATOM     21  C   UNL     1       0.558   0.151  -0.114  0.00  0.00    +0.001 A 
ENDBRANCH  11  19
ENDBRANCH  10  14
ENDBRANCH   1  10
BRANCH   9  22
ATOM     22  S   UNL     1       3.921  -5.378   1.543  0.00  0.00    -0.054 S 
BRANCH  22  23
ATOM     23  C   UNL     1       3.201  -6.256   2.958  0.00  0.00    +0.214 C 
ATOM     24  C   UNL     1       1.759  -6.654   2.633  0.00  0.00    +0.185 C 
ATOM     25  C   UNL     1       1.179  -7.447   3.808  0.00  0.00    +0.177 C 
ATOM     26  C   UNL     1       2.070  -8.663   4.079  0.00  0.00    +0.176 C 
ATOM     27  C   UNL     1       3.500  -8.188   4.348  0.00  0.00    +0.176 C 
ATOM     28  O   UNL     1       3.968  -7.431   3.230  0.00  0.00    -0.355 OA
BRANCH  26  29
ATOM     29  O   UNL     1       1.578  -9.371   5.218  0.00  0.00    -0.386 OA
ATOM     30  H   UNL     1       0.674  -9.698   5.118  0.00  0.00    +0.210 HD
ENDBRANCH  26  29
BRANCH  25  31
ATOM     31  O   UNL     1       1.135  -6.616   4.970  0.00  0.00    -0.386 OA
ATOM     32  H   UNL     1       0.591  -5.823   4.865  0.00  0.00    +0.210 HD
ENDBRANCH  25  31
BRANCH  24  33
ATOM     33  O   UNL     1       0.977  -5.478   2.416  0.00  0.00    -0.386 OA
ATOM     34  H   UNL     1       1.291  -4.925   1.687  0.00  0.00    +0.210 HD
ENDBRANCH  24  33
BRANCH  27  35
ATOM     35  C   UNL     1       3.519  -7.310   5.602  0.00  0.00    +0.190 C 
BRANCH  35  36
ATOM     36  O   UNL     1       4.870  -6.993   5.941  0.00  0.00    -0.392 OA
ATOM     37  H   UNL     1       4.958  -6.438   6.728  0.00  0.00    +0.210 HD
ENDBRANCH  35  36
ENDBRANCH  27  35
ENDBRANCH  22  23
ENDBRANCH   9  22
TORSDOF 10
