REMARK  Name = ZINC12792759
REMARK  7 active torsions:
REMARK  status: ('A' for Active; 'I' for Inactive)
REMARK    1  A    between atoms: C_1  and  C_2
REMARK    2  A    between atoms: C_3  and  C_8
REMARK    3  A    between atoms: C_4  and  C_7
REMARK    4  A    between atoms: C_8  and  S_9
REMARK    5  A    between atoms: S_9  and  C_10
REMARK    6  A    between atoms: C_10  and  C_11
REMARK    7  A    between atoms: N_13  and  C_14
REMARK                            x       y       z     vdW  Elec       q    Type
REMARK                         _______ _______ _______ _____ _____    ______ ____
ROOT
ATOM      1  C   UNL     1       4.693   4.261   2.851  0.00  0.00    +0.227 C 
ATOM      2  O   UNL     1       4.173   5.250   2.380  0.00  0.00    -0.275 OA
ATOM      3  N   UNL     1       6.003   4.273   3.167  0.00  0.00    -0.285 N 
ATOM      4  H   UNL     1       6.404   3.506   3.605  0.00  0.00    +0.155 HD
ENDROOT
BRANCH   3   5
ATOM      5  C   UNL     1       6.787   5.394   2.861  0.00  0.00    +0.035 A 
ATOM      6  C   UNL     1       8.116   5.230   2.488  0.00  0.00    +0.025 A 
ATOM      7  C   UNL     1       8.892   6.330   2.181  0.00  0.00    +0.029 A 
ATOM      8  C   UNL     1       8.347   7.603   2.255  0.00  0.00    +0.067 A 
ATOM      9  C   UNL     1       7.014   7.771   2.635  0.00  0.00    +0.069 A 
ATOM     10  C   UNL     1       6.237   6.664   2.938  0.00  0.00    +0.051 A 
ATOM     11  N   UNL     1       6.760   9.140   2.618  0.00  0.00    -0.306 N 
ATOM     12  H   UNL     1       5.915   9.563   2.838  0.00  0.00    +0.170 HD
ATOM     13  C   UNL     1       7.886   9.777   2.244  0.00  0.00    +0.325 A 
ATOM     14  O   UNL     1       8.004  10.982   2.128  0.00  0.00    -0.247 OA
ATOM     15  N   UNL     1       8.862   8.877   2.018  0.00  0.00    -0.306 N 
ATOM     16  H   UNL     1       9.768   9.081   1.739  0.00  0.00    +0.170 HD
ENDBRANCH   3   5
BRANCH   1  17
ATOM     17  C   UNL     1       3.874   3.018   3.084  0.00  0.00    +0.165 C 
BRANCH  17  18
ATOM     18  S   UNL     1       2.162   3.315   2.562  0.00  0.00    -0.147 S 
BRANCH  18  19
ATOM     19  C   UNL     1       1.320   1.745   2.904  0.00  0.00    +0.110 C 
BRANCH  19  22
ATOM     20  C   UNL     1      -0.012   1.069   0.023  0.00  0.00    +0.069 C 
ATOM     21  C   UNL     1      -0.718   1.565   1.258  0.00  0.00    +0.085 A 
ATOM     22  C   UNL     1      -0.131   1.857   2.510  0.00  0.00    +0.027 A 
ATOM     23  C   UNL     1      -1.173   2.262   3.275  0.00  0.00    +0.138 A 
ATOM     24  O   UNL     1      -2.262   2.198   2.496  0.00  0.00    -0.359 OA
ATOM     25  N   UNL     1      -1.990   1.815   1.382  0.00  0.00    -0.083 NA
ATOM     26  C   UNL     1      -1.119   2.699   4.716  0.00  0.00    +0.089 C 
ENDBRANCH  19  22
ENDBRANCH  18  19
ENDBRANCH  17  18
ENDBRANCH   1  17
TORSDOF 5
