REMARK  Name = ZINC28689572
REMARK  10 active torsions:
REMARK  status: ('A' for Active; 'I' for Inactive)
REMARK    1  A    between atoms: C_1  and  C_2
REMARK    2  A    between atoms: C_2  and  C_3
REMARK    3  A    between atoms: C_2  and  C_4
REMARK    4  A    between atoms: C_4  and  C_6
REMARK    5  A    between atoms: C_4  and  N_23
REMARK    6  A    between atoms: N_8  and  C_9
REMARK    7  A    between atoms: C_9  and  C_10
REMARK    8  A    between atoms: C_10  and  S_11
REMARK    9  A    between atoms: S_11  and  C_12
REMARK   10  A    between atoms: C_15  and  C_18
REMARK                            x       y       z     vdW  Elec       q    Type
REMARK                         _______ _______ _______ _____ _____    ______ ____
ROOT
ATOM      1  C   UNL     1      -2.665  -5.983  -0.007  0.00  0.00    +0.234 C 
ATOM      2  O   UNL     1      -1.840  -6.872  -0.020  0.00  0.00    -0.274 OA
ATOM      3  N   UNL     1      -2.268  -4.695  -0.004  0.00  0.00    -0.313 N 
ATOM      4  H   UNL     1      -3.017  -3.889   0.008  0.00  0.00    +0.149 HD
ENDROOT
BRANCH   1   5
ATOM      5  C   UNL     1      -4.135  -6.319   0.005  0.00  0.00    +0.163 C 
BRANCH   5   6
ATOM      6  N   UNL     1      -4.303  -7.774  -0.002  0.00  0.00    -0.288 N 
ATOM      7  C   UNL     1      -5.436  -8.319  -0.488  0.00  0.00    +0.298 C 
ATOM      8  O   UNL     1      -6.318  -7.603  -0.921  0.00  0.00    -0.253 OA
ATOM      9  N   UNL     1      -5.591  -9.658  -0.494  0.00  0.00    -0.313 N 
ATOM     10  H   UNL     1      -3.505  -8.422   0.389  0.00  0.00    +0.151 HD
ATOM     11  H   UNL     1      -6.516 -10.102  -0.891  0.00  0.00    +0.146 HD
ATOM     12  H   UNL     1      -4.793 -10.306  -0.103  0.00  0.00    +0.146 HD
ENDBRANCH   5   6
BRANCH   5  14
ATOM     13  C   UNL     1      -6.272  -6.077   1.275  0.00  0.00    +0.009 C 
ATOM     14  C   UNL     1      -4.781  -5.736   1.263  0.00  0.00    +0.012 C 
ATOM     15  C   UNL     1      -4.111  -6.333   2.503  0.00  0.00    +0.009 C 
ENDBRANCH   5  14
ENDBRANCH   1   5
BRANCH   3  16
ATOM     16  C   UNL     1      -0.840  -4.369  -0.015  0.00  0.00    +0.115 C 
BRANCH  16  17
ATOM     17  C   UNL     1      -0.664  -2.849  -0.008  0.00  0.00    +0.094 C 
BRANCH  17  18
ATOM     18  S   UNL     1       1.104  -2.445  -0.022  0.00  0.00    -0.103 S 
BRANCH  18  19
ATOM     19  C   UNL     1       1.139  -0.683  -0.013  0.00  0.00    +0.115 A 
ATOM     20  C   UNL     1       2.362  -0.017  -0.021  0.00  0.00    +0.073 A 
ATOM     21  C   UNL     1       2.374   1.367  -0.013  0.00  0.00    +0.036 A 
ATOM     22  C   UNL     1       1.159   2.040   0.002  0.00  0.00    +0.074 A 
ATOM     23  C   UNL     1      -0.016   1.316   0.009  0.00  0.00    +0.124 A 
ATOM     24  N   UNL     1       0.002  -0.004   0.002  0.00  0.00    -0.247 NA
ATOM     25 CL   UNL     1       3.851  -0.909  -0.039  0.00  0.00    -0.081 Cl
BRANCH  22  26
ATOM     26  C   UNL     1       1.124   3.547   0.010  0.00  0.00    +0.419 C 
ATOM     27  F   UNL     1      -0.206   3.982   0.025  0.00  0.00    -0.166 F 
ATOM     28  F   UNL     1       1.783   4.022   1.148  0.00  0.00    -0.166 F 
ATOM     29  F   UNL     1       1.761   4.034  -1.136  0.00  0.00    -0.166 F 
ENDBRANCH  22  26
ENDBRANCH  18  19
ENDBRANCH  17  18
ENDBRANCH  16  17
ENDBRANCH   3  16
TORSDOF 8
