REMARK  Name = ZINC38833631
REMARK  10 active torsions:
REMARK  status: ('A' for Active; 'I' for Inactive)
REMARK    1  A    between atoms: C_1  and  C_2
REMARK    2  A    between atoms: C_5  and  N_9
REMARK    3  A    between atoms: C_7  and  C_8
REMARK    4  A    between atoms: C_10  and  C_12
REMARK    5  A    between atoms: N_15  and  S_27
REMARK    6  A    between atoms: C_18  and  C_23
REMARK    7  A    between atoms: C_23  and  C_24
REMARK    8  A    between atoms: C_23  and  C_25
REMARK    9  A    between atoms: C_23  and  C_26
REMARK   10  A    between atoms: S_27  and  C_30
REMARK                            x       y       z     vdW  Elec       q    Type
REMARK                         _______ _______ _______ _____ _____    ______ ____
ROOT
ATOM      1  C   UNL     1      -0.134  -6.343  -1.187  0.00  0.00    +0.278 C 
ATOM      2  C   UNL     1      -1.446  -6.777  -0.518  0.00  0.00    +0.185 C 
ATOM      3  N   UNL     1      -1.516  -8.246  -0.586  0.00  0.00    -0.200 N 
ATOM      4  C   UNL     1      -1.122  -8.864  -1.784  0.00  0.00    +0.093 A 
ATOM      5  C   UNL     1      -1.430 -10.195  -2.013  0.00  0.00    +0.032 A 
ATOM      6  C   UNL     1      -1.038 -10.800  -3.194  0.00  0.00    -0.040 A 
ATOM      7  C   UNL     1      -0.340 -10.077  -4.144  0.00  0.00    +0.008 A 
ATOM      8  C   UNL     1      -0.032  -8.748  -3.921  0.00  0.00    +0.048 A 
ATOM      9  C   UNL     1      -0.422  -8.133  -2.741  0.00  0.00    +0.144 A 
ATOM     10  O   UNL     1      -0.119  -6.824  -2.533  0.00  0.00    -0.476 OA
ENDROOT
BRANCH   1  12
ATOM     11  N   UNL     1       0.059  -4.170  -0.021  0.00  0.00    -0.282 N 
ATOM     12  C   UNL     1      -0.040  -4.839  -1.187  0.00  0.00    +0.260 C 
ATOM     13  O   UNL     1      -0.054  -4.230  -2.236  0.00  0.00    -0.271 OA
ATOM     14  H   UNL     1       0.147  -4.658   0.812  0.00  0.00    +0.155 HD
BRANCH  11  19
ATOM     15  C   UNL     1      -0.042   1.502   0.014  0.00  0.00    +0.044 C 
ATOM     16  C   UNL     1      -0.015  -0.004   0.004  0.00  0.00    -0.047 A 
ATOM     17  C   UNL     1      -0.752  -0.702  -0.935  0.00  0.00    +0.005 A 
ATOM     18  C   UNL     1      -0.730  -2.083  -0.946  0.00  0.00    +0.023 A 
ATOM     19  C   UNL     1       0.034  -2.771  -0.013  0.00  0.00    +0.034 A 
ATOM     20  C   UNL     1       0.773  -2.068   0.929  0.00  0.00    +0.027 A 
ATOM     21  C   UNL     1       0.751  -0.686   0.932  0.00  0.00    -0.046 A 
ATOM     22  C   UNL     1       1.557   0.078   1.950  0.00  0.00    +0.044 C 
ENDBRANCH  11  19
ENDBRANCH   1  12
BRANCH   6  23
ATOM     23  C   UNL     1      -1.371 -12.248  -3.445  0.00  0.00    -0.013 C 
ATOM     24  C   UNL     1      -2.890 -12.433  -3.421  0.00  0.00    +0.015 C 
ATOM     25  C   UNL     1      -0.828 -12.666  -4.812  0.00  0.00    +0.015 C 
ATOM     26  C   UNL     1      -0.735 -13.114  -2.356  0.00  0.00    +0.015 C 
ENDBRANCH   6  23
BRANCH   3  27
ATOM     27  S   UNL     1      -2.039  -9.140   0.706  0.00  0.00    +0.043 S 
ATOM     28  O   UNL     1      -1.420 -10.409   0.544  0.00  0.00    -0.155 OA
ATOM     29  O   UNL     1      -1.755  -8.335   1.842  0.00  0.00    -0.155 OA
ATOM     30  C   UNL     1      -3.832  -9.286   0.476  0.00  0.00    +0.218 C 
ENDBRANCH   3  27
TORSDOF 4
