REMARK  Name = ZINC04718510
REMARK  7 active torsions:
REMARK  status: ('A' for Active; 'I' for Inactive)
REMARK    1  A    between atoms: C_1  and  C_2
REMARK    2  A    between atoms: C_2  and  C_3
REMARK    3  A    between atoms: C_2  and  C_4
REMARK    4  A    between atoms: C_2  and  C_5
REMARK    5  A    between atoms: C_12  and  N_24
REMARK    6  A    between atoms: C_13  and  C_22
REMARK    7  A    between atoms: C_14  and  C_16
REMARK                            x       y       z     vdW  Elec       q    Type
REMARK                         _______ _______ _______ _____ _____    ______ ____
ROOT
ATOM      1  C   UNL     1       0.916  -0.334  -1.950  0.00  0.00    +0.049 A 
ATOM      2  C   UNL     1       1.129  -1.658  -1.919  0.00  0.00    +0.050 A 
ATOM      3  C   UNL     1       2.002  -1.988  -2.979  0.00  0.00    +0.245 A 
ATOM      4  N   UNL     1       2.294  -0.891  -3.616  0.00  0.00    -0.135 NA
ATOM      5  N   UNL     1       1.618   0.170  -2.991  0.00  0.00    -0.277 N 
ATOM      6  H   UNL     1       1.650   1.101  -3.259  0.00  0.00    +0.189 HD
ATOM      7  O   UNL     1       2.410  -3.265  -3.207  0.00  0.00    -0.421 OA
ATOM      8  C   UNL     1       2.179  -4.173  -2.238  0.00  0.00    +0.201 C 
ATOM      9  C   UNL     1       1.357  -3.976  -1.186  0.00  0.00    +0.098 C 
ATOM     10  C   UNL     1       0.586  -2.698  -0.972  0.00  0.00    +0.103 C 
ENDROOT
BRANCH  10  11
ATOM     11  C   UNL     1      -0.875  -2.932  -1.256  0.00  0.00    -0.016 A 
ATOM     12  C   UNL     1      -1.797  -2.956  -0.220  0.00  0.00    +0.007 A 
ATOM     13  C   UNL     1      -3.131  -3.175  -0.529  0.00  0.00    +0.020 A 
ATOM     14  C   UNL     1      -3.495  -3.361  -1.850  0.00  0.00    +0.111 A 
ATOM     15  N   UNL     1      -2.590  -3.332  -2.809  0.00  0.00    -0.263 NA
ATOM     16  C   UNL     1      -1.314  -3.120  -2.553  0.00  0.00    +0.115 A 
ENDBRANCH  10  11
BRANCH   1  18
ATOM     17  C   UNL     1       0.200   1.945  -1.286  0.00  0.00    +0.017 C 
ATOM     18  C   UNL     1       0.047   0.450  -1.001  0.00  0.00    +0.004 C 
ATOM     19  C   UNL     1       0.474   0.160   0.440  0.00  0.00    +0.017 C 
ATOM     20  C   UNL     1      -1.415   0.040  -1.191  0.00  0.00    +0.017 C 
ENDBRANCH   1  18
BRANCH   8  21
ATOM     21  N   UNL     1       2.823  -5.381  -2.328  0.00  0.00    -0.328 N 
ATOM     22  H   UNL     1       3.421  -5.558  -3.070  0.00  0.00    +0.145 HD
ATOM     23  H   UNL     1       2.681  -6.059  -1.648  0.00  0.00    +0.145 HD
ENDBRANCH   8  21
BRANCH   9  24
ATOM     24  C   UNL     1       1.210  -5.030  -0.228  0.00  0.00    +0.101 C 
ATOM     25  N   UNL     1       1.093  -5.867   0.532  0.00  0.00    -0.191 NA
ENDBRANCH   9  24
TORSDOF 4
