REMARK  Name = ZINC40629532
REMARK  8 active torsions:
REMARK  status: ('A' for Active; 'I' for Inactive)
REMARK    1  A    between atoms: C_1  and  C_2
REMARK    2  A    between atoms: C_5  and  S_8
REMARK    3  A    between atoms: S_8  and  N_11
REMARK    4  A    between atoms: N_11  and  C_12
REMARK    5  A    between atoms: C_12  and  C_13
REMARK    6  A    between atoms: C_13  and  C_14
REMARK    7  A    between atoms: C_13  and  C_15
REMARK    8  A    between atoms: C_13  and  O_22
REMARK                            x       y       z     vdW  Elec       q    Type
REMARK                         _______ _______ _______ _____ _____    ______ ____
ROOT
ATOM      1  N   UNL     1       1.651  -4.999  -0.034  0.00  0.00    -0.187 NA
ATOM      2  H   UNL     1       2.011  -5.473  -0.800  0.00  0.00    +0.148 HD
ENDROOT
BRANCH   1   3
ATOM      3  S   UNL     1       0.063  -4.530  -0.023  0.00  0.00    +0.058 S 
ATOM      4  O   UNL     1      -0.476  -4.950   1.223  0.00  0.00    -0.153 OA
ATOM      5  O   UNL     1      -0.490  -4.937  -1.267  0.00  0.00    -0.153 OA
BRANCH   3  10
ATOM      6  C   UNL     1      -0.018   1.503   0.010  0.00  0.00    +0.044 C 
ATOM      7  C   UNL     1       0.002  -0.004   0.002  0.00  0.00    -0.050 A 
ATOM      8  C   UNL     1       0.006  -0.689  -1.199  0.00  0.00    +0.005 A 
ATOM      9  C   UNL     1       0.025  -2.071  -1.206  0.00  0.00    +0.029 A 
ATOM     10  C   UNL     1       0.040  -2.768  -0.013  0.00  0.00    +0.105 A 
ATOM     11  C   UNL     1       0.037  -2.084   1.188  0.00  0.00    +0.029 A 
ATOM     12  C   UNL     1       0.023  -0.702   1.195  0.00  0.00    +0.005 A 
ENDBRANCH   3  10
ENDBRANCH   1   3
BRANCH   1  13
ATOM     13  C   UNL     1       2.512  -4.699   1.113  0.00  0.00    +0.145 C 
BRANCH  13  14
ATOM     14  C   UNL     1       3.787  -5.540   1.028  0.00  0.00    +0.102 C 
ATOM     15  C   UNL     1       3.414  -7.020   0.915  0.00  0.00    +0.048 C 
BRANCH  14  16
ATOM     16  C   UNL     1       4.615  -5.324   2.267  0.00  0.00    -0.015 A 
ATOM     17  C   UNL     1       3.998  -5.027   3.468  0.00  0.00    +0.008 A 
ATOM     18  C   UNL     1       4.757  -4.828   4.606  0.00  0.00    +0.020 A 
ATOM     19  C   UNL     1       6.136  -4.926   4.543  0.00  0.00    +0.041 A 
ATOM     20  C   UNL     1       6.753  -5.223   3.341  0.00  0.00    +0.020 A 
ATOM     21  C   UNL     1       5.992  -5.427   2.205  0.00  0.00    +0.008 A 
ATOM     22 CL   UNL     1       7.090  -4.675   5.971  0.00  0.00    -0.084 Cl
ENDBRANCH  14  16
BRANCH  14  23
ATOM     23  O   UNL     1       4.539  -5.150  -0.123  0.00  0.00    -0.383 OA
ATOM     24  H   UNL     1       4.810  -4.222  -0.119  0.00  0.00    +0.211 HD
ENDBRANCH  14  23
ENDBRANCH  13  14
ENDBRANCH   1  13
TORSDOF 6
