REMARK  Name = ZINC66590540
REMARK  8 active torsions:
REMARK  status: ('A' for Active; 'I' for Inactive)
REMARK    1  A    between atoms: C_1  and  C_2
REMARK    2  A    between atoms: C_2  and  C_3
REMARK    3  A    between atoms: N_5  and  C_6
REMARK    4  A    between atoms: C_6  and  C_8
REMARK    5  A    between atoms: C_6  and  C_14
REMARK    6  A    between atoms: N_16  and  N_17
REMARK    7  A    between atoms: N_17  and  C_18
REMARK    8  A    between atoms: C_23  and  N_24
REMARK                            x       y       z     vdW  Elec       q    Type
REMARK                         _______ _______ _______ _____ _____    ______ ____
ROOT
ATOM      1  C   UNL     1       3.334  -2.414  -1.718  0.00  0.00    +0.254 C 
ATOM      2  O   UNL     1       3.630  -1.455  -1.037  0.00  0.00    -0.272 OA
ATOM      3  N   UNL     1       4.226  -2.922  -2.590  0.00  0.00    -0.235 N 
ATOM      4  H   UNL     1       3.990  -3.689  -3.135  0.00  0.00    +0.173 HD
ENDROOT
BRANCH   3   5
ATOM      5  N   UNL     1       5.496  -2.342  -2.711  0.00  0.00    -0.262 N 
ATOM      6  H   UNL     1       5.733  -1.575  -2.167  0.00  0.00    +0.170 HD
BRANCH   5   7
ATOM      7  C   UNL     1       6.421  -2.869  -3.615  0.00  0.00    +0.075 A 
ATOM      8  C   UNL     1       6.130  -4.038  -4.308  0.00  0.00    +0.027 A 
ATOM      9  C   UNL     1       7.047  -4.555  -5.201  0.00  0.00    +0.002 A 
ATOM     10  C   UNL     1       8.254  -3.912  -5.407  0.00  0.00    +0.002 A 
ATOM     11  C   UNL     1       8.547  -2.749  -4.720  0.00  0.00    +0.034 A 
ATOM     12  C   UNL     1       7.632  -2.222  -3.829  0.00  0.00    +0.148 A 
BRANCH  12  13
ATOM     13  N   UNL     1       7.943  -0.973  -3.098  0.00  0.00    +0.058 N 
ATOM     14  O   UNL     1       7.072  -0.162  -2.889  0.00  0.00    -0.126 OA
ATOM     15  O   UNL     1       9.069  -0.764  -2.710  0.00  0.00    -0.126 OA
ENDBRANCH  12  13
ENDBRANCH   5   7
ENDBRANCH   3   5
BRANCH   1  16
ATOM     16  C   UNL     1       1.968  -3.038  -1.588  0.00  0.00    +0.191 C 
BRANCH  16  17
ATOM     17  C   UNL     1       1.087  -2.556  -2.712  0.00  0.00    -0.018 A 
ATOM     18  C   UNL     1       0.585  -1.268  -2.693  0.00  0.00    +0.006 A 
ATOM     19  C   UNL     1      -0.223  -0.827  -3.724  0.00  0.00    +0.000 A 
ATOM     20  C   UNL     1      -0.529  -1.673  -4.774  0.00  0.00    +0.000 A 
ATOM     21  C   UNL     1      -0.026  -2.960  -4.793  0.00  0.00    +0.000 A 
ATOM     22  C   UNL     1       0.785  -3.401  -3.764  0.00  0.00    +0.006 A 
ENDBRANCH  16  17
BRANCH  16  25
ATOM     23  C   UNL     1       0.472  -3.459   0.288  0.00  0.00    +0.214 C 
ATOM     24  O   UNL     1       0.080  -4.455  -0.282  0.00  0.00    -0.276 OA
ATOM     25  N   UNL     1       1.376  -2.654  -0.304  0.00  0.00    -0.300 N 
ATOM     26  H   UNL     1       1.635  -1.821   0.119  0.00  0.00    +0.150 HD
BRANCH  23  28
ATOM     27  C   UNL     1      -1.058  -4.188   2.099  0.00  0.00    +0.013 C 
ATOM     28  C   UNL     1      -0.053  -3.121   1.660  0.00  0.00    +0.092 C 
ENDBRANCH  23  28
ENDBRANCH  16  25
ENDBRANCH   1  16
TORSDOF 7
