REMARK  Name = ZINC44865006
REMARK  6 active torsions:
REMARK  status: ('A' for Active; 'I' for Inactive)
REMARK    1  A    between atoms: C_1  and  C_2
REMARK    2  A    between atoms: C_7  and  C_19
REMARK    3  A    between atoms: C_10  and  C_12
REMARK    4  A    between atoms: C_12  and  C_14
REMARK    5  A    between atoms: C_12  and  C_15
REMARK    6  A    between atoms: N_16  and  O_17
REMARK                            x       y       z     vdW  Elec       q    Type
REMARK                         _______ _______ _______ _____ _____    ______ ____
ROOT
ATOM      1  C   UNL     1      -0.192   1.591   0.027  0.00  0.00    +0.028 C 
ATOM      2  C   UNL     1      -0.055   0.067   0.037  0.00  0.00    +0.073 C 
ATOM      3  C   UNL     1      -1.436  -0.573  -0.139  0.00  0.00    +0.022 C 
ATOM      4  C   UNL     1      -1.312  -2.091   0.011  0.00  0.00    +0.004 C 
ATOM      5  C   UNL     1      -0.799  -2.427   1.413  0.00  0.00    +0.022 C 
ATOM      6  C   UNL     1       0.588  -1.808   1.607  0.00  0.00    +0.073 C 
ATOM      7  N   UNL     1       0.511  -0.368   1.321  0.00  0.00    -0.295 N 
ATOM      8  C   UNL     1       0.948   0.535   2.220  0.00  0.00    +0.226 C 
ATOM      9  O   UNL     1       0.501   1.663   2.213  0.00  0.00    -0.275 OA
ATOM     10  C   UNL     1       1.050  -2.023   3.049  0.00  0.00    +0.028 C 
ENDROOT
BRANCH   8  11
ATOM     11  C   UNL     1       1.990   0.144   3.236  0.00  0.00    +0.138 C 
ATOM     12  C   UNL     1       3.182  -0.497   2.522  0.00  0.00    +0.025 C 
BRANCH  11  13
ATOM     13  C   UNL     1       2.451   1.371   3.980  0.00  0.00    +0.143 C 
ATOM     14  N   UNL     1       3.510   2.002   3.593  0.00  0.00    -0.076 NA
ATOM     15  N   UNL     1       1.744   1.819   5.074  0.00  0.00    -0.343 N 
ATOM     16  H   UNL     1       0.950   1.345   5.365  0.00  0.00    +0.144 HD
ATOM     17  H   UNL     1       2.041   2.608   5.553  0.00  0.00    +0.144 HD
BRANCH  14  18
ATOM     18  O   UNL     1       3.943   3.155   4.292  0.00  0.00    -0.408 OA
ATOM     19  H   UNL     1       4.742   3.558   3.928  0.00  0.00    +0.328 HD
ENDBRANCH  14  18
ENDBRANCH  11  13
ENDBRANCH   8  11
TORSDOF 3
