REMARK  Name = ZINC04374896
REMARK  10 active torsions:
REMARK  status: ('A' for Active; 'I' for Inactive)
REMARK    1  A    between atoms: C_1  and  C_2
REMARK    2  A    between atoms: C_2  and  N_3
REMARK    3  A    between atoms: N_6  and  C_7
REMARK    4  A    between atoms: C_10  and  C_13
REMARK    5  A    between atoms: C_15  and  C_24
REMARK    6  A    between atoms: C_16  and  C_23
REMARK    7  A    between atoms: N_17  and  C_21
REMARK    8  A    between atoms: C_21  and  C_22
REMARK    9  A    between atoms: C_24  and  O_26
REMARK   10  A    between atoms: O_26  and  C_27
REMARK                            x       y       z     vdW  Elec       q    Type
REMARK                         _______ _______ _______ _____ _____    ______ ____
ROOT
ATOM      1  C   UNL     1      -7.219   3.877  -0.232  0.00  0.00    +0.141 C 
ATOM      2  C   UNL     1      -7.263   4.528   1.136  0.00  0.00    +0.078 C 
ATOM      3  C   UNL     1      -7.361   5.874   1.189  0.00  0.00    +0.021 C 
ATOM      4  N   UNL     1      -7.419   6.621   0.049  0.00  0.00    -0.286 N 
ATOM      5  C   UNL     1      -7.384   6.099  -1.184  0.00  0.00    +0.138 C 
ATOM      6  S   UNL     1      -7.465   7.152  -2.531  0.00  0.00    -0.018 S 
ATOM      7  N   UNL     1      -7.287   4.772  -1.399  0.00  0.00    -0.315 N 
ATOM      8  C   UNL     1      -7.407   6.562   2.529  0.00  0.00    +0.061 C 
ATOM      9  H   UNL     1      -7.263   4.416  -2.300  0.00  0.00    +0.149 HD
ENDROOT
BRANCH   1  13
ATOM     10  C   UNL     1      -3.593   1.631  -0.507  0.00  0.00    +0.035 A 
ATOM     11  C   UNL     1      -3.576   3.006  -0.698  0.00  0.00    +0.024 A 
ATOM     12  C   UNL     1      -4.750   3.728  -0.613  0.00  0.00    +0.007 A 
ATOM     13  C   UNL     1      -5.940   3.085  -0.329  0.00  0.00    -0.022 A 
ATOM     14  C   UNL     1      -5.960   1.716  -0.133  0.00  0.00    +0.007 A 
ATOM     15  C   UNL     1      -4.790   0.988  -0.222  0.00  0.00    +0.024 A 
BRANCH  10  19
ATOM     16  N   UNL     1      -1.267  -1.025  -1.279  0.00  0.00    -0.299 N 
ATOM     17  C   UNL     1      -2.421  -0.348  -1.117  0.00  0.00    +0.304 C 
ATOM     18  O   UNL     1      -3.476  -0.858  -1.442  0.00  0.00    -0.253 OA
ATOM     19  N   UNL     1      -2.406   0.895  -0.597  0.00  0.00    -0.269 N 
ATOM     20  H   UNL     1      -0.425  -0.618  -1.020  0.00  0.00    +0.150 HD
ATOM     21  H   UNL     1      -1.572   1.280  -0.285  0.00  0.00    +0.156 HD
BRANCH  16  23
ATOM     22  C   UNL     1       0.145  -2.920  -1.908  0.00  0.00    +0.024 C 
ATOM     23  C   UNL     1      -1.284  -2.379  -1.839  0.00  0.00    +0.102 C 
ENDBRANCH  16  23
ENDBRANCH  10  19
ENDBRANCH   1  13
BRANCH   4  24
ATOM     24  C   UNL     1      -7.525   8.076   0.181  0.00  0.00    +0.109 C 
ATOM     25  C   UNL     1      -6.130   8.674   0.373  0.00  0.00    +0.025 C 
ENDBRANCH   4  24
BRANCH   2  26
ATOM     26  C   UNL     1      -7.202   3.752   2.317  0.00  0.00    +0.339 C 
ATOM     27  O   UNL     1      -7.335   4.285   3.403  0.00  0.00    -0.245 OA
BRANCH  26  28
ATOM     28  O   UNL     1      -6.997   2.420   2.240  0.00  0.00    -0.465 OA
ATOM     29  C   UNL     1      -6.947   1.699   3.473  0.00  0.00    +0.280 C 
ENDBRANCH  26  28
ENDBRANCH   2  26
TORSDOF 6
