REMARK  Name = ZINC19345589
REMARK  5 active torsions:
REMARK  status: ('A' for Active; 'I' for Inactive)
REMARK    1  A    between atoms: C_6  and  C_7
REMARK    2  A    between atoms: C_7  and  C_9
REMARK    3  A    between atoms: C_7  and  O_28
REMARK    4  A    between atoms: C_9  and  N_10
REMARK    5  A    between atoms: C_17  and  O_27
REMARK                            x       y       z     vdW  Elec       q    Type
REMARK                         _______ _______ _______ _____ _____    ______ ____
ROOT
ATOM      1  N   UNL     1      -0.037   1.201   2.506  0.00  0.00    +0.382 N 
ATOM      2  C   UNL     1       1.397   1.506   2.422  0.00  0.00    -0.075 C 
ATOM      3  C   UNL     1       2.107   0.969   3.668  0.00  0.00    +0.029 C 
ATOM      4  C   UNL     1       1.499   1.614   4.914  0.00  0.00    +0.110 C 
ATOM      5  C   UNL     1      -0.003   1.324   4.954  0.00  0.00    +0.029 C 
ATOM      6  C   UNL     1      -0.652   1.850   3.671  0.00  0.00    -0.075 C 
ATOM      7  C   UNL     1       2.167   1.034   6.165  0.00  0.00    +0.084 C 
ATOM      8  C   UNL     1       3.680   1.241   6.040  0.00  0.00    +0.152 C 
ATOM      9  C   UNL     1       3.963   2.671   5.651  0.00  0.00    +0.025 A 
ATOM     10  C   UNL     1       5.238   3.175   5.851  0.00  0.00    +0.048 A 
ATOM     11  C   UNL     1       5.533   4.481   5.505  0.00  0.00    +0.124 A 
ATOM     12  C   UNL     1       4.551   5.290   4.959  0.00  0.00    +0.042 A 
ATOM     13  C   UNL     1       3.280   4.791   4.758  0.00  0.00    +0.049 A 
ATOM     14  C   UNL     1       2.982   3.476   5.103  0.00  0.00    +0.127 A 
ATOM     15  O   UNL     1       1.718   3.023   4.891  0.00  0.00    -0.485 OA
ATOM     16  F   UNL     1       6.778   4.967   5.701  0.00  0.00    -0.205 F 
ATOM     17  H   UNL     1      -0.141   0.114   2.636  0.00  0.00    -0.082 HD
ENDROOT
BRANCH   8  18
ATOM     18  O   UNL     1       4.304   0.956   7.293  0.00  0.00    -0.387 OA
ATOM     19  H   UNL     1       5.395   1.051   7.398  0.00  0.00    +0.210 HD
ENDBRANCH   8  18
BRANCH   1  20
ATOM     20  C   UNL     1      -0.729   1.579   1.267  0.00  0.00    -0.042 C 
BRANCH  20  21
ATOM     21  C   UNL     1      -2.152   1.017   1.285  0.00  0.00    +0.128 C 
BRANCH  21  27
ATOM     22  C   UNL     1      -2.697   0.610  -1.122  0.00  0.00    +0.010 A 
ATOM     23  C   UNL     1      -3.345   0.945  -2.298  0.00  0.00    +0.050 A 
ATOM     24  C   UNL     1      -4.146   2.073  -2.343  0.00  0.00    +0.162 A 
ATOM     25  C   UNL     1      -4.301   2.861  -1.211  0.00  0.00    +0.162 A 
ATOM     26  C   UNL     1      -3.656   2.520  -0.035  0.00  0.00    +0.055 A 
ATOM     27  C   UNL     1      -2.856   1.391   0.007  0.00  0.00    -0.017 A 
ATOM     28  O   UNL     1      -5.094   3.970  -1.265  0.00  0.00    -0.488 OA
ATOM     29  C   UNL     1      -4.610   5.044  -2.075  0.00  0.00    +0.232 C 
ATOM     30  C   UNL     1      -4.992   4.836  -3.532  0.00  0.00    +0.082 C 
ATOM     31  C   UNL     1      -4.326   3.610  -4.136  0.00  0.00    +0.232 C 
ATOM     32  O   UNL     1      -4.787   2.417  -3.498  0.00  0.00    -0.488 OA
ENDBRANCH  21  27
BRANCH  21  33
ATOM     33  O   UNL     1      -2.100  -0.406   1.401  0.00  0.00    -0.389 OA
ATOM     34  H   UNL     1      -1.620  -0.870   2.275  0.00  0.00    +0.210 HD
ENDBRANCH  21  33
ENDBRANCH  20  21
ENDBRANCH   1  20
TORSDOF 5
