REMARK  Name = ZINC36962193
REMARK  6 active torsions:
REMARK  status: ('A' for Active; 'I' for Inactive)
REMARK    1  A    between atoms: C_5  and  S_7
REMARK    2  A    between atoms: S_7  and  C_8
REMARK    3  A    between atoms: C_8  and  C_9
REMARK    4  A    between atoms: C_9  and  C_10
REMARK    5  A    between atoms: N_12  and  C_13
REMARK    6  A    between atoms: C_18  and  N_19
REMARK                            x       y       z     vdW  Elec       q    Type
REMARK                         _______ _______ _______ _____ _____    ______ ____
ROOT
ATOM      1  C   UNL     1      -2.085  -4.824   0.000  0.00  0.00    +0.218 C 
ATOM      2  O   UNL     1      -2.942  -3.965   0.007  0.00  0.00    -0.275 OA
ATOM      3  N   UNL     1      -2.436  -6.125  -0.007  0.00  0.00    -0.284 N 
ATOM      4  H   UNL     1      -1.755  -6.810  -0.093  0.00  0.00    +0.155 HD
ENDROOT
BRANCH   3   5
ATOM      5  C   UNL     1      -3.785  -6.488   0.110  0.00  0.00    +0.054 A 
ATOM      6  C   UNL     1      -4.684  -5.633   0.729  0.00  0.00    +0.026 A 
ATOM      7  C   UNL     1      -6.014  -5.992   0.844  0.00  0.00    +0.022 A 
ATOM      8  C   UNL     1      -6.452  -7.205   0.344  0.00  0.00    +0.043 A 
ATOM      9  C   UNL     1      -5.562  -8.065  -0.275  0.00  0.00    +0.044 A 
ATOM     10  C   UNL     1      -4.228  -7.708  -0.400  0.00  0.00    +0.047 A 
ATOM     11 CL   UNL     1      -8.124  -7.650   0.493  0.00  0.00    -0.083 Cl
BRANCH  10  12
ATOM     12  N   UNL     1      -3.327  -8.573  -1.031  0.00  0.00    -0.356 N 
ATOM     13  H   UNL     1      -2.393  -8.324  -1.113  0.00  0.00    +0.142 HD
ATOM     14  H   UNL     1      -3.636  -9.421  -1.385  0.00  0.00    +0.142 HD
ENDBRANCH  10  12
ENDBRANCH   3   5
BRANCH   1  15
ATOM     15  C   UNL     1      -0.629  -4.436  -0.000  0.00  0.00    +0.107 C 
BRANCH  15  16
ATOM     16  C   UNL     1      -0.508  -2.911   0.009  0.00  0.00    +0.083 C 
BRANCH  16  17
ATOM     17  S   UNL     1       1.245  -2.444   0.008  0.00  0.00    -0.124 S 
BRANCH  17  22
ATOM     18  C   UNL     1      -0.015   1.376   0.033  0.00  0.00    +0.001 A 
ATOM     19  C   UNL     1       1.173   2.085   0.035  0.00  0.00    +0.001 A 
ATOM     20  C   UNL     1       2.382   1.415   0.029  0.00  0.00    +0.016 A 
ATOM     21  C   UNL     1       2.409   0.034   0.021  0.00  0.00    +0.031 A 
ATOM     22  C   UNL     1       1.217  -0.682   0.019  0.00  0.00    +0.022 A 
ATOM     23  C   UNL     1       0.004  -0.005   0.025  0.00  0.00    +0.016 A 
ATOM     24 BR   UNL     1       4.064  -0.881   0.012  0.00  0.00    -0.049 Br
ENDBRANCH  17  22
ENDBRANCH  16  17
ENDBRANCH  15  16
ENDBRANCH   1  15
TORSDOF 6
