REMARK  Name = ZINC66906120
REMARK  10 active torsions:
REMARK  status: ('A' for Active; 'I' for Inactive)
REMARK    1  A    between atoms: C_1  and  C_2
REMARK    2  A    between atoms: C_2  and  N_3
REMARK    3  A    between atoms: C_4  and  C_6
REMARK    4  A    between atoms: C_6  and  O_7
REMARK    5  A    between atoms: O_7  and  C_8
REMARK    6  A    between atoms: C_11  and  C_14
REMARK    7  A    between atoms: C_14  and  N_15
REMARK    8  A    between atoms: N_15  and  C_16
REMARK    9  A    between atoms: C_16  and  C_17
REMARK   10  A    between atoms: C_17  and  O_27
REMARK                            x       y       z     vdW  Elec       q    Type
REMARK                         _______ _______ _______ _____ _____    ______ ____
ROOT
ATOM      1  N   UNL     1      -8.341  -6.824  -1.352  0.00  0.00    +0.384 N 
ATOM      2  H   UNL     1      -8.305  -5.960  -1.872  0.00  0.00    -0.085 HD
ATOM      3  H   UNL     1      -7.742  -7.507  -1.792  0.00  0.00    -0.085 HD
ENDROOT
BRANCH   1   4
ATOM      4  C   UNL     1      -7.884  -6.587   0.024  0.00  0.00    -0.047 C 
BRANCH   4   8
ATOM      5  C   UNL     1      -3.868  -5.127  -0.040  0.00  0.00    +0.121 A 
ATOM      6  C   UNL     1      -4.932  -4.237  -0.088  0.00  0.00    +0.046 A 
ATOM      7  C   UNL     1      -6.229  -4.712  -0.067  0.00  0.00    +0.005 A 
ATOM      8  C   UNL     1      -6.468  -6.072   0.001  0.00  0.00    -0.064 A 
ATOM      9  C   UNL     1      -5.410  -6.960   0.049  0.00  0.00    +0.005 A 
ATOM     10  C   UNL     1      -4.111  -6.491   0.022  0.00  0.00    +0.046 A 
BRANCH   5  11
ATOM     11  O   UNL     1      -2.591  -4.662  -0.061  0.00  0.00    -0.483 OA
BRANCH  11  12
ATOM     12  C   UNL     1      -2.417  -3.245  -0.126  0.00  0.00    +0.324 C 
BRANCH  12  14
ATOM     13  N   UNL     1      -0.540  -1.636  -0.199  0.00  0.00    -0.313 N 
ATOM     14  C   UNL     1      -0.946  -2.920  -0.140  0.00  0.00    +0.251 C 
ATOM     15  O   UNL     1      -0.127  -3.814  -0.098  0.00  0.00    -0.272 OA
ATOM     16  H   UNL     1      -1.195  -0.922  -0.232  0.00  0.00    +0.149 HD
BRANCH  13  18
ATOM     17  C   UNL     1       1.077   0.197  -0.282  0.00  0.00    +0.024 C 
ATOM     18  C   UNL     1       0.890  -1.320  -0.212  0.00  0.00    +0.101 C 
ENDBRANCH  13  18
ENDBRANCH  12  14
ENDBRANCH  11  12
ENDBRANCH   5  11
ENDBRANCH   4   8
ENDBRANCH   1   4
BRANCH   1  19
ATOM     19  C   UNL     1      -9.721  -7.326  -1.330  0.00  0.00    -0.042 C 
BRANCH  19  20
ATOM     20  C   UNL     1     -10.242  -7.451  -2.764  0.00  0.00    +0.076 C 
ATOM     21  C   UNL     1      -9.293  -8.338  -3.568  0.00  0.00    +0.038 C 
ATOM     22  C   UNL     1      -9.940  -8.628  -4.928  0.00  0.00    +0.008 C 
ATOM     23  C   UNL     1     -11.133  -9.555  -4.705  0.00  0.00    +0.035 C 
ATOM     24  C   UNL     1     -12.038  -9.005  -3.634  0.00  0.00    -0.042 A 
ATOM     25  C   UNL     1     -11.627  -8.042  -2.739  0.00  0.00    -0.015 A 
ATOM     26  C   UNL     1     -12.509  -7.582  -1.770  0.00  0.00    +0.006 A 
ATOM     27  C   UNL     1     -13.794  -8.080  -1.699  0.00  0.00    +0.000 A 
ATOM     28  C   UNL     1     -14.207  -9.044  -2.599  0.00  0.00    +0.000 A 
ATOM     29  C   UNL     1     -13.332  -9.504  -3.561  0.00  0.00    +0.004 A 
BRANCH  20  30
ATOM     30  O   UNL     1     -10.293  -6.154  -3.361  0.00  0.00    -0.386 OA
ATOM     31  H   UNL     1     -10.870  -5.531  -2.899  0.00  0.00    +0.211 HD
ENDBRANCH  20  30
ENDBRANCH  19  20
ENDBRANCH   1  19
TORSDOF 9
