REMARK  Name = ZINC67466172
REMARK  10 active torsions:
REMARK  status: ('A' for Active; 'I' for Inactive)
REMARK    1  A    between atoms: C_1  and  C_2
REMARK    2  A    between atoms: C_2  and  C_3
REMARK    3  A    between atoms: C_2  and  N_4
REMARK    4  A    between atoms: C_5  and  C_7
REMARK    5  A    between atoms: C_11  and  C_13
REMARK    6  A    between atoms: C_13  and  N_14
REMARK    7  A    between atoms: N_17  and  C_18
REMARK    8  A    between atoms: C_18  and  C_19
REMARK    9  A    between atoms: C_19  and  C_21
REMARK   10  A    between atoms: C_19  and  O_29
REMARK                            x       y       z     vdW  Elec       q    Type
REMARK                         _______ _______ _______ _____ _____    ______ ____
ROOT
ATOM      1  N   UNL     1      -6.919  -0.690  -3.899  0.00  0.00    -0.295 N 
ATOM      2  C   UNL     1      -7.673  -0.597  -5.012  0.00  0.00    +0.300 C 
ATOM      3  O   UNL     1      -7.753  -1.542  -5.773  0.00  0.00    -0.253 OA
ATOM      4  N   UNL     1      -8.337   0.544  -5.282  0.00  0.00    -0.297 N 
ATOM      5  H   UNL     1      -6.854   0.064  -3.292  0.00  0.00    +0.151 HD
ATOM      6  H   UNL     1      -8.273   1.298  -4.676  0.00  0.00    +0.150 HD
ENDROOT
BRANCH   1   7
ATOM      7  C   UNL     1      -6.197  -1.931  -3.606  0.00  0.00    +0.141 C 
BRANCH   7  12
ATOM      8  C   UNL     1      -3.438  -1.155  -1.134  0.00  0.00    +0.037 A 
ATOM      9  C   UNL     1      -4.050  -1.497   0.073  0.00  0.00    +0.013 A 
ATOM     10  C   UNL     1      -5.344  -1.973   0.076  0.00  0.00    +0.001 A 
ATOM     11  C   UNL     1      -6.036  -2.112  -1.114  0.00  0.00    +0.005 A 
ATOM     12  C   UNL     1      -5.436  -1.775  -2.314  0.00  0.00    -0.030 A 
ATOM     13  C   UNL     1      -4.143  -1.292  -2.330  0.00  0.00    +0.018 A 
BRANCH   8  15
ATOM     14  N   UNL     1      -1.372  -0.511   0.012  0.00  0.00    -0.309 N 
ATOM     15  C   UNL     1      -2.051  -0.643  -1.145  0.00  0.00    +0.244 C 
ATOM     16  O   UNL     1      -1.522  -0.341  -2.197  0.00  0.00    -0.270 OA
ATOM     17  H   UNL     1      -1.794  -0.752   0.852  0.00  0.00    +0.149 HD
BRANCH  14  19
ATOM     18  C   UNL     1      -0.019   1.526   0.010  0.00  0.00    +0.027 C 
ATOM     19  C   UNL     1       0.002  -0.004   0.002  0.00  0.00    +0.067 C 
ATOM     20  C   UNL     1       0.742  -0.511   1.242  0.00  0.00    +0.027 C 
ENDBRANCH  14  19
ENDBRANCH   8  15
ENDBRANCH   7  12
ENDBRANCH   1   7
BRANCH   4  21
ATOM     21  C   UNL     1      -9.157   0.646  -6.493  0.00  0.00    +0.141 C 
BRANCH  21  22
ATOM     22  C   UNL     1      -9.797   2.034  -6.560  0.00  0.00    +0.162 C 
BRANCH  22  23
ATOM     23  C   UNL     1     -10.640   2.138  -7.804  0.00  0.00    -0.015 A 
ATOM     24  C   UNL     1     -11.947   1.687  -7.793  0.00  0.00    +0.009 A 
ATOM     25  C   UNL     1     -12.722   1.782  -8.934  0.00  0.00    +0.041 A 
ATOM     26  C   UNL     1     -12.190   2.329 -10.088  0.00  0.00    +0.158 A 
ATOM     27  C   UNL     1     -10.880   2.783 -10.099  0.00  0.00    +0.159 A 
ATOM     28  C   UNL     1     -10.108   2.691  -8.954  0.00  0.00    +0.047 A 
ATOM     29  F   UNL     1     -10.359   3.317 -11.225  0.00  0.00    -0.202 F 
ATOM     30  F   UNL     1     -12.947   2.422 -11.204  0.00  0.00    -0.202 F 
ENDBRANCH  22  23
BRANCH  22  31
ATOM     31  O   UNL     1     -10.620   2.235  -5.409  0.00  0.00    -0.386 OA
ATOM     32  H   UNL     1     -11.338   1.593  -5.322  0.00  0.00    +0.210 HD
ENDBRANCH  22  31
ENDBRANCH  21  22
ENDBRANCH   4  21
TORSDOF 8
