REMARK  Name = ZINC02571767
REMARK  8 active torsions:
REMARK  status: ('A' for Active; 'I' for Inactive)
REMARK    1  A    between atoms: C_1  and  C_2
REMARK    2  A    between atoms: C_5  and  N_8
REMARK    3  A    between atoms: C_9  and  C_11
REMARK    4  A    between atoms: N_13  and  N_14
REMARK    5  A    between atoms: C_15  and  C_16
REMARK    6  A    between atoms: C_19  and  O_24
REMARK    7  A    between atoms: C_20  and  O_22
REMARK    8  A    between atoms: O_22  and  C_23
REMARK                            x       y       z     vdW  Elec       q    Type
REMARK                         _______ _______ _______ _____ _____    ______ ____
ROOT
ATOM      1  C   UNL     1       2.446   1.020   0.104  0.00  0.00    +0.318 C 
ATOM      2  O   UNL     1       2.505  -0.190   0.185  0.00  0.00    -0.263 OA
ATOM      3  N   UNL     1       3.578   1.751   0.103  0.00  0.00    -0.199 N 
ATOM      4  H   UNL     1       3.531   2.718   0.038  0.00  0.00    +0.178 HD
ENDROOT
BRANCH   1   6
ATOM      5  N   UNL     1      -0.011   0.966   0.007  0.00  0.00    -0.278 N 
ATOM      6  C   UNL     1       1.121   1.697   0.006  0.00  0.00    +0.305 C 
ATOM      7  O   UNL     1       1.062   2.907  -0.075  0.00  0.00    -0.265 OA
ATOM      8  H   UNL     1       0.037  -0.003   0.004  0.00  0.00    +0.155 HD
BRANCH   5  13
ATOM      9  C   UNL     1      -5.058   3.553   0.005  0.00  0.00    +0.044 C 
ATOM     10  C   UNL     1      -3.717   2.865   0.006  0.00  0.00    -0.050 A 
ATOM     11  C   UNL     1      -2.656   3.423  -0.684  0.00  0.00    +0.005 A 
ATOM     12  C   UNL     1      -1.425   2.796  -0.685  0.00  0.00    +0.023 A 
ATOM     13  C   UNL     1      -1.254   1.603   0.007  0.00  0.00    +0.034 A 
ATOM     14  C   UNL     1      -2.324   1.044   0.694  0.00  0.00    +0.023 A 
ATOM     15  C   UNL     1      -3.550   1.679   0.696  0.00  0.00    +0.005 A 
ENDBRANCH   5  13
ENDBRANCH   1   6
BRANCH   3  16
ATOM     16  N   UNL     1       4.823   1.115   0.195  0.00  0.00    -0.187 NA
ATOM     17  C   UNL     1       5.914   1.820   0.194  0.00  0.00    +0.138 C 
BRANCH  17  18
ATOM     18  C   UNL     1       7.223   1.151   0.291  0.00  0.00    -0.002 A 
ATOM     19  C   UNL     1       7.293  -0.242   0.390  0.00  0.00    +0.013 A 
ATOM     20  C   UNL     1       8.519  -0.866   0.477  0.00  0.00    +0.050 A 
ATOM     21  C   UNL     1       9.686  -0.114   0.475  0.00  0.00    +0.158 A 
ATOM     22  C   UNL     1       9.624   1.275   0.382  0.00  0.00    +0.162 A 
ATOM     23  C   UNL     1       8.399   1.907   0.290  0.00  0.00    +0.058 A 
BRANCH  22  24
ATOM     24  O   UNL     1      10.769   2.008   0.381  0.00  0.00    -0.491 OA
ATOM     25  C   UNL     1      10.632   3.427   0.282  0.00  0.00    +0.277 C 
ENDBRANCH  22  24
BRANCH  21  26
ATOM     26  O   UNL     1      10.892  -0.735   0.565  0.00  0.00    -0.503 OA
ATOM     27  H   UNL     1      11.204  -0.856   1.472  0.00  0.00    +0.292 HD
ENDBRANCH  21  26
ENDBRANCH  17  18
ENDBRANCH   3  16
TORSDOF 6
