REMARK  Name = ZINC43746384
REMARK  5 active torsions:
REMARK  status: ('A' for Active; 'I' for Inactive)
REMARK    1  A    between atoms: C_1  and  C_2
REMARK    2  A    between atoms: C_2  and  C_3
REMARK    3  A    between atoms: C_3  and  C_5
REMARK    4  A    between atoms: C_3  and  N_6
REMARK    5  A    between atoms: C_7  and  C_9
REMARK                            x       y       z     vdW  Elec       q    Type
REMARK                         _______ _______ _______ _____ _____    ______ ____
ROOT
ATOM      1  C   UNL     1      -4.140   0.357  -2.544  0.00  0.00    +0.167 C 
ATOM      2  C   UNL     1      -3.843  -0.679  -3.638  0.00  0.00    +0.069 C 
ATOM      3  C   UNL     1      -4.727  -1.888  -3.465  0.00  0.00    -0.015 A 
ATOM      4  C   UNL     1      -4.553  -3.197  -4.067  0.00  0.00    +0.003 A 
ATOM      5  C   UNL     1      -3.579  -3.720  -4.923  0.00  0.00    +0.010 A 
ATOM      6  C   UNL     1      -3.729  -5.029  -5.307  0.00  0.00    +0.001 A 
ATOM      7  C   UNL     1      -4.792  -5.806  -4.874  0.00  0.00    +0.002 A 
ATOM      8  C   UNL     1      -5.770  -5.314  -4.027  0.00  0.00    +0.026 A 
ATOM      9  C   UNL     1      -5.642  -3.987  -3.619  0.00  0.00    +0.047 A 
ATOM     10  N   UNL     1      -6.404  -3.203  -2.804  0.00  0.00    -0.356 N 
ATOM     11  H   UNL     1      -7.218  -3.486  -2.359  0.00  0.00    +0.166 HD
ATOM     12  C   UNL     1      -5.846  -1.957  -2.709  0.00  0.00    +0.046 A 
ATOM     13  C   UNL     1      -6.350  -0.801  -1.879  0.00  0.00    +0.155 C 
ATOM     14  N   UNL     1      -5.591   0.389  -2.335  0.00  0.00    -0.273 N 
ATOM     15  C   UNL     1      -6.454   1.394  -2.532  0.00  0.00    +0.248 C 
ATOM     16  O   UNL     1      -6.147   2.560  -2.689  0.00  0.00    -0.270 OA
ATOM     17  C   UNL     1      -7.824   0.873  -2.530  0.00  0.00    +0.042 A 
ATOM     18  C   UNL     1      -7.789  -0.501  -2.125  0.00  0.00    -0.009 A 
ATOM     19  C   UNL     1      -8.924  -1.275  -2.029  0.00  0.00    +0.006 A 
ATOM     20  C   UNL     1     -10.137  -0.659  -2.322  0.00  0.00    +0.000 A 
ATOM     21  C   UNL     1     -10.208   0.669  -2.692  0.00  0.00    +0.001 A 
ATOM     22  C   UNL     1      -9.039   1.497  -2.822  0.00  0.00    +0.013 A 
ENDROOT
BRANCH   1  24
ATOM     23  N   UNL     1      -2.105  -0.148  -1.230  0.00  0.00    -0.311 N 
ATOM     24  C   UNL     1      -3.448  -0.040  -1.265  0.00  0.00    +0.234 C 
ATOM     25  O   UNL     1      -4.100  -0.261  -0.267  0.00  0.00    -0.274 OA
ATOM     26  H   UNL     1      -1.584   0.029  -2.029  0.00  0.00    +0.149 HD
BRANCH  23  27
ATOM     27  C   UNL     1      -1.433  -0.534   0.013  0.00  0.00    +0.070 C 
ATOM     28  C   UNL     1      -1.413  -2.059   0.130  0.00  0.00    +0.028 C 
BRANCH  27  30
ATOM     29  C   UNL     1      -0.019   1.526   0.010  0.00  0.00    +0.005 C 
ATOM     30  C   UNL     1       0.002  -0.004   0.002  0.00  0.00    +0.018 C 
ENDBRANCH  27  30
ENDBRANCH  23  27
ENDBRANCH   1  24
TORSDOF 3
