REMARK  Name = ZINC64316535
REMARK  6 active torsions:
REMARK  status: ('A' for Active; 'I' for Inactive)
REMARK    1  A    between atoms: C_1  and  C_2
REMARK    2  A    between atoms: C_2  and  O_3
REMARK    3  A    between atoms: O_3  and  C_4
REMARK    4  A    between atoms: C_9  and  C_10
REMARK    5  A    between atoms: C_11  and  C_12
REMARK    6  A    between atoms: C_22  and  C_24
REMARK                            x       y       z     vdW  Elec       q    Type
REMARK                         _______ _______ _______ _____ _____    ______ ____
ROOT
ATOM      1  C   UNL     1       3.270  -1.106   5.509  0.00  0.00    +0.244 C 
ATOM      2  O   UNL     1       3.253   0.100   5.343  0.00  0.00    -0.270 OA
ATOM      3  N   UNL     1       3.820  -1.624   6.625  0.00  0.00    -0.255 N 
ATOM      4  C   UNL     1       4.306  -0.876   7.700  0.00  0.00    +0.041 A 
ATOM      5  C   UNL     1       4.341   0.510   7.870  0.00  0.00    +0.024 A 
ATOM      6  C   UNL     1       4.871   1.056   9.020  0.00  0.00    +0.002 A 
ATOM      7  C   UNL     1       5.372   0.235  10.014  0.00  0.00    +0.000 A 
ATOM      8  C   UNL     1       5.341  -1.137   9.853  0.00  0.00    +0.005 A 
ATOM      9  C   UNL     1       4.811  -1.690   8.702  0.00  0.00    -0.024 A 
ATOM     10  C   UNL     1       4.656  -3.132   8.274  0.00  0.00    +0.069 C 
ATOM     11  C   UNL     1       3.988  -3.055   6.892  0.00  0.00    +0.171 C 
ENDROOT
BRANCH  11  12
ATOM     12  C   UNL     1       2.648  -3.743   6.917  0.00  0.00    +0.232 C 
ATOM     13  O   UNL     1       1.635  -3.094   7.068  0.00  0.00    -0.274 OA
ATOM     14  N   UNL     1       2.574  -5.081   6.771  0.00  0.00    -0.328 N 
ATOM     15  H   UNL     1       3.384  -5.601   6.651  0.00  0.00    +0.145 HD
ATOM     16  H   UNL     1       1.711  -5.524   6.788  0.00  0.00    +0.145 HD
ENDBRANCH  11  12
BRANCH   1  18
ATOM     17  C   UNL     1       2.054  -1.470   3.430  0.00  0.00    +0.016 C 
ATOM     18  C   UNL     1       2.696  -1.991   4.498  0.00  0.00    +0.068 C 
BRANCH  17  24
ATOM     19  C   UNL     1       0.808  -1.824   1.302  0.00  0.00    +0.128 A 
ATOM     20  C   UNL     1       0.273  -2.674   0.347  0.00  0.00    +0.046 A 
ATOM     21  C   UNL     1       0.391  -4.042   0.493  0.00  0.00    +0.004 A 
ATOM     22  C   UNL     1       1.045  -4.577   1.591  0.00  0.00    +0.001 A 
ATOM     23  C   UNL     1       1.583  -3.749   2.551  0.00  0.00    +0.011 A 
ATOM     24  C   UNL     1       1.476  -2.361   2.414  0.00  0.00    +0.017 A 
BRANCH  19  25
ATOM     25  O   UNL     1       0.693  -0.479   1.159  0.00  0.00    -0.492 OA
BRANCH  25  27
ATOM     26  C   UNL     1      -0.028   1.523   0.015  0.00  0.00    +0.048 C 
ATOM     27  C   UNL     1       0.001  -0.006   0.003  0.00  0.00    +0.226 C 
ENDBRANCH  25  27
ENDBRANCH  19  25
ENDBRANCH  17  24
ENDBRANCH   1  18
TORSDOF 5
