REMARK  Name = ZINC00257425
REMARK  5 active torsions:
REMARK  status: ('A' for Active; 'I' for Inactive)
REMARK    1  A    between atoms: C_1  and  C_2
REMARK    2  A    between atoms: C_5  and  O_20
REMARK    3  A    between atoms: C_6  and  C_8
REMARK    4  A    between atoms: N_9  and  N_10
REMARK    5  A    between atoms: C_11  and  C_13
REMARK                            x       y       z     vdW  Elec       q    Type
REMARK                         _______ _______ _______ _____ _____    ______ ____
ROOT
ATOM      1  C   UNL     1       3.337   8.228   0.012  0.00  0.00    +0.142 C 
ATOM      2  N   UNL     1       3.414   6.932   0.005  0.00  0.00    -0.187 NA
ENDROOT
BRANCH   1   8
ATOM      3  C   UNL     1       5.558  12.692   0.014  0.00  0.00    +0.044 C 
ATOM      4  C   UNL     1       5.643  11.188   0.005  0.00  0.00    -0.050 A 
ATOM      5  C   UNL     1       6.881  10.568  -0.011  0.00  0.00    +0.007 A 
ATOM      6  C   UNL     1       6.972   9.189  -0.018  0.00  0.00    +0.046 A 
ATOM      7  C   UNL     1       5.822   8.416  -0.011  0.00  0.00    +0.125 A 
ATOM      8  C   UNL     1       4.567   9.039   0.004  0.00  0.00    +0.036 A 
ATOM      9  C   UNL     1       4.488  10.434   0.006  0.00  0.00    +0.016 A 
BRANCH   7  10
ATOM     10  O   UNL     1       5.911   7.061  -0.019  0.00  0.00    -0.506 OA
ATOM     11  H   UNL     1       5.928   6.673  -0.905  0.00  0.00    +0.292 HD
ENDBRANCH   7  10
ENDBRANCH   1   8
BRANCH   2  12
ATOM     12  N   UNL     1       2.245   6.160   0.012  0.00  0.00    -0.203 N 
ATOM     13  C   UNL     1       2.325   4.815   0.005  0.00  0.00    +0.265 C 
ATOM     14  O   UNL     1       3.413   4.271  -0.009  0.00  0.00    -0.268 OA
ATOM     15  H   UNL     1       1.377   6.595   0.023  0.00  0.00    +0.178 HD
BRANCH  13  16
ATOM     16  C   UNL     1       1.092   4.001   0.013  0.00  0.00    +0.057 A 
ATOM     17  C   UNL     1       1.161   2.603   0.005  0.00  0.00    +0.031 A 
ATOM     18  C   UNL     1      -0.024   1.887   0.012  0.00  0.00    +0.037 A 
ATOM     19  C   UNL     1      -1.228   2.570   0.022  0.00  0.00    +0.126 A 
ATOM     20  N   UNL     1      -1.262   3.889   0.034  0.00  0.00    -0.261 NA
ATOM     21  C   UNL     1      -0.162   4.614   0.027  0.00  0.00    +0.123 A 
ATOM     22 BR   UNL     1       0.002  -0.004   0.002  0.00  0.00    -0.049 Br
ENDBRANCH  13  16
ENDBRANCH   2  12
TORSDOF 4
