REMARK  Name = ZINC20469646
REMARK  3 active torsions:
REMARK  status: ('A' for Active; 'I' for Inactive)
REMARK    1  A    between atoms: C_3  and  N_10
REMARK    2  A    between atoms: C_4  and  C_8
REMARK    3  A    between atoms: C_8  and  N_9
REMARK                            x       y       z     vdW  Elec       q    Type
REMARK                         _______ _______ _______ _____ _____    ______ ____
ROOT
ATOM      1  C   UNL     1       0.002  -0.004   0.002  0.00  0.00    +0.003 A 
ATOM      2  C   UNL     1       1.206  -0.680  -0.013  0.00  0.00    +0.023 A 
ATOM      3  C   UNL     1       2.400   0.030  -0.020  0.00  0.00    +0.033 A 
ATOM      4  C   UNL     1       2.379   1.419  -0.013  0.00  0.00    -0.026 A 
ATOM      5  C   UNL     1       1.171   2.089   0.002  0.00  0.00    +0.044 A 
ATOM      6  C   UNL     1      -0.017   1.378   0.010  0.00  0.00    +0.020 A 
ATOM      7 CL   UNL     1       1.143   3.825   0.011  0.00  0.00    -0.083 Cl
ENDROOT
BRANCH   3   8
ATOM      8  N   UNL     1       3.620  -0.651  -0.036  0.00  0.00    -0.327 N 
ATOM      9  C   UNL     1       3.772  -1.430  -1.272  0.00  0.00    +0.124 C 
ATOM     10  C   UNL     1       5.150  -2.096  -1.286  0.00  0.00    +0.126 C 
ATOM     11  N   UNL     1       5.287  -2.958  -0.104  0.00  0.00    -0.307 N 
ATOM     12  C   UNL     1       5.134  -2.179   1.133  0.00  0.00    +0.126 C 
ATOM     13  C   UNL     1       3.756  -1.514   1.147  0.00  0.00    +0.124 C 
ATOM     14  C   UNL     1       6.497  -3.634  -0.119  0.00  0.00    +0.161 A 
ATOM     15  N   UNL     1       7.453  -3.643   0.790  0.00  0.00    -0.233 NA
ATOM     16  C   UNL     1       8.552  -4.353   0.618  0.00  0.00    +0.120 A 
ATOM     17  C   UNL     1       8.686  -5.069  -0.524  0.00  0.00    +0.068 A 
ATOM     18  S   UNL     1       7.147  -4.681  -1.343  0.00  0.00    -0.061 S 
ENDBRANCH   3   8
BRANCH   4  19
ATOM     19  C   UNL     1       3.672   2.193  -0.022  0.00  0.00    -0.047 C 
BRANCH  19  20
ATOM     20  N   UNL     1       4.078   2.452  -1.410  0.00  0.00    +0.381 N 
ATOM     21  H   UNL     1       5.022   3.017  -1.416  0.00  0.00    -0.090 HD
ATOM     22  H   UNL     1       3.297   3.036  -1.918  0.00  0.00    -0.090 HD
ATOM     23  H   UNL     1       4.220   1.495  -1.934  0.00  0.00    -0.090 HD
ENDBRANCH  19  20
ENDBRANCH   4  19
TORSDOF 3
