REMARK  Name = ZINC10243555
REMARK  11 active torsions:
REMARK  status: ('A' for Active; 'I' for Inactive)
REMARK    1  A    between atoms: C_1  and  C_2
REMARK    2  A    between atoms: C_2  and  C_3
REMARK    3  A    between atoms: C_3  and  C_5
REMARK    4  A    between atoms: C_3  and  S_10
REMARK    5  A    between atoms: C_5  and  O_7
REMARK    6  A    between atoms: O_7  and  C_8
REMARK    7  A    between atoms: C_8  and  C_9
REMARK    8  A    between atoms: S_10  and  C_11
REMARK    9  A    between atoms: C_16  and  N_20
REMARK   10  A    between atoms: C_17  and  N_19
REMARK   11  A    between atoms: C_21  and  C_23
REMARK                            x       y       z     vdW  Elec       q    Type
REMARK                         _______ _______ _______ _____ _____    ______ ____
ROOT
ATOM      1  C   UNL     1       2.872   9.243   0.054  0.00  0.00    +0.172 A 
ATOM      2  N   UNL     1       3.598   8.108  -0.146  0.00  0.00    -0.300 N 
ATOM      3  H   UNL     1       4.560   8.162  -0.253  0.00  0.00    +0.171 HD
ATOM      4  C   UNL     1       2.982   6.909  -0.196  0.00  0.00    +0.275 A 
ATOM      5  O   UNL     1       3.625   5.886  -0.376  0.00  0.00    -0.266 OA
ATOM      6  C   UNL     1       1.589   6.857  -0.038  0.00  0.00    +0.139 A 
ATOM      7  C   UNL     1       0.895   8.046   0.158  0.00  0.00    +0.146 A 
ATOM      8  N   UNL     1       1.564   9.204   0.204  0.00  0.00    -0.207 NA
ENDROOT
BRANCH   6   9
ATOM      9  N   UNL     1       0.906   5.626  -0.083  0.00  0.00    -0.272 N 
ATOM     10  C   UNL     1       1.209   4.654   0.800  0.00  0.00    +0.284 C 
ATOM     11  O   UNL     1       2.133   4.806   1.579  0.00  0.00    -0.266 OA
ATOM     12  H   UNL     1       0.217   5.477  -0.750  0.00  0.00    +0.155 HD
BRANCH  10  13
ATOM     13  C   UNL     1       0.427   3.415   0.824  0.00  0.00    +0.191 A 
ATOM     14  C   UNL     1       0.627   2.356   1.663  0.00  0.00    +0.056 A 
ATOM     15  C   UNL     1      -0.343   1.395   1.339  0.00  0.00    +0.058 A 
ATOM     16  C   UNL     1      -1.081   1.901   0.324  0.00  0.00    +0.171 A 
ATOM     17  O   UNL     1      -0.617   3.121   0.021  0.00  0.00    -0.444 OA
ATOM     18 BR   UNL     1      -2.530   1.032  -0.524  0.00  0.00    -0.008 Br
ENDBRANCH  10  13
ENDBRANCH   6   9
BRANCH   7  19
ATOM     19  N   UNL     1      -0.479   8.032   0.312  0.00  0.00    -0.341 N 
ATOM     20  H   UNL     1      -0.962   7.191   0.283  0.00  0.00    +0.144 HD
ATOM     21  H   UNL     1      -0.961   8.863   0.449  0.00  0.00    +0.144 HD
ENDBRANCH   7  19
BRANCH   1  22
ATOM     22  S   UNL     1       3.700  10.797   0.116  0.00  0.00    -0.073 S 
BRANCH  22  23
ATOM     23  C   UNL     1       2.311  11.877   0.539  0.00  0.00    +0.162 C 
BRANCH  23  25
ATOM     24  C   UNL     1       3.676  13.198   2.162  0.00  0.00    +0.005 C 
ATOM     25  C   UNL     1       2.837  13.272   0.885  0.00  0.00    +0.022 C 
ENDBRANCH  23  25
BRANCH  23  26
ATOM     26  C   UNL     1       1.372  11.972  -0.636  0.00  0.00    +0.321 C 
ATOM     27  O   UNL     1       1.762  11.691  -1.745  0.00  0.00    -0.250 OA
BRANCH  26  28
ATOM     28  O   UNL     1       0.103  12.367  -0.451  0.00  0.00    -0.464 OA
BRANCH  28  29
ATOM     29  C   UNL     1      -0.745  12.435  -1.628  0.00  0.00    +0.229 C 
ATOM     30  C   UNL     1      -2.144  12.902  -1.222  0.00  0.00    +0.048 C 
ENDBRANCH  28  29
ENDBRANCH  26  28
ENDBRANCH  23  26
ENDBRANCH  22  23
ENDBRANCH   1  22
TORSDOF 9
