REMARK  Name = ZINC37316663
REMARK  5 active torsions:
REMARK  status: ('A' for Active; 'I' for Inactive)
REMARK    1  A    between atoms: C_1  and  O_2
REMARK    2  A    between atoms: O_2  and  C_3
REMARK    3  A    between atoms: C_9  and  N_11
REMARK    4  A    between atoms: N_11  and  C_12
REMARK    5  A    between atoms: C_15  and  N_19
REMARK                            x       y       z     vdW  Elec       q    Type
REMARK                         _______ _______ _______ _____ _____    ______ ____
ROOT
ATOM      1  N   UNL     1       0.182  -2.828   0.287  0.00  0.00    -0.338 N 
ATOM      2  H   UNL     1       0.893  -2.681  -0.357  0.00  0.00    +0.146 HD
ENDROOT
BRANCH   1   3
ATOM      3  C   UNL     1      -0.715  -3.884   0.109  0.00  0.00    +0.042 A 
ATOM      4  C   UNL     1      -1.736  -4.092   1.026  0.00  0.00    +0.026 A 
ATOM      5  C   UNL     1      -2.621  -5.137   0.847  0.00  0.00    +0.034 A 
ATOM      6  C   UNL     1      -2.491  -5.976  -0.244  0.00  0.00    +0.127 A 
ATOM      7  C   UNL     1      -1.476  -5.773  -1.160  0.00  0.00    +0.049 A 
ATOM      8  C   UNL     1      -0.590  -4.726  -0.990  0.00  0.00    +0.041 A 
ATOM      9 BR   UNL     1       0.794  -4.442  -2.248  0.00  0.00    -0.048 Br
BRANCH   6  10
ATOM     10  N   UNL     1      -3.442  -7.096  -0.432  0.00  0.00    +0.056 N 
ATOM     11  O   UNL     1      -4.330  -7.276   0.368  0.00  0.00    -0.126 OA
ATOM     12  O   UNL     1      -3.329  -7.830  -1.386  0.00  0.00    -0.126 OA
ENDBRANCH   6  10
ENDBRANCH   1   3
BRANCH   1  18
ATOM     13  C   UNL     1       0.673  -0.582   1.123  0.00  0.00    +0.138 C 
ATOM     14  C   UNL     1       2.155  -0.768   0.790  0.00  0.00    +0.033 C 
ATOM     15  C   UNL     1       2.874  -1.387   1.991  0.00  0.00    +0.003 C 
ATOM     16  C   UNL     1       2.250  -2.746   2.313  0.00  0.00    +0.002 C 
ATOM     17  C   UNL     1       0.768  -2.561   2.646  0.00  0.00    +0.025 C 
ATOM     18  C   UNL     1       0.049  -1.942   1.446  0.00  0.00    +0.099 C 
BRANCH  13  20
ATOM     19  C   UNL     1      -0.017   1.425   0.010  0.00  0.00    +0.194 C 
ATOM     20  O   UNL     1       0.002  -0.004   0.002  0.00  0.00    -0.378 OA
ENDBRANCH  13  20
ENDBRANCH   1  18
TORSDOF 4
