REMARK  Name = ZINC40797992
REMARK  7 active torsions:
REMARK  status: ('A' for Active; 'I' for Inactive)
REMARK    1  A    between atoms: C_1  and  C_2
REMARK    2  A    between atoms: C_2  and  C_3
REMARK    3  A    between atoms: C_2  and  C_4
REMARK    4  A    between atoms: C_4  and  C_5
REMARK    5  A    between atoms: C_5  and  C_7
REMARK    6  A    between atoms: C_5  and  N_9
REMARK    7  A    between atoms: C_7  and  O_8
REMARK                            x       y       z     vdW  Elec       q    Type
REMARK                         _______ _______ _______ _____ _____    ______ ____
ROOT
ATOM      1  N   UNL     1      -0.876  -2.426  -1.433  0.00  0.00    -0.236 N 
ATOM      2  C   UNL     1      -1.438  -2.038  -2.594  0.00  0.00    +0.226 C 
ATOM      3  O   UNL     1      -2.302  -1.198  -2.729  0.00  0.00    -0.275 OA
ATOM      4  C   UNL     1      -0.777  -2.857  -3.715  0.00  0.00    +0.091 C 
ATOM      5  C   UNL     1      -1.620  -4.131  -3.818  0.00  0.00    +0.040 C 
ATOM      6  C   UNL     1      -0.822  -5.340  -4.162  0.00  0.00    -0.030 C 
ATOM      7  C   UNL     1       0.461  -5.436  -4.049  0.00  0.00    -0.030 C 
ATOM      8  C   UNL     1       1.331  -4.307  -3.596  0.00  0.00    +0.040 C 
ATOM      9  C   UNL     1       0.580  -3.129  -3.047  0.00  0.00    +0.091 C 
ATOM     10  C   UNL     1       0.233  -3.183  -1.588  0.00  0.00    +0.226 C 
ATOM     11  O   UNL     1       0.828  -3.787  -0.722  0.00  0.00    -0.275 OA
ENDROOT
BRANCH   1  12
ATOM     12  C   UNL     1      -1.416  -2.058  -0.121  0.00  0.00    +0.110 C 
BRANCH  12  13
ATOM     13  C   UNL     1      -1.433  -0.534   0.013  0.00  0.00    +0.028 C 
BRANCH  13  15
ATOM     14  C   UNL     1      -0.019   1.526   0.010  0.00  0.00    +0.007 C 
ATOM     15  C   UNL     1       0.002  -0.004   0.002  0.00  0.00    -0.015 C 
ATOM     16  C   UNL     1       0.742  -0.511   1.242  0.00  0.00    +0.007 C 
ENDBRANCH  13  15
ENDBRANCH  12  13
BRANCH  12  17
ATOM     17  C   UNL     1      -2.841  -2.598   0.015  0.00  0.00    +0.178 C 
BRANCH  17  18
ATOM     18  O   UNL     1      -3.688  -1.952  -0.938  0.00  0.00    -0.393 OA
ATOM     19  H   UNL     1      -4.609  -2.247  -0.908  0.00  0.00    +0.209 HD
ENDBRANCH  17  18
ENDBRANCH  12  17
ENDBRANCH   1  12
TORSDOF 5
