REMARK  Name = ZINC11986920
REMARK  8 active torsions:
REMARK  status: ('A' for Active; 'I' for Inactive)
REMARK    1  A    between atoms: C_1  and  N_2
REMARK    2  A    between atoms: N_2  and  C_3
REMARK    3  A    between atoms: N_2  and  C_4
REMARK    4  A    between atoms: C_5  and  C_17
REMARK    5  A    between atoms: C_9  and  O_15
REMARK    6  A    between atoms: C_10  and  O_13
REMARK    7  A    between atoms: O_13  and  C_14
REMARK    8  A    between atoms: O_15  and  C_16
REMARK                            x       y       z     vdW  Elec       q    Type
REMARK                         _______ _______ _______ _____ _____    ______ ____
ROOT
ATOM      1  C   UNL     1      -2.336  -0.067   0.037  0.00  0.00    +0.113 A 
ATOM      2  C   UNL     1      -2.457   1.342   0.076  0.00  0.00    +0.102 A 
ATOM      3  C   UNL     1      -1.307   2.124   0.100  0.00  0.00    +0.028 A 
ATOM      4  C   UNL     1      -0.063   1.474   0.074  0.00  0.00    +0.003 A 
ATOM      5  C   UNL     1       1.137   2.208   0.092  0.00  0.00    +0.059 A 
ATOM      6  C   UNL     1       2.333   1.554   0.071  0.00  0.00    +0.162 A 
ATOM      7  C   UNL     1       2.381   0.152   0.033  0.00  0.00    +0.163 A 
ATOM      8  C   UNL     1       1.224  -0.592   0.015  0.00  0.00    +0.075 A 
ATOM      9  C   UNL     1      -0.021   0.057   0.035  0.00  0.00    +0.051 A 
ATOM     10  N   UNL     1      -1.154  -0.731   0.016  0.00  0.00    -0.342 N 
ATOM     11  H   UNL     1      -1.105  -1.756  -0.012  0.00  0.00    +0.167 HD
ENDROOT
BRANCH   1  13
ATOM     12  C   UNL     1      -3.576  -1.610  -1.232  0.00  0.00    +0.130 C 
ATOM     13  N   UNL     1      -3.479  -0.845   0.019  0.00  0.00    -0.322 N 
ATOM     14  C   UNL     1      -3.529  -1.736   1.186  0.00  0.00    +0.130 C 
ENDBRANCH   1  13
BRANCH   2  15
ATOM     15  C   UNL     1      -3.786   1.974   0.096  0.00  0.00    +0.390 C 
ATOM     16  O   UNL     1      -4.785   1.286   0.178  0.00  0.00    -0.240 OA
ATOM     17  O   UNL     1      -3.896   3.315   0.024  0.00  0.00    -0.240 OA
ENDBRANCH   2  15
BRANCH   7  18
ATOM     18  O   UNL     1       3.584  -0.478   0.014  0.00  0.00    -0.491 OA
ATOM     19  C   UNL     1       3.568  -1.906  -0.025  0.00  0.00    +0.277 C 
ENDBRANCH   7  18
BRANCH   6  20
ATOM     20  O   UNL     1       3.490   2.267   0.089  0.00  0.00    -0.491 OA
ATOM     21  C   UNL     1       3.375   3.691   0.128  0.00  0.00    +0.277 C 
ENDBRANCH   6  20
TORSDOF 4
