REMARK  Name = ZINC57481570
REMARK  9 active torsions:
REMARK  status: ('A' for Active; 'I' for Inactive)
REMARK    1  A    between atoms: C_1  and  C_2
REMARK    2  A    between atoms: C_6  and  O_8
REMARK    3  A    between atoms: O_8  and  C_9
REMARK    4  A    between atoms: C_9  and  C_10
REMARK    5  A    between atoms: C_10  and  C_12
REMARK    6  A    between atoms: C_10  and  O_29
REMARK    7  A    between atoms: C_12  and  N_13
REMARK    8  A    between atoms: N_16  and  C_17
REMARK    9  A    between atoms: C_17  and  C_18
REMARK                            x       y       z     vdW  Elec       q    Type
REMARK                         _______ _______ _______ _____ _____    ______ ____
ROOT
ATOM      1  N   UNL     1      -0.130  -6.881   4.945  0.00  0.00    -0.297 N 
ATOM      2  C   UNL     1      -0.234  -8.214   5.114  0.00  0.00    +0.300 C 
ATOM      3  O   UNL     1      -0.240  -8.951   4.147  0.00  0.00    -0.253 OA
ATOM      4  N   UNL     1      -0.332  -8.730   6.355  0.00  0.00    -0.295 N 
ATOM      5  H   UNL     1      -0.125  -6.293   5.716  0.00  0.00    +0.150 HD
ATOM      6  H   UNL     1      -0.327  -8.142   7.127  0.00  0.00    +0.151 HD
ENDROOT
BRANCH   1   7
ATOM      7  C   UNL     1      -0.023  -6.320   3.595  0.00  0.00    +0.140 C 
BRANCH   7   8
ATOM      8  C   UNL     1       0.083  -4.796   3.683  0.00  0.00    +0.169 C 
BRANCH   8   9
ATOM      9  O   UNL     1       1.302  -4.441   4.338  0.00  0.00    -0.387 OA
ATOM     10  H   UNL     1       2.097  -4.756   3.887  0.00  0.00    +0.210 HD
ENDBRANCH   8   9
BRANCH   8  11
ATOM     11  C   UNL     1       0.069  -4.202   2.274  0.00  0.00    +0.261 C 
BRANCH  11  12
ATOM     12  O   UNL     1       0.050  -2.776   2.358  0.00  0.00    -0.489 OA
BRANCH  12  18
ATOM     13  C   UNL     1      -0.018   1.503   0.010  0.00  0.00    +0.044 C 
ATOM     14  C   UNL     1       0.002  -0.004   0.002  0.00  0.00    -0.047 A 
ATOM     15  C   UNL     1       0.006  -0.688  -1.200  0.00  0.00    +0.003 A 
ATOM     16  C   UNL     1       0.024  -2.071  -1.211  0.00  0.00    +0.004 A 
ATOM     17  C   UNL     1       0.039  -2.772  -0.020  0.00  0.00    +0.045 A 
ATOM     18  C   UNL     1       0.035  -2.088   1.186  0.00  0.00    +0.121 A 
ATOM     19  C   UNL     1       0.023  -0.700   1.195  0.00  0.00    +0.049 A 
ENDBRANCH  12  18
ENDBRANCH  11  12
ENDBRANCH   8  11
ENDBRANCH   7   8
ENDBRANCH   1   7
BRANCH   4  20
ATOM     20  C   UNL     1      -0.446 -10.179   6.539  0.00  0.00    +0.141 C 
BRANCH  20  21
ATOM     21  C   UNL     1      -0.540 -10.492   8.010  0.00  0.00    -0.026 A 
ATOM     22  C   UNL     1       0.604 -10.720   8.763  0.00  0.00    +0.023 A 
ATOM     23  C   UNL     1       0.484 -11.005  10.108  0.00  0.00    +0.084 A 
ATOM     24  N   UNL     1      -0.702 -11.062  10.684  0.00  0.00    -0.350 N 
ATOM     25  C   UNL     1      -1.817 -10.851  10.001  0.00  0.00    +0.099 A 
ATOM     26  C   UNL     1      -1.769 -10.554   8.643  0.00  0.00    +0.047 A 
ATOM     27  N   UNL     1      -3.045 -10.922  10.648  0.00  0.00    -0.317 N 
ATOM     28  C   UNL     1      -4.358 -10.718  10.019  0.00  0.00    +0.106 C 
ATOM     29  C   UNL     1      -5.424 -10.867  11.124  0.00  0.00    +0.020 C 
ATOM     30  C   UNL     1      -4.621 -10.587  12.422  0.00  0.00    +0.020 C 
ATOM     31  C   UNL     1      -3.247 -11.220  12.078  0.00  0.00    +0.106 C 
ATOM     32  H   UNL     1      -0.759 -11.264  11.631  0.00  0.00    +0.166 HD
ENDBRANCH  20  21
ENDBRANCH   4  20
TORSDOF 8
