REMARK  Name = ZINC34810076
REMARK  4 active torsions:
REMARK  status: ('A' for Active; 'I' for Inactive)
REMARK    1  A    between atoms: C_1  and  C_2
REMARK    2  A    between atoms: C_5  and  C_8
REMARK    3  A    between atoms: C_8  and  C_9
REMARK    4  A    between atoms: C_13  and  C_18
REMARK                            x       y       z     vdW  Elec       q    Type
REMARK                         _______ _______ _______ _____ _____    ______ ____
ROOT
ATOM      1  C   UNL     1       1.392  -4.618  -0.064  0.00  0.00    +0.139 A 
ATOM      2  N   UNL     1       1.981  -4.680  -1.243  0.00  0.00    -0.216 NA
ATOM      3  C   UNL     1       3.307  -4.710  -1.346  0.00  0.00    +0.138 A 
ATOM      4  C   UNL     1       4.068  -4.675  -0.167  0.00  0.00    +0.108 A 
ATOM      5  C   UNL     1       5.503  -4.690   0.138  0.00  0.00    +0.127 A 
ATOM      6  N   UNL     1       5.619  -4.636   1.440  0.00  0.00    -0.075 NA
ATOM      7  O   UNL     1       4.334  -4.586   2.027  0.00  0.00    -0.334 OA
ATOM      8  C   UNL     1       3.397  -4.609   1.065  0.00  0.00    +0.264 A 
ATOM      9  N   UNL     1       2.067  -4.578   1.066  0.00  0.00    -0.195 NA
ATOM     10  N   UNL     1       3.920  -4.775  -2.582  0.00  0.00    -0.316 N 
ATOM     11  C   UNL     1       3.703  -5.971  -3.422  0.00  0.00    +0.104 C 
ATOM     12  C   UNL     1       3.497  -5.581  -4.897  0.00  0.00    -0.000 C 
ATOM     13  C   UNL     1       2.645  -4.333  -4.973  0.00  0.00    -0.081 C 
ATOM     14  N   UNL     1       3.513  -3.160  -5.034  0.00  0.00    +0.380 N 
ATOM     15  C   UNL     1       3.897  -2.637  -3.779  0.00  0.00    -0.063 C 
ATOM     16  C   UNL     1       4.747  -3.667  -3.010  0.00  0.00    +0.087 C 
ATOM     17  H   UNL     1       4.348  -3.407  -5.544  0.00  0.00    -0.086 HD
ATOM     18  H   UNL     1       3.034  -2.435  -5.548  0.00  0.00    -0.086 HD
ENDROOT
BRANCH   5  19
ATOM     19  C   UNL     1       6.612  -4.754  -0.844  0.00  0.00    +0.022 A 
ATOM     20  C   UNL     1       7.728  -3.923  -0.711  0.00  0.00    +0.013 A 
ATOM     21  C   UNL     1       8.736  -4.022  -1.654  0.00  0.00    +0.020 A 
ATOM     22  C   UNL     1       8.608  -4.931  -2.689  0.00  0.00    +0.111 A 
ATOM     23  N   UNL     1       7.543  -5.702  -2.788  0.00  0.00    -0.263 NA
ATOM     24  C   UNL     1       6.561  -5.648  -1.912  0.00  0.00    +0.120 A 
ENDBRANCH   5  19
BRANCH   1  25
ATOM     25  C   UNL     1      -0.113  -4.585  -0.008  0.00  0.00    +0.111 C 
BRANCH  25  30
ATOM     26  C   UNL     1      -1.933   0.896  -0.194  0.00  0.00    +0.044 C 
ATOM     27  C   UNL     1      -1.458  -0.533  -0.145  0.00  0.00    -0.050 A 
ATOM     28  C   UNL     1      -1.285  -1.244  -1.318  0.00  0.00    +0.003 A 
ATOM     29  C   UNL     1      -0.850  -2.555  -1.274  0.00  0.00    +0.004 A 
ATOM     30  C   UNL     1      -0.587  -3.155  -0.056  0.00  0.00    -0.040 A 
ATOM     31  C   UNL     1      -0.759  -2.444   1.116  0.00  0.00    +0.004 A 
ATOM     32  C   UNL     1      -1.191  -1.132   1.072  0.00  0.00    +0.003 A 
ENDBRANCH  25  30
ENDBRANCH   1  25
TORSDOF 3
