REMARK  Name = ZINC07005583
REMARK  3 active torsions:
REMARK  status: ('A' for Active; 'I' for Inactive)
REMARK    1  A    between atoms: C_1  and  C_2
REMARK    2  A    between atoms: N_11  and  C_15
REMARK    3  A    between atoms: C_15  and  C_16
REMARK                            x       y       z     vdW  Elec       q    Type
REMARK                         _______ _______ _______ _____ _____    ______ ____
ROOT
ATOM      1  C   UNL     1      -0.190  -0.361   4.310  0.00  0.00    +0.010 C 
ATOM      2  C   UNL     1      -1.638  -0.681   4.684  0.00  0.00    +0.018 C 
ATOM      3  C   UNL     1      -1.657  -1.581   5.922  0.00  0.00    +0.006 C 
ATOM      4  C   UNL     1      -3.105  -1.919   6.284  0.00  0.00    +0.000 C 
ATOM      5  C   UNL     1      -3.764  -2.658   5.117  0.00  0.00    +0.003 C 
ATOM      6  C   UNL     1      -3.753  -1.763   3.876  0.00  0.00    +0.035 C 
ATOM      7  C   UNL     1      -2.316  -1.397   3.521  0.00  0.00    +0.115 C 
ATOM      8  C   UNL     1      -2.283  -0.535   2.280  0.00  0.00    +0.247 C 
ATOM      9  O   UNL     1      -2.785   0.558   2.133  0.00  0.00    -0.273 OA
ATOM     10  N   UNL     1      -1.576  -1.238   1.371  0.00  0.00    -0.220 N 
ATOM     11  C   UNL     1      -1.170  -2.415   1.866  0.00  0.00    +0.310 C 
ATOM     12  O   UNL     1      -0.522  -3.226   1.234  0.00  0.00    -0.252 OA
ATOM     13  N   UNL     1      -1.558  -2.597   3.142  0.00  0.00    -0.285 N 
ATOM     14  H   UNL     1      -1.377  -3.369   3.700  0.00  0.00    +0.151 HD
ENDROOT
BRANCH  10  15
ATOM     15  C   UNL     1      -1.293  -0.775   0.011  0.00  0.00    +0.157 C 
BRANCH  15  16
ATOM     16  C   UNL     1       0.002  -0.004   0.002  0.00  0.00    +0.014 A 
ATOM     17  C   UNL     1      -0.017   1.377   0.010  0.00  0.00    +0.028 A 
ATOM     18  C   UNL     1       1.172   2.085   0.002  0.00  0.00    +0.042 A 
ATOM     19  C   UNL     1       2.380   1.412  -0.014  0.00  0.00    +0.029 A 
ATOM     20  C   UNL     1       2.403   0.030  -0.024  0.00  0.00    +0.022 A 
ATOM     21  C   UNL     1       1.213  -0.682  -0.014  0.00  0.00    +0.134 A 
ATOM     22  O   UNL     1       1.221  -2.042  -0.018  0.00  0.00    -0.466 OA
ATOM     23  C   UNL     1       2.445  -2.679  -0.396  0.00  0.00    +0.394 C 
ATOM     24  O   UNL     1       3.522  -2.062   0.320  0.00  0.00    -0.339 OA
ATOM     25  C   UNL     1       3.725  -0.694  -0.046  0.00  0.00    +0.202 C 
ATOM     26 CL   UNL     1       1.147   3.821   0.013  0.00  0.00    -0.084 Cl
ENDBRANCH  15  16
ENDBRANCH  10  15
TORSDOF 2
