REMARK  Name = ZINC67273481
REMARK  6 active torsions:
REMARK  status: ('A' for Active; 'I' for Inactive)
REMARK    1  A    between atoms: C_1  and  C_2
REMARK    2  A    between atoms: C_2  and  C_3
REMARK    3  A    between atoms: C_3  and  C_4
REMARK    4  A    between atoms: N_6  and  C_7
REMARK    5  A    between atoms: C_7  and  C_8
REMARK    6  A    between atoms: C_15  and  C_17
REMARK                            x       y       z     vdW  Elec       q    Type
REMARK                         _______ _______ _______ _____ _____    ______ ____
ROOT
ATOM      1  C   UNL     1       3.029  -4.070  -3.957  0.00  0.00    +0.024 C 
ATOM      2  C   UNL     1       2.258  -3.639  -5.206  0.00  0.00    +0.008 C 
ATOM      3  C   UNL     1       2.713  -4.478  -6.403  0.00  0.00    +0.019 C 
ATOM      4  C   UNL     1       2.409  -5.954  -6.132  0.00  0.00    +0.108 C 
ATOM      5  N   UNL     1       3.028  -6.338  -4.856  0.00  0.00    -0.301 N 
ATOM      6  C   UNL     1       2.729  -5.542  -3.657  0.00  0.00    +0.112 C 
ATOM      7  C   UNL     1       3.854  -7.401  -4.785  0.00  0.00    +0.219 C 
ATOM      8  O   UNL     1       4.019  -8.106  -5.758  0.00  0.00    -0.275 OA
ENDROOT
BRANCH   7   9
ATOM      9  C   UNL     1       4.573  -7.712  -3.498  0.00  0.00    +0.075 C 
ATOM     10  C   UNL     1       3.657  -8.535  -2.589  0.00  0.00    +0.015 C 
ATOM     11  C   UNL     1       4.384  -8.842  -1.277  0.00  0.00    +0.036 C 
ATOM     12  C   UNL     1       5.664  -9.616  -1.573  0.00  0.00    +0.112 C 
ATOM     13  C   UNL     1       6.577  -8.816  -2.495  0.00  0.00    +0.036 C 
ATOM     14  C   UNL     1       5.842  -8.510  -3.803  0.00  0.00    +0.015 C 
ATOM     15  C   UNL     1       6.381  -9.960  -0.288  0.00  0.00    +0.244 C 
ATOM     16  O   UNL     1       6.828  -9.188   0.532  0.00  0.00    -0.273 OA
ATOM     17  N   UNL     1       6.420 -11.308  -0.247  0.00  0.00    -0.238 N 
ATOM     18  C   UNL     1       5.830 -11.851  -1.319  0.00  0.00    +0.307 C 
ATOM     19  O   UNL     1       5.740 -13.049  -1.507  0.00  0.00    -0.252 OA
ATOM     20  N   UNL     1       5.349 -10.922  -2.167  0.00  0.00    -0.285 N 
ATOM     21  H   UNL     1       6.825 -11.821   0.470  0.00  0.00    +0.159 HD
ATOM     22  H   UNL     1       4.886 -11.083  -3.003  0.00  0.00    +0.151 HD
ENDBRANCH   7   9
BRANCH   1  23
ATOM     23  C   UNL     1       2.597  -3.209  -2.768  0.00  0.00    +0.109 C 
BRANCH  23  26
ATOM     24  C   UNL     1       2.711  -0.873  -2.084  0.00  0.00    +0.213 C 
ATOM     25  O   UNL     1       2.134  -1.174  -1.061  0.00  0.00    -0.276 OA
ATOM     26  N   UNL     1       2.990  -1.817  -3.004  0.00  0.00    -0.315 N 
ATOM     27  H   UNL     1       3.452  -1.576  -3.822  0.00  0.00    +0.149 HD
BRANCH  24  28
ATOM     28  C   UNL     1       3.116   0.559  -2.327  0.00  0.00    +0.095 C 
BRANCH  28  30
ATOM     29  C   UNL     1       3.094   2.873  -1.385  0.00  0.00    +0.004 C 
ATOM     30  C   UNL     1       2.683   1.419  -1.139  0.00  0.00    +0.006 C 
ENDBRANCH  28  30
ENDBRANCH  24  28
ENDBRANCH  23  26
ENDBRANCH   1  23
TORSDOF 5
