REMARK  Name = ZINC58982365
REMARK  5 active torsions:
REMARK  status: ('A' for Active; 'I' for Inactive)
REMARK    1  A    between atoms: N_9  and  C_27
REMARK    2  A    between atoms: C_10  and  C_12
REMARK    3  A    between atoms: C_12  and  C_13
REMARK    4  A    between atoms: C_13  and  C_14
REMARK    5  A    between atoms: C_14  and  N_16
REMARK                            x       y       z     vdW  Elec       q    Type
REMARK                         _______ _______ _______ _____ _____    ______ ____
ROOT
ATOM      1  C   UNL     1       5.438  -2.541  -0.226  0.00  0.00    +0.084 C 
ENDROOT
BRANCH   1  11
ATOM      2  C   UNL     1       0.434   1.415   0.180  0.00  0.00    +0.001 A 
ATOM      3  C   UNL     1       1.613   2.138   0.047  0.00  0.00    +0.002 A 
ATOM      4  C   UNL     1       2.826   1.496  -0.059  0.00  0.00    +0.028 A 
ATOM      5  C   UNL     1       2.875   0.101  -0.032  0.00  0.00    +0.078 A 
ATOM      6  C   UNL     1       1.675  -0.631   0.105  0.00  0.00    +0.065 A 
ATOM      7  C   UNL     1       0.457   0.038   0.210  0.00  0.00    +0.015 A 
ATOM      8  C   UNL     1       1.761  -2.099   0.130  0.00  0.00    +0.262 A 
ATOM      9  O   UNL     1       0.765  -2.789   0.244  0.00  0.00    -0.267 OA
ATOM     10  N   UNL     1       2.991  -2.653   0.020  0.00  0.00    -0.293 N 
ATOM     11  C   UNL     1       4.093  -1.869  -0.108  0.00  0.00    +0.114 A 
ATOM     12  N   UNL     1       4.048  -0.572  -0.133  0.00  0.00    -0.233 NA
BRANCH  10  13
ATOM     13  C   UNL     1       3.135  -4.111   0.039  0.00  0.00    +0.092 C 
ATOM     14  C   UNL     1       2.376  -4.881   1.121  0.00  0.00    +0.027 C 
ATOM     15  C   UNL     1       3.895  -4.730   1.213  0.00  0.00    +0.027 C 
ENDBRANCH  10  13
ENDBRANCH   1  11
BRANCH   1  16
ATOM     16  C   UNL     1       6.529  -1.476  -0.359  0.00  0.00    +0.105 C 
BRANCH  16  17
ATOM     17  C   UNL     1       7.873  -2.148  -0.477  0.00  0.00    +0.239 C 
ATOM     18  O   UNL     1       7.951  -3.361  -0.457  0.00  0.00    -0.274 OA
BRANCH  17  19
ATOM     19  N   UNL     1       8.974  -1.413  -0.603  0.00  0.00    -0.147 NA
ATOM     20  C   UNL     1      10.148  -2.004  -0.812  0.00  0.00    +0.198 A 
ATOM     21  N   UNL     1      10.331  -3.332  -1.038  0.00  0.00    -0.326 N 
ATOM     22  H   UNL     1       9.633  -4.004  -1.074  0.00  0.00    +0.169 HD
ATOM     23  C   UNL     1      11.692  -3.561  -1.210  0.00  0.00    +0.065 A 
ATOM     24  C   UNL     1      12.436  -4.704  -1.464  0.00  0.00    +0.028 A 
ATOM     25  C   UNL     1      13.809  -4.619  -1.588  0.00  0.00    +0.002 A 
ATOM     26  C   UNL     1      14.446  -3.397  -1.461  0.00  0.00    +0.002 A 
ATOM     27  C   UNL     1      13.716  -2.253  -1.208  0.00  0.00    +0.028 A 
ATOM     28  C   UNL     1      12.336  -2.328  -1.082  0.00  0.00    +0.065 A 
ATOM     29  N   UNL     1      11.352  -1.375  -0.839  0.00  0.00    -0.326 N 
ATOM     30  H   UNL     1      11.500  -0.425  -0.710  0.00  0.00    +0.169 HD
ENDBRANCH  17  19
ENDBRANCH  16  17
ENDBRANCH   1  16
TORSDOF 5
