REMARK  Name = ZINC67177773
REMARK  3 active torsions:
REMARK  status: ('A' for Active; 'I' for Inactive)
REMARK    1  A    between atoms: C_1  and  C_2
REMARK    2  A    between atoms: C_6  and  C_25
REMARK    3  A    between atoms: C_10  and  C_12
REMARK                            x       y       z     vdW  Elec       q    Type
REMARK                         _______ _______ _______ _____ _____    ______ ____
ROOT
ATOM      1  C   UNL     1      -0.451   1.228   0.197  0.00  0.00    +0.030 C 
ATOM      2  C   UNL     1      -0.118  -0.252  -0.003  0.00  0.00    +0.099 C 
ATOM      3  C   UNL     1      -1.414  -1.055  -0.164  0.00  0.00    +0.183 C 
ATOM      4  O   UNL     1      -2.133  -1.042   1.072  0.00  0.00    -0.369 OA
ATOM      5  C   UNL     1      -1.440  -1.663   2.158  0.00  0.00    +0.166 C 
ATOM      6  C   UNL     1      -0.146  -0.891   2.438  0.00  0.00    +0.144 C 
ATOM      7  N   UNL     1       0.601  -0.762   1.176  0.00  0.00    -0.290 N 
ATOM      8  C   UNL     1       1.903  -1.101   1.101  0.00  0.00    +0.247 C 
ATOM      9  O   UNL     1       2.474  -1.087   0.028  0.00  0.00    -0.270 OA
ENDROOT
BRANCH   8  10
ATOM     10  C   UNL     1       2.639  -1.489   2.326  0.00  0.00    +0.039 A 
ATOM     11  C   UNL     1       3.577  -2.532   2.273  0.00  0.00    +0.014 A 
ATOM     12  C   UNL     1       4.266  -2.907   3.386  0.00  0.00    +0.016 A 
ATOM     13  C   UNL     1       4.041  -2.248   4.603  0.00  0.00    +0.065 A 
ATOM     14  C   UNL     1       3.095  -1.191   4.671  0.00  0.00    +0.080 A 
ATOM     15  C   UNL     1       2.400  -0.815   3.513  0.00  0.00    +0.041 A 
ATOM     16  N   UNL     1       2.892  -0.571   5.842  0.00  0.00    -0.223 NA
ATOM     17  C   UNL     1       3.562  -0.933   6.925  0.00  0.00    +0.180 A 
ATOM     18  N   UNL     1       4.467  -1.926   6.913  0.00  0.00    -0.301 N 
ATOM     19  H   UNL     1       4.934  -2.158   7.731  0.00  0.00    +0.171 HD
ATOM     20  C   UNL     1       4.735  -2.606   5.778  0.00  0.00    +0.260 A 
ATOM     21  O   UNL     1       5.641  -3.599   5.767  0.00  0.00    -0.267 OA
ATOM     22  S   UNL     1       3.263  -0.107   8.395  0.00  0.00    -0.011 S 
ENDBRANCH   8  10
BRANCH   5  23
ATOM     23  C   UNL     1      -2.313  -1.647   3.387  0.00  0.00    -0.017 A 
ATOM     24  C   UNL     1      -3.159  -0.579   3.619  0.00  0.00    +0.006 A 
ATOM     25  C   UNL     1      -3.959  -0.564   4.746  0.00  0.00    +0.000 A 
ATOM     26  C   UNL     1      -3.914  -1.617   5.640  0.00  0.00    +0.000 A 
ATOM     27  C   UNL     1      -3.069  -2.686   5.407  0.00  0.00    +0.000 A 
ATOM     28  C   UNL     1      -2.272  -2.703   4.278  0.00  0.00    +0.006 A 
ENDBRANCH   5  23
TORSDOF 2
