REMARK  Name = ZINC59876068
REMARK  13 active torsions:
REMARK  status: ('A' for Active; 'I' for Inactive)
REMARK    1  A    between atoms: C_1  and  C_2
REMARK    2  A    between atoms: C_2  and  N_3
REMARK    3  A    between atoms: N_3  and  C_4
REMARK    4  A    between atoms: N_3  and  C_6
REMARK    5  A    between atoms: C_4  and  C_5
REMARK    6  A    between atoms: C_6  and  C_8
REMARK    7  A    between atoms: C_6  and  C_28
REMARK    8  A    between atoms: C_8  and  N_9
REMARK    9  A    between atoms: C_10  and  C_12
REMARK   10  A    between atoms: C_12  and  C_13
REMARK   11  A    between atoms: C_13  and  C_14
REMARK   12  A    between atoms: C_14  and  C_15
REMARK   13  A    between atoms: C_15  and  C_16
REMARK                            x       y       z     vdW  Elec       q    Type
REMARK                         _______ _______ _______ _____ _____    ______ ____
ROOT
ATOM      1  N   UNL     1      -0.839   1.210  -2.871  0.00  0.00    -0.317 N 
ATOM      2  C   UNL     1      -1.221   2.320  -3.532  0.00  0.00    +0.213 C 
ATOM      3  O   UNL     1      -0.832   2.516  -4.664  0.00  0.00    -0.276 OA
ATOM      4  H   UNL     1      -1.206   1.017  -1.994  0.00  0.00    +0.149 HD
ENDROOT
BRANCH   1   5
ATOM      5  C   UNL     1       0.131   0.294  -3.476  0.00  0.00    +0.093 C 
BRANCH   5   6
ATOM      6  C   UNL     1       0.296  -0.937  -2.583  0.00  0.00    -0.019 C 
BRANCH   6   7
ATOM      7  C   UNL     1       1.305  -1.873  -3.198  0.00  0.00    -0.041 A 
ATOM      8  C   UNL     1       2.613  -1.869  -2.753  0.00  0.00    +0.003 A 
ATOM      9  C   UNL     1       3.538  -2.727  -3.317  0.00  0.00    +0.000 A 
ATOM     10  C   UNL     1       3.156  -3.589  -4.327  0.00  0.00    +0.001 A 
ATOM     11  C   UNL     1       1.848  -3.595  -4.773  0.00  0.00    +0.020 A 
ATOM     12  C   UNL     1       0.920  -2.740  -4.205  0.00  0.00    +0.043 A 
ATOM     13 CL   UNL     1      -0.725  -2.750  -4.760  0.00  0.00    -0.083 Cl
ENDBRANCH   6   7
BRANCH   6  14
ATOM     14  N   UNL     1       0.763  -0.519  -1.254  0.00  0.00    +0.385 N 
ATOM     15  H   UNL     1       0.037   0.009  -0.794  0.00  0.00    -0.081 HD
BRANCH  14  17
ATOM     16  C   UNL     1      -0.194  -2.498  -0.173  0.00  0.00    -0.017 C 
ATOM     17  C   UNL     1       1.086  -1.707  -0.453  0.00  0.00    -0.081 C 
ENDBRANCH  14  17
BRANCH  14  18
ATOM     18  C   UNL     1       1.962   0.316  -1.397  0.00  0.00    -0.081 C 
ATOM     19  C   UNL     1       1.597   1.780  -1.144  0.00  0.00    -0.017 C 
ENDBRANCH  14  18
ENDBRANCH   6  14
ENDBRANCH   5   6
ENDBRANCH   1   5
BRANCH   2  20
ATOM     20  C   UNL     1      -2.131   3.319  -2.865  0.00  0.00    +0.096 C 
BRANCH  20  21
ATOM     21  C   UNL     1      -2.511   4.412  -3.867  0.00  0.00    +0.009 C 
BRANCH  21  22
ATOM     22  C   UNL     1      -3.435   5.426  -3.190  0.00  0.00    +0.002 C 
BRANCH  22  23
ATOM     23  C   UNL     1      -3.815   6.518  -4.191  0.00  0.00    +0.016 C 
BRANCH  23  24
ATOM     24  C   UNL     1      -4.739   7.532  -3.514  0.00  0.00    +0.069 C 
ATOM     25  C   UNL     1      -5.111   8.676  -4.482  0.00  0.00    +0.108 C 
ATOM     26  C   UNL     1      -6.573   9.119  -4.378  0.00  0.00    +0.105 C 
ATOM     27  C   UNL     1      -7.388   8.327  -3.333  0.00  0.00    +0.093 C 
ATOM     28  S   UNL     1      -6.394   6.793  -3.168  0.00  0.00    -0.154 S 
ATOM     29  N   UNL     1      -7.125   8.845  -5.714  0.00  0.00    -0.294 N 
ATOM     30  C   UNL     1      -6.161   8.327  -6.487  0.00  0.00    +0.300 C 
ATOM     31  O   UNL     1      -6.341   8.006  -7.646  0.00  0.00    -0.253 OA
ATOM     32  N   UNL     1      -4.990   8.192  -5.867  0.00  0.00    -0.294 N 
ATOM     33  H   UNL     1      -8.040   9.012  -5.991  0.00  0.00    +0.151 HD
ATOM     34  H   UNL     1      -4.185   7.833  -6.270  0.00  0.00    +0.151 HD
ENDBRANCH  23  24
ENDBRANCH  22  23
ENDBRANCH  21  22
ENDBRANCH  20  21
ENDBRANCH   2  20
TORSDOF 11
