REMARK  Name = ZINC30538019
REMARK  11 active torsions:
REMARK  status: ('A' for Active; 'I' for Inactive)
REMARK    1  A    between atoms: C_1  and  C_2
REMARK    2  A    between atoms: C_2  and  O_3
REMARK    3  A    between atoms: O_3  and  C_4
REMARK    4  A    between atoms: C_11  and  C_18
REMARK    5  A    between atoms: C_13  and  O_14
REMARK    6  A    between atoms: C_18  and  N_19
REMARK    7  A    between atoms: N_19  and  C_20
REMARK    8  A    between atoms: N_19  and  C_21
REMARK    9  A    between atoms: C_21  and  C_22
REMARK   10  A    between atoms: N_24  and  C_25
REMARK   11  A    between atoms: C_28  and  C_31
REMARK                            x       y       z     vdW  Elec       q    Type
REMARK                         _______ _______ _______ _____ _____    ______ ____
ROOT
ATOM      1  C   UNL     1       8.115  -5.381  -6.814  0.00  0.00    +0.405 C 
ATOM      2  O   UNL     1       8.347  -6.521  -6.462  0.00  0.00    -0.226 OA
ATOM      3  N   UNL     1       7.290  -4.605  -6.084  0.00  0.00    -0.251 N 
ATOM      4  C   UNL     1       6.790  -5.070  -4.867  0.00  0.00    +0.040 A 
ATOM      5  C   UNL     1       5.508  -4.700  -4.459  0.00  0.00    +0.024 A 
ATOM      6  C   UNL     1       5.005  -5.146  -3.272  0.00  0.00    +0.013 A 
ATOM      7  C   UNL     1       5.778  -5.986  -2.461  0.00  0.00    +0.019 A 
ATOM      8  C   UNL     1       5.266  -6.475  -1.179  0.00  0.00    -0.047 A 
ATOM      9  C   UNL     1       6.066  -7.282  -0.434  0.00  0.00    +0.090 A 
ATOM     10  C   UNL     1       7.351  -7.622  -0.903  0.00  0.00    +0.285 A 
ATOM     11  O   UNL     1       7.817  -7.165  -2.076  0.00  0.00    -0.425 OA
ATOM     12  C   UNL     1       7.073  -6.359  -2.864  0.00  0.00    +0.141 A 
ATOM     13  C   UNL     1       7.570  -5.897  -4.073  0.00  0.00    +0.070 A 
ATOM     14  H   UNL     1       7.011  -3.604  -6.447  0.00  0.00    +0.158 HD
ENDROOT
BRANCH  10  15
ATOM     15  O   UNL     1       8.058  -8.346  -0.225  0.00  0.00    -0.480 OA
ATOM     16  H   UNL     1       9.063  -8.620  -0.578  0.00  0.00    +0.295 HD
ENDBRANCH  10  15
BRANCH   1  17
ATOM     17  O   UNL     1       8.681  -4.894  -7.935  0.00  0.00    -0.450 OA
BRANCH  17  19
ATOM     18  C   UNL     1      10.103  -5.063  -9.904  0.00  0.00    +0.048 C 
ATOM     19  C   UNL     1       9.558  -5.787  -8.671  0.00  0.00    +0.230 C 
ENDBRANCH  17  19
ENDBRANCH   1  17
BRANCH   8  20
ATOM     20  C   UNL     1       3.887  -6.098  -0.702  0.00  0.00    -0.042 C 
BRANCH  20  21
ATOM     21  N   UNL     1       3.909  -4.726  -0.176  0.00  0.00    +0.386 N 
ATOM     22  C   UNL     1       4.617  -4.667   1.110  0.00  0.00    -0.095 C 
ATOM     23  H   UNL     1       4.458  -4.098  -0.893  0.00  0.00    -0.081 HD
BRANCH  21  24
ATOM     24  C   UNL     1       2.548  -4.188  -0.053  0.00  0.00    +0.019 C 
BRANCH  24  25
ATOM     25  C   UNL     1       2.617  -2.713   0.251  0.00  0.00    +0.201 C 
ATOM     26  O   UNL     1       3.694  -2.165   0.354  0.00  0.00    -0.278 OA
ATOM     27  N   UNL     1       1.482  -2.004   0.407  0.00  0.00    -0.287 N 
ATOM     28  H   UNL     1       0.508  -2.515   0.397  0.00  0.00    +0.155 HD
BRANCH  27  29
ATOM     29  C   UNL     1       1.542  -0.617   0.582  0.00  0.00    +0.033 A 
ATOM     30  C   UNL     1       2.554   0.118  -0.024  0.00  0.00    +0.023 A 
ATOM     31  C   UNL     1       2.610   1.487   0.150  0.00  0.00    +0.005 A 
ATOM     32  C   UNL     1       1.661   2.126   0.926  0.00  0.00    -0.050 A 
ATOM     33  C   UNL     1       0.653   1.398   1.531  0.00  0.00    +0.005 A 
ATOM     34  C   UNL     1       0.591   0.029   1.361  0.00  0.00    +0.023 A 
ATOM     35  C   UNL     1       1.726   3.620   1.114  0.00  0.00    +0.044 C 
ENDBRANCH  27  29
ENDBRANCH  24  25
ENDBRANCH  21  24
ENDBRANCH  20  21
ENDBRANCH   8  20
TORSDOF 8
