REMARK  Name = ZINC15786769
REMARK  10 active torsions:
REMARK  status: ('A' for Active; 'I' for Inactive)
REMARK    1  A    between atoms: C_4  and  S_7
REMARK    2  A    between atoms: S_7  and  C_10
REMARK    3  A    between atoms: C_10  and  C_11
REMARK    4  A    between atoms: C_13  and  C_16
REMARK    5  A    between atoms: N_18  and  C_19
REMARK    6  A    between atoms: C_19  and  C_20
REMARK    7  A    between atoms: C_20  and  N_58
REMARK    8  A    between atoms: C_21  and  C_22
REMARK    9  A    between atoms: C_21  and  N_58
REMARK   10  A    between atoms: C_27  and  N_58
REMARK                            x       y       z     vdW  Elec       q    Type
REMARK                         _______ _______ _______ _____ _____    ______ ____
ROOT
ATOM      1  C   UNL     1       7.449  -5.296  -2.247  0.00  0.00    +0.302 C 
ATOM      2  O   UNL     1       6.983  -6.413  -2.145  0.00  0.00    -0.265 OA
ATOM      3  N   UNL     1       8.781  -5.131  -2.369  0.00  0.00    -0.309 N 
ATOM      4  H   UNL     1       9.154  -4.239  -2.450  0.00  0.00    +0.149 HD
ENDROOT
BRANCH   1   7
ATOM      5  C   UNL     1       4.866  -2.838  -2.163  0.00  0.00    +0.193 A 
ATOM      6  N   UNL     1       5.241  -4.125  -2.123  0.00  0.00    -0.186 NA
ATOM      7  C   UNL     1       6.554  -4.115  -2.236  0.00  0.00    +0.313 A 
ATOM      8  O   UNL     1       6.923  -2.829  -2.338  0.00  0.00    -0.328 OA
ATOM      9  N   UNL     1       5.941  -2.118  -2.299  0.00  0.00    -0.059 NA
BRANCH   5  10
ATOM     10  C   UNL     1       3.454  -2.319  -2.072  0.00  0.00    +0.251 C 
BRANCH  10  11
ATOM     11  S   UNL     1       3.031  -2.017  -0.334  0.00  0.00    +0.004 S 
ATOM     12  O   UNL     1       3.796  -0.933   0.174  0.00  0.00    -0.169 OA
ATOM     13  O   UNL     1       2.959  -3.248   0.373  0.00  0.00    -0.169 OA
BRANCH  11  17
ATOM     14  C   UNL     1      -1.228  -0.484  -0.422  0.00  0.00    +0.000 A 
ATOM     15  C   UNL     1      -0.172   0.404  -0.505  0.00  0.00    +0.002 A 
ATOM     16  C   UNL     1       1.129  -0.064  -0.478  0.00  0.00    +0.027 A 
ATOM     17  C   UNL     1       1.373  -1.421  -0.368  0.00  0.00    +0.089 A 
ATOM     18  C   UNL     1       0.317  -2.309  -0.285  0.00  0.00    +0.027 A 
ATOM     19  C   UNL     1      -0.983  -1.841  -0.312  0.00  0.00    +0.002 A 
ENDBRANCH  11  17
ENDBRANCH  10  11
ENDBRANCH   5  10
ENDBRANCH   1   7
BRANCH   3  20
ATOM     20  C   UNL     1       9.667  -6.298  -2.380  0.00  0.00    +0.086 C 
BRANCH  20  21
ATOM     21  C   UNL     1      11.118  -5.836  -2.529  0.00  0.00    -0.059 C 
BRANCH  21  22
ATOM     22  N   UNL     1      11.994  -7.026  -2.563  0.00  0.00    +0.387 N 
ATOM     23  H   UNL     1      11.725  -7.660  -1.802  0.00  0.00    -0.081 HD
BRANCH  22  24
ATOM     24  C   UNL     1      11.838  -7.731  -3.853  0.00  0.00    -0.068 C 
ATOM     25  C   UNL     1      11.727  -6.730  -5.021  0.00  0.00    -0.015 C 
ATOM     26  C   UNL     1      10.690  -7.373  -5.975  0.00  0.00    -0.002 C 
ATOM     27  C   UNL     1       9.664  -7.994  -4.996  0.00  0.00    -0.002 C 
ATOM     28  C   UNL     1      10.526  -8.535  -3.837  0.00  0.00    -0.015 C 
ENDBRANCH  22  24
BRANCH  22  29
ATOM     29  C   UNL     1      13.403  -6.622  -2.376  0.00  0.00    -0.003 C 
BRANCH  29  30
ATOM     30  C   UNL     1      14.230  -7.853  -2.110  0.00  0.00    +0.089 A 
ATOM     31  C   UNL     1      14.911  -8.557  -3.031  0.00  0.00    +0.042 A 
ATOM     32  C   UNL     1      15.542  -9.623  -2.349  0.00  0.00    +0.041 A 
ATOM     33  C   UNL     1      15.202  -9.511  -1.052  0.00  0.00    +0.195 A 
ATOM     34  O   UNL     1      14.407  -8.437  -0.913  0.00  0.00    -0.470 OA
ENDBRANCH  29  30
ENDBRANCH  22  29
ENDBRANCH  21  22
ENDBRANCH  20  21
ENDBRANCH   3  20
TORSDOF 10
