REMARK  Name = ZINC11619406
REMARK  8 active torsions:
REMARK  status: ('A' for Active; 'I' for Inactive)
REMARK    1  A    between atoms: C_1  and  O_2
REMARK    2  A    between atoms: O_2  and  C_3
REMARK    3  A    between atoms: C_15  and  N_16
REMARK    4  A    between atoms: N_16  and  C_17
REMARK    5  A    between atoms: C_17  and  C_18
REMARK    6  A    between atoms: N_20  and  C_21
REMARK    7  A    between atoms: C_21  and  C_22
REMARK    8  A    between atoms: N_24  and  C_25
REMARK                            x       y       z     vdW  Elec       q    Type
REMARK                         _______ _______ _______ _____ _____    ______ ____
ROOT
ATOM      1  C   UNL     1       3.663   2.132   0.022  0.00  0.00    +0.197 C 
ENDROOT
BRANCH   1   2
ATOM      2  C   UNL     1       4.818   1.165   0.000  0.00  0.00    +0.231 C 
ATOM      3  O   UNL     1       4.609  -0.030   0.002  0.00  0.00    -0.274 OA
ATOM      4  N   UNL     1       6.084   1.626  -0.020  0.00  0.00    -0.305 N 
ATOM      5  H   UNL     1       6.252   2.582  -0.021  0.00  0.00    +0.149 HD
BRANCH   4   6
ATOM      6  C   UNL     1       7.207   0.685  -0.042  0.00  0.00    +0.200 C 
BRANCH   6   7
ATOM      7  C   UNL     1       8.505   1.452  -0.062  0.00  0.00    +0.234 C 
ATOM      8  O   UNL     1       8.492   2.665  -0.059  0.00  0.00    -0.274 OA
ATOM      9  N   UNL     1       9.678   0.790  -0.084  0.00  0.00    -0.282 N 
ATOM     10  H   UNL     1       9.690  -0.178  -0.021  0.00  0.00    +0.155 HD
BRANCH   9  11
ATOM     11  C   UNL     1      10.881   1.499  -0.197  0.00  0.00    +0.072 A 
ATOM     12  C   UNL     1      11.012   2.746   0.399  0.00  0.00    +0.029 A 
ATOM     13  C   UNL     1      12.199   3.443   0.290  0.00  0.00    +0.043 A 
ATOM     14  C   UNL     1      13.258   2.905  -0.421  0.00  0.00    +0.161 A 
ATOM     15  C   UNL     1      13.131   1.663  -1.023  0.00  0.00    +0.195 A 
ATOM     16  C   UNL     1      11.944   0.958  -0.912  0.00  0.00    +0.182 A 
ATOM     17  F   UNL     1      11.818  -0.253  -1.497  0.00  0.00    -0.200 F 
ATOM     18  F   UNL     1      14.165   1.139  -1.717  0.00  0.00    -0.199 F 
ATOM     19  F   UNL     1      14.417   3.591  -0.529  0.00  0.00    -0.202 F 
ENDBRANCH   9  11
ENDBRANCH   6   7
ENDBRANCH   4   6
ENDBRANCH   1   2
BRANCH   1  20
ATOM     20  N   UNL     1       2.402   1.387   0.042  0.00  0.00    -0.332 N 
ATOM     21  H   UNL     1       2.412   0.417   0.040  0.00  0.00    +0.147 HD
BRANCH  20  34
ATOM     22  C   UNL     1      -0.015   1.361   0.084  0.00  0.00    +0.142 A 
ATOM     23  C   UNL     1      -1.220   2.036   0.101  0.00  0.00    +0.059 A 
ATOM     24  C   UNL     1      -1.233   3.428   0.110  0.00  0.00    +0.031 A 
ATOM     25  C   UNL     1      -2.305   4.441   0.131  0.00  0.00    +0.028 A 
ATOM     26  C   UNL     1      -3.695   4.377   0.153  0.00  0.00    +0.012 A 
ATOM     27  C   UNL     1      -4.433   5.542   0.169  0.00  0.00    +0.001 A 
ATOM     28  C   UNL     1      -3.793   6.771   0.162  0.00  0.00    +0.004 A 
ATOM     29  C   UNL     1      -2.416   6.846   0.139  0.00  0.00    +0.047 A 
ATOM     30  C   UNL     1      -1.655   5.683   0.122  0.00  0.00    +0.136 A 
ATOM     31  O   UNL     1      -0.321   5.469   0.099  0.00  0.00    -0.455 OA
ATOM     32  C   UNL     1      -0.030   4.148   0.091  0.00  0.00    +0.138 A 
ATOM     33  C   UNL     1       1.175   3.459   0.068  0.00  0.00    +0.073 A 
ATOM     34  C   UNL     1       1.184   2.075   0.065  0.00  0.00    +0.073 A 
BRANCH  22  36
ATOM     35  C   UNL     1      -1.262  -0.665   0.101  0.00  0.00    +0.277 C 
ATOM     36  O   UNL     1       0.003   0.000   0.080  0.00  0.00    -0.493 OA
ENDBRANCH  22  36
ENDBRANCH  20  34
ENDBRANCH   1  20
TORSDOF 7
