REMARK  Name = ZINC40284432
REMARK  3 active torsions:
REMARK  status: ('A' for Active; 'I' for Inactive)
REMARK    1  A    between atoms: C_4  and  N_10
REMARK    2  A    between atoms: C_5  and  C_7
REMARK    3  A    between atoms: C_22  and  C_24
REMARK                            x       y       z     vdW  Elec       q    Type
REMARK                         _______ _______ _______ _____ _____    ______ ____
ROOT
ATOM      1  N   UNL     1       3.583  -0.581  -0.006  0.00  0.00    -0.269 N 
ATOM      2  C   UNL     1       4.732   0.103  -0.173  0.00  0.00    +0.307 C 
ATOM      3  O   UNL     1       4.710   1.315  -0.265  0.00  0.00    -0.252 OA
ATOM      4  N   UNL     1       5.906  -0.556  -0.238  0.00  0.00    -0.272 N 
ATOM      5  C   UNL     1       5.967  -2.010  -0.024  0.00  0.00    +0.116 C 
ATOM      6  C   UNL     1       6.791  -2.299   1.237  0.00  0.00    +0.076 C 
ATOM      7  C   UNL     1       8.041  -1.456   1.206  0.00  0.00    +0.066 A 
ATOM      8  C   UNL     1       8.205  -0.363   0.429  0.00  0.00    +0.064 A 
ATOM      9  N   UNL     1       9.448   0.128   0.680  0.00  0.00    -0.346 N 
ATOM     10  H   UNL     1       9.853   0.910   0.274  0.00  0.00    +0.167 HD
ATOM     11  C   UNL     1      10.014  -0.683   1.604  0.00  0.00    +0.197 A 
ATOM     12  N   UNL     1       9.163  -1.628   1.912  0.00  0.00    -0.240 NA
ATOM     13  C   UNL     1       7.161   0.161  -0.531  0.00  0.00    +0.159 C 
ATOM     14  H   UNL     1       3.607  -1.537   0.154  0.00  0.00    +0.156 HD
ENDROOT
BRANCH  13  15
ATOM     15  C   UNL     1       7.585  -0.108  -1.952  0.00  0.00    +0.014 A 
ATOM     16  C   UNL     1       8.579  -1.032  -2.214  0.00  0.00    +0.010 A 
ATOM     17  C   UNL     1       8.967  -1.279  -3.517  0.00  0.00    +0.016 A 
ATOM     18  C   UNL     1       8.363  -0.602  -4.561  0.00  0.00    +0.021 A 
ATOM     19  C   UNL     1       7.369   0.324  -4.301  0.00  0.00    +0.054 A 
ATOM     20  C   UNL     1       6.974   0.567  -2.996  0.00  0.00    +0.130 A 
ATOM     21  F   UNL     1       5.999   1.467  -2.741  0.00  0.00    -0.205 F 
ATOM     22 BR   UNL     1       8.896  -0.940  -6.343  0.00  0.00    -0.050 Br
ENDBRANCH  13  15
BRANCH   1  26
ATOM     23  C   UNL     1      -0.075   1.413  -0.181  0.00  0.00    +0.001 A 
ATOM     24  C   UNL     1       1.034   1.926  -0.837  0.00  0.00    +0.002 A 
ATOM     25  C   UNL     1       2.246   1.268  -0.780  0.00  0.00    +0.024 A 
ATOM     26  C   UNL     1       2.363   0.084  -0.064  0.00  0.00    +0.049 A 
ATOM     27  C   UNL     1       1.242  -0.438   0.602  0.00  0.00    +0.084 A 
ATOM     28  C   UNL     1       0.021   0.241   0.535  0.00  0.00    +0.017 A 
BRANCH  27  29
ATOM     29  C   UNL     1       1.351  -1.691   1.365  0.00  0.00    +0.388 C 
ATOM     30  O   UNL     1       0.352  -2.195   1.860  0.00  0.00    -0.241 OA
ATOM     31  O   UNL     1       2.441  -2.230   1.504  0.00  0.00    -0.241 OA
ENDBRANCH  27  29
ENDBRANCH   1  26
TORSDOF 3
