REMARK  Name = ZINC39306802
REMARK  8 active torsions:
REMARK  status: ('A' for Active; 'I' for Inactive)
REMARK    1  A    between atoms: C_1  and  C_2
REMARK    2  A    between atoms: C_6  and  O_27
REMARK    3  A    between atoms: C_7  and  O_26
REMARK    4  A    between atoms: N_12  and  C_13
REMARK    5  A    between atoms: C_13  and  C_14
REMARK    6  A    between atoms: N_16  and  C_17
REMARK    7  A    between atoms: C_20  and  O_24
REMARK    8  A    between atoms: O_24  and  C_25
REMARK                            x       y       z     vdW  Elec       q    Type
REMARK                         _______ _______ _______ _____ _____    ______ ____
ROOT
ATOM      1  C   UNL     1      -0.152   1.163   0.011  0.00  0.00    -0.008 C 
ATOM      2  C   UNL     1       0.063  -0.347  -0.103  0.00  0.00    -0.040 C 
ATOM      3  C   UNL     1      -1.274  -1.035  -0.184  0.00  0.00    -0.054 A 
ATOM      4  C   UNL     1      -2.268  -0.458  -0.962  0.00  0.00    +0.051 A 
ATOM      5  C   UNL     1      -3.510  -1.058  -1.068  0.00  0.00    +0.158 A 
ATOM      6  C   UNL     1      -3.763  -2.246  -0.388  0.00  0.00    +0.158 A 
ATOM      7  C   UNL     1      -2.770  -2.816   0.388  0.00  0.00    +0.053 A 
ATOM      8  C   UNL     1      -1.527  -2.211   0.491  0.00  0.00    -0.044 A 
ATOM      9  C   UNL     1      -0.476  -2.863   1.353  0.00  0.00    +0.017 C 
ATOM     10  C   UNL     1       0.899  -2.285   1.020  0.00  0.00    -0.073 C 
ATOM     11  N   UNL     1       0.814  -0.817   1.065  0.00  0.00    +0.390 N 
ATOM     12  H   UNL     1       0.340  -0.532   1.909  0.00  0.00    -0.080 HD
ENDROOT
BRANCH   6  13
ATOM     13  O   UNL     1      -4.981  -2.843  -0.486  0.00  0.00    -0.503 OA
ATOM     14  H   UNL     1      -5.052  -3.475  -1.214  0.00  0.00    +0.292 HD
ENDBRANCH   6  13
BRANCH   5  15
ATOM     15  O   UNL     1      -4.480  -0.488  -1.832  0.00  0.00    -0.503 OA
ATOM     16  H   UNL     1      -4.479  -0.784  -2.753  0.00  0.00    +0.292 HD
ENDBRANCH   5  15
BRANCH  11  17
ATOM     17  C   UNL     1       2.167  -0.246   1.042  0.00  0.00    +0.020 C 
BRANCH  17  18
ATOM     18  C   UNL     1       2.896  -0.630   2.304  0.00  0.00    +0.201 C 
ATOM     19  O   UNL     1       2.343  -1.313   3.140  0.00  0.00    -0.278 OA
ATOM     20  N   UNL     1       4.163  -0.215   2.503  0.00  0.00    -0.287 N 
ATOM     21  H   UNL     1       4.632   0.265   1.803  0.00  0.00    +0.155 HD
BRANCH  20  22
ATOM     22  C   UNL     1       4.803  -0.478   3.722  0.00  0.00    +0.035 A 
ATOM     23  C   UNL     1       6.172  -0.709   3.752  0.00  0.00    +0.027 A 
ATOM     24  C   UNL     1       6.802  -0.967   4.953  0.00  0.00    +0.049 A 
ATOM     25  C   UNL     1       6.068  -0.996   6.130  0.00  0.00    +0.138 A 
ATOM     26  C   UNL     1       4.700  -0.767   6.101  0.00  0.00    +0.084 A 
ATOM     27  C   UNL     1       4.069  -0.502   4.900  0.00  0.00    +0.047 A 
ATOM     28 CL   UNL     1       3.782  -0.804   7.574  0.00  0.00    -0.080 Cl
BRANCH  25  29
ATOM     29  O   UNL     1       6.690  -1.251   7.312  0.00  0.00    -0.494 OA
ATOM     30  C   UNL     1       8.100  -1.479   7.268  0.00  0.00    +0.277 C 
ENDBRANCH  25  29
ENDBRANCH  20  22
ENDBRANCH  17  18
ENDBRANCH  11  17
TORSDOF 6
