REMARK  Name = ZINC04899127
REMARK  8 active torsions:
REMARK  status: ('A' for Active; 'I' for Inactive)
REMARK    1  A    between atoms: C_1  and  O_2
REMARK    2  A    between atoms: O_2  and  C_3
REMARK    3  A    between atoms: C_6  and  C_9
REMARK    4  A    between atoms: C_9  and  C_11
REMARK    5  A    between atoms: C_13  and  C_25
REMARK    6  A    between atoms: C_16  and  O_24
REMARK    7  A    between atoms: C_18  and  C_19
REMARK    8  A    between atoms: C_28  and  O_31
REMARK                            x       y       z     vdW  Elec       q    Type
REMARK                         _______ _______ _______ _____ _____    ______ ____
ROOT
ATOM      1  C   UNL     1      -4.857  -4.560  -0.219  0.00  0.00    +0.149 C 
ATOM      2  C   UNL     1      -6.199  -4.686  -0.956  0.00  0.00    +0.120 C 
ATOM      3  N   UNL     1      -7.144  -3.765  -0.306  0.00  0.00    -0.293 N 
ATOM      4  C   UNL     1      -7.155  -3.688   1.065  0.00  0.00    +0.256 C 
ATOM      5  N   UNL     1      -6.223  -4.203   1.792  0.00  0.00    -0.306 N 
ATOM      6  C   UNL     1      -5.075  -4.924   1.251  0.00  0.00    +0.284 C 
ATOM      7  O   UNL     1      -5.309  -6.330   1.359  0.00  0.00    -0.194 OA
ATOM      8  H   UNL     1      -7.748  -3.222  -0.837  0.00  0.00    +0.151 HD
ATOM      9  H   UNL     1      -6.288  -4.105   2.755  0.00  0.00    +0.167 HD
ENDROOT
BRANCH   2  10
ATOM     10  C   UNL     1      -6.026  -4.309  -2.404  0.00  0.00    -0.026 A 
ATOM     11  C   UNL     1      -6.088  -2.980  -2.783  0.00  0.00    +0.009 A 
ATOM     12  C   UNL     1      -5.930  -2.632  -4.111  0.00  0.00    +0.046 A 
ATOM     13  C   UNL     1      -5.709  -3.615  -5.064  0.00  0.00    +0.117 A 
ATOM     14  C   UNL     1      -5.646  -4.947  -4.680  0.00  0.00    +0.046 A 
ATOM     15  C   UNL     1      -5.800  -5.290  -3.351  0.00  0.00    +0.009 A 
BRANCH  13  16
ATOM     16  O   UNL     1      -5.553  -3.275  -6.370  0.00  0.00    -0.507 OA
ATOM     17  H   UNL     1      -4.637  -3.100  -6.625  0.00  0.00    +0.292 HD
ENDBRANCH  13  16
ENDBRANCH   2  10
BRANCH   6  18
ATOM     18  C   UNL     1      -3.824  -4.558   2.053  0.00  0.00    +0.441 C 
ATOM     19  F   UNL     1      -3.658  -3.169   2.049  0.00  0.00    -0.166 F 
ATOM     20  F   UNL     1      -3.967  -5.007   3.370  0.00  0.00    -0.166 F 
ATOM     21  F   UNL     1      -2.705  -5.164   1.472  0.00  0.00    -0.166 F 
ENDBRANCH   6  18
BRANCH   1  22
ATOM     22  C   UNL     1      -4.353  -3.143  -0.321  0.00  0.00    +0.173 C 
ATOM     23  O   UNL     1      -5.008  -2.232   0.140  0.00  0.00    -0.292 OA
BRANCH  22  27
ATOM     24  C   UNL     1      -0.652  -2.343  -2.218  0.00  0.00    +0.120 A 
ATOM     25  C   UNL     1      -1.452  -1.290  -1.787  0.00  0.00    +0.046 A 
ATOM     26  C   UNL     1      -2.651  -1.544  -1.173  0.00  0.00    +0.015 A 
ATOM     27  C   UNL     1      -3.070  -2.866  -0.979  0.00  0.00    +0.018 A 
ATOM     28  C   UNL     1      -2.261  -3.922  -1.415  0.00  0.00    +0.015 A 
ATOM     29  C   UNL     1      -1.066  -3.658  -2.033  0.00  0.00    +0.046 A 
BRANCH  24  31
ATOM     30  C   UNL     1       0.898  -0.714  -2.984  0.00  0.00    +0.277 C 
ATOM     31  O   UNL     1       0.534  -2.087  -2.826  0.00  0.00    -0.495 OA
ENDBRANCH  24  31
ENDBRANCH  22  27
ENDBRANCH   1  22
BRANCH   4  32
ATOM     32  O   UNL     1      -8.179  -3.050   1.673  0.00  0.00    -0.483 OA
ATOM     33  H   UNL     1      -8.116  -3.038   2.638  0.00  0.00    +0.295 HD
ENDBRANCH   4  32
TORSDOF 7
