REMARK  Name = ZINC67459227
REMARK  7 active torsions:
REMARK  status: ('A' for Active; 'I' for Inactive)
REMARK    1  A    between atoms: C_1  and  C_2
REMARK    2  A    between atoms: C_2  and  C_3
REMARK    3  A    between atoms: C_2  and  N_4
REMARK    4  A    between atoms: C_5  and  C_7
REMARK    5  A    between atoms: C_10  and  N_25
REMARK    6  A    between atoms: C_14  and  C_16
REMARK    7  A    between atoms: C_16  and  C_17
REMARK                            x       y       z     vdW  Elec       q    Type
REMARK                         _______ _______ _______ _____ _____    ______ ____
ROOT
ATOM      1  C   UNL     1      -3.057  -2.256  -0.474  0.00  0.00    +0.160 C 
ATOM      2  C   UNL     1      -3.403  -2.805   0.926  0.00  0.00    +0.017 C 
ATOM      3  C   UNL     1      -3.159  -4.329   0.772  0.00  0.00    -0.055 C 
ATOM      4  C   UNL     1      -3.618  -4.572  -0.687  0.00  0.00    +0.092 C 
ATOM      5  N   UNL     1      -3.187  -3.368  -1.427  0.00  0.00    -0.291 N 
ATOM      6  C   UNL     1      -2.951  -3.299  -2.752  0.00  0.00    +0.221 C 
ATOM      7  O   UNL     1      -2.599  -2.251  -3.252  0.00  0.00    -0.275 OA
ENDROOT
BRANCH   1   9
ATOM      8  N   UNL     1      -1.372  -0.511   0.012  0.00  0.00    -0.311 N 
ATOM      9  C   UNL     1      -1.643  -1.734  -0.485  0.00  0.00    +0.234 C 
ATOM     10  O   UNL     1      -0.749  -2.415  -0.941  0.00  0.00    -0.274 OA
ATOM     11  H   UNL     1      -2.087   0.033   0.377  0.00  0.00    +0.149 HD
BRANCH   8  13
ATOM     12  C   UNL     1      -0.019   1.526   0.010  0.00  0.00    +0.027 C 
ATOM     13  C   UNL     1       0.002  -0.004   0.002  0.00  0.00    +0.067 C 
ATOM     14  C   UNL     1       0.742  -0.511   1.242  0.00  0.00    +0.027 C 
ENDBRANCH   8  13
ENDBRANCH   1   9
BRANCH   3  15
ATOM     15  N   UNL     1      -3.983  -5.093   1.718  0.00  0.00    +0.381 N 
ATOM     16  H   UNL     1      -4.958  -4.902   1.545  0.00  0.00    -0.090 HD
ATOM     17  H   UNL     1      -3.806  -6.079   1.599  0.00  0.00    -0.090 HD
ATOM     18  H   UNL     1      -3.750  -4.821   2.662  0.00  0.00    -0.090 HD
ENDBRANCH   3  15
BRANCH   6  19
ATOM     19  C   UNL     1      -3.125  -4.523  -3.613  0.00  0.00    +0.134 C 
BRANCH  19  20
ATOM     20  C   UNL     1      -2.801  -4.180  -5.045  0.00  0.00    -0.002 A 
ATOM     21  C   UNL     1      -3.797  -3.723  -5.889  0.00  0.00    +0.046 A 
ATOM     22  C   UNL     1      -3.500  -3.408  -7.203  0.00  0.00    +0.020 A 
ATOM     23  C   UNL     1      -2.208  -3.552  -7.673  0.00  0.00    +0.003 A 
ATOM     24  C   UNL     1      -1.212  -4.009  -6.830  0.00  0.00    +0.020 A 
ATOM     25  C   UNL     1      -1.507  -4.318  -5.514  0.00  0.00    +0.046 A 
ATOM     26 CL   UNL     1      -0.255  -4.885  -4.453  0.00  0.00    -0.083 Cl
ATOM     27 CL   UNL     1      -5.420  -3.543  -5.299  0.00  0.00    -0.083 Cl
ENDBRANCH  19  20
ENDBRANCH   6  19
TORSDOF 5
