REMARK  Name = ZINC02500092
REMARK  6 active torsions:
REMARK  status: ('A' for Active; 'I' for Inactive)
REMARK    1  A    between atoms: C_1  and  C_2
REMARK    2  A    between atoms: C_5  and  C_8
REMARK    3  A    between atoms: C_11  and  C_18
REMARK    4  A    between atoms: C_21  and  C_24
REMARK    5  A    between atoms: C_24  and  C_25
REMARK    6  A    between atoms: C_24  and  C_26
REMARK                            x       y       z     vdW  Elec       q    Type
REMARK                         _______ _______ _______ _____ _____    ______ ____
ROOT
ATOM      1  C   UNL     1      -2.717   2.950   4.762  0.00  0.00    +0.167 C 
ATOM      2  C   UNL     1      -3.752   1.939   5.179  0.00  0.00    +0.028 C 
ATOM      3  C   UNL     1      -5.057   2.136   5.051  0.00  0.00    +0.039 C 
ATOM      4  N   UNL     1      -5.582   3.321   4.518  0.00  0.00    -0.282 N 
ATOM      5  C   UNL     1      -4.707   4.386   4.365  0.00  0.00    +0.240 A 
ATOM      6  N   UNL     1      -3.363   4.227   4.484  0.00  0.00    -0.202 N 
ATOM      7  N   UNL     1      -2.819   5.494   4.284  0.00  0.00    -0.042 NA
ATOM      8  N   UNL     1      -3.814   6.291   4.064  0.00  0.00    -0.021 NA
ATOM      9  N   UNL     1      -4.928   5.643   4.109  0.00  0.00    -0.092 NA
ATOM     10  H   UNL     1      -6.516   3.393   4.266  0.00  0.00    +0.155 HD
ENDROOT
BRANCH   1  15
ATOM     11  C   UNL     1      -0.013   1.086   0.008  0.00  0.00    +0.044 C 
ATOM     12  C   UNL     1      -0.718   1.572   1.248  0.00  0.00    -0.050 A 
ATOM     13  C   UNL     1      -2.083   1.789   1.226  0.00  0.00    +0.004 A 
ATOM     14  C   UNL     1      -2.731   2.230   2.365  0.00  0.00    +0.006 A 
ATOM     15  C   UNL     1      -2.012   2.464   3.522  0.00  0.00    -0.019 A 
ATOM     16  C   UNL     1      -0.646   2.252   3.542  0.00  0.00    +0.006 A 
ATOM     17  C   UNL     1       0.001   1.806   2.405  0.00  0.00    +0.004 A 
ENDBRANCH   1  15
BRANCH   3  18
ATOM     18  C   UNL     1      -5.989   1.071   5.486  0.00  0.00    -0.004 A 
ATOM     19  C   UNL     1      -5.493  -0.121   6.015  0.00  0.00    +0.010 A 
ATOM     20  C   UNL     1      -6.367  -1.108   6.423  0.00  0.00    +0.004 A 
ATOM     21  C   UNL     1      -7.732  -0.922   6.298  0.00  0.00    -0.045 A 
ATOM     22  C   UNL     1      -8.230   0.255   5.770  0.00  0.00    +0.004 A 
ATOM     23  C   UNL     1      -7.366   1.252   5.363  0.00  0.00    +0.010 A 
BRANCH  21  24
ATOM     24  C   UNL     1      -8.680  -2.006   6.740  0.00  0.00    +0.013 C 
ATOM     25  C   UNL     1      -8.404  -3.282   5.941  0.00  0.00    +0.012 C 
ATOM     26  C   UNL     1      -8.478  -2.285   8.231  0.00  0.00    +0.012 C 
ENDBRANCH  21  24
ENDBRANCH   3  18
TORSDOF 3
