REMARK  Name = ZINC00196691
REMARK  5 active torsions:
REMARK  status: ('A' for Active; 'I' for Inactive)
REMARK    1  A    between atoms: C_1  and  O_2
REMARK    2  A    between atoms: O_2  and  C_3
REMARK    3  A    between atoms: C_3  and  C_5
REMARK    4  A    between atoms: C_6  and  N_24
REMARK    5  A    between atoms: C_10  and  C_12
REMARK                            x       y       z     vdW  Elec       q    Type
REMARK                         _______ _______ _______ _____ _____    ______ ____
ROOT
ATOM      1  C   UNL     1       1.981  -2.664   1.209  0.00  0.00    +0.105 C 
ATOM      2  C   UNL     1       3.231  -3.181   1.079  0.00  0.00    +0.195 C 
ATOM      3  O   UNL     1       3.860  -3.195  -0.104  0.00  0.00    -0.446 OA
ATOM      4  C   UNL     1       3.149  -3.110  -1.244  0.00  0.00    +0.115 C 
ATOM      5  C   UNL     1       1.904  -2.600  -1.258  0.00  0.00    +0.045 C 
ATOM      6  C   UNL     1       1.266  -2.098   0.014  0.00  0.00    +0.099 C 
ATOM      7  C   UNL     1       1.159  -2.519  -2.450  0.00  0.00    +0.163 C 
ATOM      8  O   UNL     1       0.045  -2.036  -2.425  0.00  0.00    -0.292 OA
ATOM      9  C   UNL     1       1.719  -3.018  -3.755  0.00  0.00    +0.080 C 
ATOM     10  C   UNL     1       2.720  -4.142  -3.466  0.00  0.00    +0.016 C 
ATOM     11  C   UNL     1       3.795  -3.601  -2.519  0.00  0.00    +0.075 C 
ENDROOT
BRANCH   6  12
ATOM     12  C   UNL     1       1.343  -0.594   0.052  0.00  0.00    -0.017 A 
ATOM     13  C   UNL     1       2.573   0.036   0.037  0.00  0.00    +0.006 A 
ATOM     14  C   UNL     1       2.644   1.416   0.072  0.00  0.00    +0.000 A 
ATOM     15  C   UNL     1       1.485   2.167   0.123  0.00  0.00    +0.001 A 
ATOM     16  C   UNL     1       0.254   1.539   0.139  0.00  0.00    +0.020 A 
ATOM     17  C   UNL     1       0.182   0.158   0.104  0.00  0.00    +0.045 A 
ATOM     18 CL   UNL     1      -1.363  -0.632   0.124  0.00  0.00    -0.083 Cl
ENDBRANCH   6  12
BRANCH   2  19
ATOM     19  N   UNL     1       3.860  -3.697   2.180  0.00  0.00    -0.329 N 
ATOM     20  H   UNL     1       3.382  -3.776   3.020  0.00  0.00    +0.145 HD
ATOM     21  H   UNL     1       4.785  -3.985   2.120  0.00  0.00    +0.145 HD
ENDBRANCH   2  19
BRANCH   1  22
ATOM     22  C   UNL     1       1.354  -2.660   2.465  0.00  0.00    +0.341 C 
ATOM     23  O   UNL     1       0.504  -3.493   2.724  0.00  0.00    -0.245 OA
BRANCH  22  25
ATOM     24  C   UNL     1       1.016  -1.787   4.643  0.00  0.00    +0.280 C 
ATOM     25  O   UNL     1       1.694  -1.732   3.386  0.00  0.00    -0.465 OA
ENDBRANCH  22  25
ENDBRANCH   1  22
TORSDOF 4
