REMARK  Name = ZINC43287069
REMARK  13 active torsions:
REMARK  status: ('A' for Active; 'I' for Inactive)
REMARK    1  A    between atoms: C_1  and  C_2
REMARK    2  A    between atoms: C_2  and  C_3
REMARK    3  A    between atoms: C_3  and  C_5
REMARK    4  A    between atoms: C_3  and  N_23
REMARK    5  A    between atoms: C_5  and  C_7
REMARK    6  A    between atoms: C_5  and  N_13
REMARK    7  A    between atoms: N_13  and  C_14
REMARK    8  A    between atoms: N_13  and  C_16
REMARK    9  A    between atoms: C_14  and  C_15
REMARK   10  A    between atoms: C_16  and  C_17
REMARK   11  A    between atoms: N_19  and  C_20
REMARK   12  A    between atoms: C_20  and  C_21
REMARK   13  A    between atoms: C_20  and  C_22
REMARK                            x       y       z     vdW  Elec       q    Type
REMARK                         _______ _______ _______ _____ _____    ______ ____
ROOT
ATOM      1  C   UNL     1      -1.379  -1.820   0.126  0.00  0.00    -0.045 C 
ENDROOT
BRANCH   1   2
ATOM      2  C   UNL     1      -0.746  -1.982  -1.232  0.00  0.00    -0.024 A 
ATOM      3  C   UNL     1      -0.604  -1.067  -2.222  0.00  0.00    +0.024 A 
ATOM      4  C   UNL     1       0.017  -1.443  -3.398  0.00  0.00    +0.025 A 
ATOM      5  C   UNL     1       0.466  -2.716  -3.526  0.00  0.00    +0.060 A 
ATOM      6  S   UNL     1       0.018  -3.426  -1.951  0.00  0.00    -0.102 S 
ATOM      7 BR   UNL     1       0.237  -0.201  -4.807  0.00  0.00    -0.050 Br
ENDBRANCH   1   2
BRANCH   1   8
ATOM      8  N   UNL     1      -0.435  -2.260   1.162  0.00  0.00    +0.389 N 
ATOM      9  H   UNL     1      -0.825  -2.073   2.074  0.00  0.00    -0.080 HD
BRANCH   8  10
ATOM     10  C   UNL     1       0.831  -1.530   1.013  0.00  0.00    -0.081 C 
ATOM     11  C   UNL     1       0.599  -0.044   1.291  0.00  0.00    -0.017 C 
ENDBRANCH   8  10
BRANCH   8  12
ATOM     12  C   UNL     1      -0.189  -3.701   1.020  0.00  0.00    +0.019 C 
BRANCH  12  13
ATOM     13  C   UNL     1       0.653  -4.183   2.173  0.00  0.00    +0.197 C 
ATOM     14  O   UNL     1       1.013  -3.403   3.029  0.00  0.00    -0.278 OA
ATOM     15  N   UNL     1       1.006  -5.481   2.253  0.00  0.00    -0.315 N 
ATOM     16  H   UNL     1       0.718  -6.105   1.569  0.00  0.00    +0.149 HD
BRANCH  15  17
ATOM     17  C   UNL     1       1.825  -5.950   3.374  0.00  0.00    +0.067 C 
ATOM     18  C   UNL     1       1.578  -7.444   3.596  0.00  0.00    +0.027 C 
ATOM     19  C   UNL     1       3.304  -5.719   3.057  0.00  0.00    +0.027 C 
ENDBRANCH  15  17
ENDBRANCH  12  13
ENDBRANCH   8  12
ENDBRANCH   1   8
BRANCH   1  20
ATOM     20  C   UNL     1      -2.650  -2.668   0.201  0.00  0.00    -0.085 C 
BRANCH  20  21
ATOM     21  N   UNL     1      -3.589  -2.236  -0.843  0.00  0.00    +0.379 N 
ATOM     22  H   UNL     1      -3.824  -1.265  -0.703  0.00  0.00    -0.090 HD
ATOM     23  H   UNL     1      -3.160  -2.351  -1.749  0.00  0.00    -0.090 HD
ATOM     24  H   UNL     1      -4.427  -2.796  -0.794  0.00  0.00    -0.090 HD
ENDBRANCH  20  21
BRANCH  20  26
ATOM     25  C   UNL     1      -4.504  -3.430   1.693  0.00  0.00    +0.002 C 
ATOM     26  C   UNL     1      -3.300  -2.493   1.575  0.00  0.00    -0.021 C 
ENDBRANCH  20  26
ENDBRANCH   1  20
TORSDOF 9
