REMARK  Name = ZINC62765260
REMARK  8 active torsions:
REMARK  status: ('A' for Active; 'I' for Inactive)
REMARK    1  A    between atoms: C_1  and  C_2
REMARK    2  A    between atoms: C_2  and  C_3
REMARK    3  A    between atoms: C_2  and  C_4
REMARK    4  A    between atoms: C_2  and  C_5
REMARK    5  A    between atoms: C_9  and  C_21
REMARK    6  A    between atoms: C_11  and  S_14
REMARK    7  A    between atoms: S_14  and  C_15
REMARK    8  A    between atoms: N_19  and  C_20
REMARK                            x       y       z     vdW  Elec       q    Type
REMARK                         _______ _______ _______ _____ _____    ______ ____
ROOT
ATOM      1  C   UNL     1       0.718  -0.497  -1.257  0.00  0.00    -0.004 C 
ATOM      2  C   UNL     1      -0.022   0.009  -2.496  0.00  0.00    +0.005 C 
ATOM      3  C   UNL     1       0.694  -0.484  -3.755  0.00  0.00    +0.016 C 
ATOM      4  C   UNL     1       2.130   0.045  -3.766  0.00  0.00    +0.115 C 
ATOM      5  C   UNL     1       2.870  -0.461  -2.526  0.00  0.00    +0.068 C 
ATOM      6  C   UNL     1       2.154   0.032  -1.268  0.00  0.00    +0.019 C 
ENDROOT
BRANCH   1   8
ATOM      7  C   UNL     1      -0.019   1.526   0.010  0.00  0.00    +0.011 C 
ATOM      8  C   UNL     1       0.002  -0.004   0.002  0.00  0.00    -0.035 C 
ATOM      9  C   UNL     1       0.742  -0.511   1.242  0.00  0.00    +0.011 C 
ATOM     10  C   UNL     1      -1.433  -0.534   0.013  0.00  0.00    +0.011 C 
ENDBRANCH   1   8
BRANCH   4  11
ATOM     11  C   UNL     1       2.109   1.552  -3.758  0.00  0.00    +0.360 C 
ATOM     12  O   UNL     1       1.045   2.147  -3.744  0.00  0.00    -0.246 OA
ATOM     13  O   UNL     1       3.157   2.176  -3.764  0.00  0.00    -0.246 OA
ENDBRANCH   4  11
BRANCH   5  14
ATOM     14  S   UNL     1       2.894  -2.275  -2.536  0.00  0.00    -0.082 S 
BRANCH  14  15
ATOM     15  C   UNL     1       3.867  -2.680  -3.948  0.00  0.00    +0.191 A 
ATOM     16  N   UNL     1       4.434  -1.833  -4.776  0.00  0.00    -0.123 NA
ATOM     17  N   UNL     1       5.066  -2.474  -5.692  0.00  0.00    -0.137 NA
ATOM     18  C   UNL     1       4.943  -3.758  -5.507  0.00  0.00    +0.225 A 
ATOM     19  N   UNL     1       4.180  -3.936  -4.386  0.00  0.00    -0.312 N 
ATOM     20  C   UNL     1       3.778  -5.208  -3.782  0.00  0.00    +0.152 C 
ENDBRANCH  14  15
ENDBRANCH   5  14
TORSDOF 4
