REMARK  Name = ZINC03522817
REMARK  7 active torsions:
REMARK  status: ('A' for Active; 'I' for Inactive)
REMARK    1  A    between atoms: C_1  and  C_2
REMARK    2  A    between atoms: C_2  and  N_3
REMARK    3  A    between atoms: C_7  and  C_9
REMARK    4  A    between atoms: C_9  and  C_11
REMARK    5  A    between atoms: C_9  and  S_12
REMARK    6  A    between atoms: S_12  and  C_13
REMARK    7  A    between atoms: C_23  and  C_27
REMARK                            x       y       z     vdW  Elec       q    Type
REMARK                         _______ _______ _______ _____ _____    ______ ____
ROOT
ATOM      1  C   UNL     1       2.316  -0.074  -0.021  0.00  0.00    +0.109 A 
ATOM      2  C   UNL     1       2.365   1.348  -0.013  0.00  0.00    +0.043 A 
ATOM      3  C   UNL     1       3.537   2.225  -0.018  0.00  0.00    -0.025 A 
ATOM      4  C   UNL     1       3.307   3.554  -0.009  0.00  0.00    -0.004 A 
ATOM      5  S   UNL     1       1.542   3.717   0.008  0.00  0.00    -0.073 S 
ATOM      6  C   UNL     1       1.114   1.996   0.002  0.00  0.00    +0.113 A 
ATOM      7  N   UNL     1      -0.016   1.315   0.009  0.00  0.00    -0.228 NA
ATOM      8  C   UNL     1       0.002  -0.004   0.002  0.00  0.00    +0.223 A 
ATOM      9  N   UNL     1       1.138  -0.678  -0.013  0.00  0.00    -0.229 NA
ATOM     10  C   UNL     1       4.327   4.651  -0.012  0.00  0.00    +0.046 C 
ATOM     11  C   UNL     1       5.686   4.050  -0.401  0.00  0.00    -0.009 C 
ATOM     12  C   UNL     1       5.917   2.782   0.428  0.00  0.00    +0.008 C 
ATOM     13  C   UNL     1       4.963   1.680  -0.033  0.00  0.00    +0.037 C 
ATOM     14  C   UNL     1       6.796   5.061  -0.112  0.00  0.00    +0.008 C 
ENDROOT
BRANCH   1  15
ATOM     15  S   UNL     1       3.804  -1.019  -0.041  0.00  0.00    -0.093 S 
BRANCH  15  16
ATOM     16  C   UNL     1       3.113  -2.692  -0.044  0.00  0.00    +0.136 C 
ATOM     17  C   UNL     1       2.343  -2.924  -1.345  0.00  0.00    +0.029 C 
BRANCH  16  22
ATOM     18  N   UNL     1       4.713  -7.106   0.992  0.00  0.00    -0.299 N 
ATOM     19  C   UNL     1       4.972  -5.850   0.576  0.00  0.00    +0.306 C 
ATOM     20  O   UNL     1       6.108  -5.529   0.286  0.00  0.00    -0.252 OA
ATOM     21  N   UNL     1       3.972  -4.952   0.480  0.00  0.00    -0.239 N 
ATOM     22  C   UNL     1       4.231  -3.697   0.063  0.00  0.00    +0.233 C 
ATOM     23  O   UNL     1       5.364  -3.376  -0.225  0.00  0.00    -0.274 OA
ATOM     24  H   UNL     1       3.806  -7.362   1.223  0.00  0.00    +0.150 HD
ATOM     25  H   UNL     1       3.066  -5.208   0.711  0.00  0.00    +0.159 HD
BRANCH  18  27
ATOM     26  C   UNL     1       5.239  -9.418   1.588  0.00  0.00    +0.024 C 
ATOM     27  C   UNL     1       5.800  -8.082   1.097  0.00  0.00    +0.102 C 
ENDBRANCH  18  27
ENDBRANCH  16  22
ENDBRANCH  15  16
ENDBRANCH   1  15
TORSDOF 4
