REMARK  Name = ZINC55482275
REMARK  11 active torsions:
REMARK  status: ('A' for Active; 'I' for Inactive)
REMARK    1  A    between atoms: C_1  and  C_2
REMARK    2  A    between atoms: C_2  and  C_4
REMARK    3  A    between atoms: C_2  and  N_8
REMARK    4  A    between atoms: C_4  and  C_5
REMARK    5  A    between atoms: C_5  and  C_6
REMARK    6  A    between atoms: C_5  and  C_7
REMARK    7  A    between atoms: N_8  and  C_9
REMARK    8  A    between atoms: C_10  and  C_12
REMARK    9  A    between atoms: C_14  and  N_20
REMARK   10  A    between atoms: C_17  and  N_18
REMARK   11  A    between atoms: N_18  and  C_19
REMARK                            x       y       z     vdW  Elec       q    Type
REMARK                         _______ _______ _______ _____ _____    ______ ____
ROOT
ATOM      1  C   UNL     1      -2.851  -2.513   0.798  0.00  0.00    +0.060 A 
ATOM      2  C   UNL     1      -2.829  -3.603  -0.076  0.00  0.00    +0.047 A 
ATOM      3  C   UNL     1      -3.925  -4.432  -0.169  0.00  0.00    +0.127 A 
ATOM      4  C   UNL     1      -5.052  -4.192   0.602  0.00  0.00    +0.034 A 
ATOM      5  C   UNL     1      -5.090  -3.120   1.470  0.00  0.00    +0.026 A 
ATOM      6  C   UNL     1      -3.991  -2.276   1.581  0.00  0.00    +0.039 A 
ENDROOT
BRANCH   1   9
ATOM      7  N   UNL     1      -1.081  -1.165  -0.214  0.00  0.00    -0.298 N 
ATOM      8  C   UNL     1      -1.656  -1.461  -1.529  0.00  0.00    +0.132 C 
ATOM      9  C   UNL     1      -1.681  -1.622   0.902  0.00  0.00    +0.248 C 
ATOM     10  O   UNL     1      -1.259  -1.298   1.996  0.00  0.00    -0.270 OA
BRANCH   7  12
ATOM     11  C   UNL     1      -0.119   1.048  -0.613  0.00  0.00    +0.028 C 
ATOM     12  C   UNL     1       0.148  -0.373  -0.114  0.00  0.00    +0.073 C 
BRANCH  12  13
ATOM     13  C   UNL     1       1.241  -1.017  -0.968  0.00  0.00    +0.025 C 
BRANCH  13  14
ATOM     14  C   UNL     1       1.540  -2.422  -0.441  0.00  0.00    -0.015 C 
ATOM     15  C   UNL     1       2.522  -3.122  -1.383  0.00  0.00    +0.007 C 
ATOM     16  C   UNL     1       2.155  -2.323   0.956  0.00  0.00    +0.007 C 
ENDBRANCH  13  14
ENDBRANCH  12  13
ENDBRANCH   7  12
ENDBRANCH   1   9
BRANCH   6  17
ATOM     17  N   UNL     1      -4.024  -1.200   2.459  0.00  0.00    -0.346 N 
ATOM     18  C   UNL     1      -5.168  -1.023   3.358  0.00  0.00    +0.125 C 
ATOM     19  H   UNL     1      -3.290  -0.567   2.478  0.00  0.00    +0.146 HD
ENDBRANCH   6  17
BRANCH   3  20
ATOM     20  N   UNL     1      -3.900  -5.585  -1.097  0.00  0.00    +0.056 N 
ATOM     21  O   UNL     1      -2.919  -5.797  -1.770  0.00  0.00    -0.126 OA
ATOM     22  O   UNL     1      -4.860  -6.315  -1.181  0.00  0.00    -0.126 OA
ENDBRANCH   3  20
TORSDOF 6
