REMARK  Name = ZINC39671609
REMARK  4 active torsions:
REMARK  status: ('A' for Active; 'I' for Inactive)
REMARK    1  A    between atoms: C_6  and  C_11
REMARK    2  A    between atoms: C_11  and  N_12
REMARK    3  A    between atoms: C_13  and  C_15
REMARK    4  A    between atoms: C_26  and  C_28
REMARK                            x       y       z     vdW  Elec       q    Type
REMARK                         _______ _______ _______ _____ _____    ______ ____
ROOT
ATOM      1  C   UNL     1      -8.318   0.159   3.116  0.00  0.00    +0.100 C 
ATOM      2  C   UNL     1      -7.817   1.334   3.985  0.00  0.00    +0.121 C 
ATOM      3  N   UNL     1      -8.933   2.309   3.975  0.00  0.00    -0.300 N 
ATOM      4  C   UNL     1     -10.154   1.474   4.062  0.00  0.00    +0.115 C 
ATOM      5  C   UNL     1      -9.852   0.252   3.172  0.00  0.00    -0.004 C 
ATOM      6  C   UNL     1     -10.436  -1.012   3.794  0.00  0.00    -0.010 C 
ATOM      7  C   UNL     1     -11.965  -0.921   3.786  0.00  0.00    -0.082 C 
ATOM      8  N   UNL     1     -12.440  -0.767   2.405  0.00  0.00    +0.379 N 
ATOM      9  C   UNL     1     -11.949   0.498   1.846  0.00  0.00    -0.082 C 
ATOM     10  C   UNL     1     -10.420   0.467   1.772  0.00  0.00    -0.010 C 
ATOM     11  C   UNL     1      -8.854   3.653   3.903  0.00  0.00    +0.219 C 
ATOM     12  O   UNL     1      -9.867   4.321   3.905  0.00  0.00    -0.275 OA
ATOM     13  H   UNL     1     -12.100  -1.535   1.846  0.00  0.00    -0.086 HD
ATOM     14  H   UNL     1     -13.449  -0.769   2.396  0.00  0.00    -0.086 HD
ENDROOT
BRANCH  11  15
ATOM     15  C   UNL     1      -7.508   4.326   3.820  0.00  0.00    +0.079 C 
ATOM     16  C   UNL     1      -6.686   3.983   5.066  0.00  0.00    +0.041 C 
ATOM     17  C   UNL     1      -5.353   4.733   5.010  0.00  0.00    +0.160 C 
ATOM     18  O   UNL     1      -5.601   6.137   4.914  0.00  0.00    -0.380 OA
ATOM     19  C   UNL     1      -6.326   6.522   3.744  0.00  0.00    +0.160 C 
ATOM     20  C   UNL     1      -7.698   5.844   3.748  0.00  0.00    +0.041 C 
ENDBRANCH  11  15
BRANCH   1  22
ATOM     21  N   UNL     1      -7.641  -0.777   0.928  0.00  0.00    -0.309 N 
ATOM     22  C   UNL     1      -7.835   0.313   1.697  0.00  0.00    +0.219 C 
ATOM     23  O   UNL     1      -7.619   1.418   1.246  0.00  0.00    -0.275 OA
ATOM     24  H   UNL     1      -7.814  -1.661   1.289  0.00  0.00    +0.149 HD
BRANCH  21  25
ATOM     25  C   UNL     1      -7.171  -0.627  -0.451  0.00  0.00    +0.157 C 
BRANCH  25  31
ATOM     26  C   UNL     1      -6.083  -6.104  -2.871  0.00  0.00    +0.001 A 
ATOM     27  C   UNL     1      -7.433  -6.041  -3.187  0.00  0.00    +0.002 A 
ATOM     28  C   UNL     1      -8.186  -4.940  -2.839  0.00  0.00    +0.026 A 
ATOM     29  C   UNL     1      -7.589  -3.881  -2.163  0.00  0.00    +0.047 A 
ATOM     30  N   UNL     1      -8.056  -2.676  -1.689  0.00  0.00    -0.357 N 
ATOM     31  C   UNL     1      -7.038  -1.987  -1.087  0.00  0.00    +0.034 A 
ATOM     32  H   UNL     1      -8.970  -2.361  -1.770  0.00  0.00    +0.166 HD
ATOM     33  C   UNL     1      -5.904  -2.702  -1.147  0.00  0.00    +0.032 A 
ATOM     34  C   UNL     1      -6.221  -3.951  -1.844  0.00  0.00    -0.000 A 
ATOM     35  C   UNL     1      -5.478  -5.077  -2.202  0.00  0.00    +0.010 A 
ENDBRANCH  25  31
ENDBRANCH  21  25
ENDBRANCH   1  22
TORSDOF 4
