REMARK  Name = ZINC48388263
REMARK  4 active torsions:
REMARK  status: ('A' for Active; 'I' for Inactive)
REMARK    1  A    between atoms: C_1  and  C_2
REMARK    2  A    between atoms: N_10  and  C_11
REMARK    3  A    between atoms: C_11  and  C_13
REMARK    4  A    between atoms: C_11  and  C_14
REMARK                            x       y       z     vdW  Elec       q    Type
REMARK                         _______ _______ _______ _____ _____    ______ ____
ROOT
ATOM      1  C   UNL     1      -0.583   1.853   1.125  0.00  0.00    +0.089 C 
ATOM      2  C   UNL     1      -0.438   0.354   1.073  0.00  0.00    +0.136 A 
ATOM      3  C   UNL     1      -1.428  -0.527   0.846  0.00  0.00    +0.091 A 
ATOM      4  C   UNL     1      -0.875  -1.827   0.879  0.00  0.00    +0.169 A 
ATOM      5  N   UNL     1       0.406  -1.713   1.119  0.00  0.00    -0.063 NA
ATOM      6  O   UNL     1       0.703  -0.333   1.241  0.00  0.00    -0.358 OA
ATOM      7  N   UNL     1      -1.572  -3.021   0.689  0.00  0.00    -0.252 N 
ATOM      8  C   UNL     1      -2.898  -2.996   0.449  0.00  0.00    +0.305 C 
ATOM      9  O   UNL     1      -3.487  -1.934   0.397  0.00  0.00    -0.252 OA
ATOM     10  N   UNL     1      -3.571  -4.149   0.266  0.00  0.00    -0.293 N 
ATOM     11  H   UNL     1      -1.102  -3.868   0.730  0.00  0.00    +0.158 HD
ATOM     12  H   UNL     1      -3.101  -4.997   0.307  0.00  0.00    +0.151 HD
ENDROOT
BRANCH  10  13
ATOM     13  C   UNL     1      -5.012  -4.123   0.004  0.00  0.00    +0.103 C 
ATOM     14  C   UNL     1      -5.255  -3.971  -1.499  0.00  0.00    +0.033 C 
BRANCH  13  15
ATOM     15  C   UNL     1      -5.634  -5.408   0.486  0.00  0.00    -0.009 A 
ATOM     16  C   UNL     1      -4.877  -6.564   0.539  0.00  0.00    +0.008 A 
ATOM     17  C   UNL     1      -5.447  -7.744   0.980  0.00  0.00    +0.020 A 
ATOM     18  C   UNL     1      -6.774  -7.768   1.371  0.00  0.00    +0.042 A 
ATOM     19  C   UNL     1      -7.531  -6.611   1.318  0.00  0.00    +0.040 A 
ATOM     20  C   UNL     1      -6.959  -5.430   0.881  0.00  0.00    +0.047 A 
ATOM     21 CL   UNL     1      -7.907  -3.977   0.821  0.00  0.00    -0.083 Cl
ATOM     22 CL   UNL     1      -7.489  -9.249   1.925  0.00  0.00    -0.083 Cl
ENDBRANCH  13  15
ENDBRANCH  10  13
TORSDOF 2
