REMARK  Name = ZINC21332064
REMARK  7 active torsions:
REMARK  status: ('A' for Active; 'I' for Inactive)
REMARK    1  A    between atoms: C_1  and  C_2
REMARK    2  A    between atoms: C_8  and  N_10
REMARK    3  A    between atoms: C_14  and  C_16
REMARK    4  A    between atoms: C_16  and  O_17
REMARK    5  A    between atoms: O_17  and  C_18
REMARK    6  A    between atoms: C_18  and  C_20
REMARK    7  A    between atoms: C_22  and  N_28
REMARK                            x       y       z     vdW  Elec       q    Type
REMARK                         _______ _______ _______ _____ _____    ______ ____
ROOT
ATOM      1  C   UNL     1       0.976  -6.149  -3.615  0.00  0.00    +0.328 C 
ENDROOT
BRANCH   1   6
ATOM      2  N   UNL     1       0.738  -1.962  -1.265  0.00  0.00    -0.296 N 
ATOM      3  C   UNL     1       0.838  -2.628  -2.432  0.00  0.00    +0.306 C 
ATOM      4  O   UNL     1       0.911  -2.014  -3.478  0.00  0.00    -0.252 OA
ATOM      5  N   UNL     1       0.856  -3.976  -2.440  0.00  0.00    -0.237 N 
ATOM      6  C   UNL     1       0.956  -4.642  -3.607  0.00  0.00    +0.258 C 
ATOM      7  O   UNL     1       1.029  -4.029  -4.650  0.00  0.00    -0.272 OA
ATOM      8  H   UNL     1       0.672  -2.518  -0.318  0.00  0.00    +0.151 HD
ATOM      9  H   UNL     1       0.790  -4.532  -1.493  0.00  0.00    +0.159 HD
BRANCH   2  16
ATOM     10  C   UNL     1      -1.433  -0.534   0.013  0.00  0.00    +0.009 C 
ATOM     11  C   UNL     1       0.002  -0.004   0.002  0.00  0.00    +0.006 C 
ATOM     12  C   UNL     1      -0.019   1.526   0.010  0.00  0.00    +0.005 C 
ATOM     13  C   UNL     1       1.417   2.055  -0.000  0.00  0.00    +0.000 C 
ATOM     14  C   UNL     1       2.133   1.562  -1.259  0.00  0.00    +0.002 C 
ATOM     15  C   UNL     1       2.154   0.032  -1.268  0.00  0.00    +0.022 C 
ATOM     16  C   UNL     1       0.718  -0.497  -1.257  0.00  0.00    +0.077 C 
ENDBRANCH   2  16
ENDBRANCH   1   6
BRANCH   1  17
ATOM     17  O   UNL     1       1.089  -6.624  -4.983  0.00  0.00    -0.451 OA
BRANCH  17  18
ATOM     18  C   UNL     1       1.121  -7.958  -5.166  0.00  0.00    +0.360 C 
ATOM     19  O   UNL     1       1.056  -8.704  -4.210  0.00  0.00    -0.243 OA
BRANCH  18  20
ATOM     20  C   UNL     1       1.235  -8.515  -6.532  0.00  0.00    +0.169 A 
ATOM     21  C   UNL     1       1.267  -9.895  -6.714  0.00  0.00    +0.095 A 
ATOM     22  C   UNL     1       1.375 -10.403  -8.009  0.00  0.00    +0.067 A 
ATOM     23  C   UNL     1       1.446  -9.502  -9.070  0.00  0.00    +0.100 A 
ATOM     24  C   UNL     1       1.407  -8.142  -8.807  0.00  0.00    +0.150 A 
ATOM     25  N   UNL     1       1.300  -7.692  -7.575  0.00  0.00    -0.226 NA
ATOM     26 CL   UNL     1       1.494  -7.014 -10.124  0.00  0.00    -0.060 Cl
ATOM     27 CL   UNL     1       1.580 -10.078 -10.702  0.00  0.00    -0.078 Cl
ATOM     28 CL   UNL     1       1.175 -10.966  -5.351  0.00  0.00    -0.079 Cl
BRANCH  22  29
ATOM     29  N   UNL     1       1.410 -11.778  -8.236  0.00  0.00    -0.356 N 
ATOM     30  H   UNL     1       1.495 -12.164  -9.262  0.00  0.00    +0.142 HD
ATOM     31  H   UNL     1       1.353 -12.476  -7.388  0.00  0.00    +0.142 HD
ENDBRANCH  22  29
ENDBRANCH  18  20
ENDBRANCH  17  18
ENDBRANCH   1  17
TORSDOF 6
