REMARK  Name = ZINC16948611
REMARK  7 active torsions:
REMARK  status: ('A' for Active; 'I' for Inactive)
REMARK    1  A    between atoms: C_1  and  N_2
REMARK    2  A    between atoms: C_3  and  C_18
REMARK    3  A    between atoms: N_7  and  N_8
REMARK    4  A    between atoms: C_9  and  C_10
REMARK    5  A    between atoms: C_14  and  O_16
REMARK    6  A    between atoms: O_16  and  C_17
REMARK    7  A    between atoms: C_22  and  O_24
REMARK                            x       y       z     vdW  Elec       q    Type
REMARK                         _______ _______ _______ _____ _____    ______ ____
ROOT
ATOM      1  C   UNL     1      -4.935  -0.239  -0.211  0.00  0.00    +0.151 C 
ATOM      2  N   UNL     1      -4.700   1.201  -0.082  0.00  0.00    -0.321 N 
ATOM      3  C   UNL     1      -5.720   2.046   0.253  0.00  0.00    +0.058 A 
ATOM      4  C   UNL     1      -5.481   3.370   0.366  0.00  0.00    +0.075 A 
ATOM      5  S   UNL     1      -3.737   3.466  -0.004  0.00  0.00    -0.056 S 
ATOM      6  C   UNL     1      -3.450   1.728  -0.295  0.00  0.00    +0.195 A 
ATOM      7  N   UNL     1      -2.325   1.109  -0.625  0.00  0.00    -0.124 NA
ENDROOT
BRANCH   3   8
ATOM      8  C   UNL     1      -7.079   1.513   0.490  0.00  0.00    +0.002 A 
ATOM      9  C   UNL     1      -7.251   0.323   1.200  0.00  0.00    +0.010 A 
ATOM     10  C   UNL     1      -8.520  -0.171   1.420  0.00  0.00    +0.004 A 
ATOM     11  C   UNL     1      -9.624   0.509   0.940  0.00  0.00    +0.045 A 
ATOM     12  C   UNL     1      -9.463   1.693   0.233  0.00  0.00    +0.117 A 
ATOM     13  C   UNL     1      -8.194   2.200   0.011  0.00  0.00    +0.055 A 
BRANCH  12  14
ATOM     14  O   UNL     1     -10.552   2.357  -0.237  0.00  0.00    -0.507 OA
ATOM     15  H   UNL     1     -10.914   3.006   0.382  0.00  0.00    +0.292 HD
ENDBRANCH  12  14
ENDBRANCH   3   8
BRANCH   7  16
ATOM     16  N   UNL     1      -1.239   1.786  -0.783  0.00  0.00    -0.155 NA
ATOM     17  C   UNL     1      -0.130   1.175  -1.108  0.00  0.00    +0.143 C 
BRANCH  17  18
ATOM     18  C   UNL     1       1.108   1.947  -1.294  0.00  0.00    -0.002 A 
ATOM     19  C   UNL     1       1.102   3.336  -1.123  0.00  0.00    +0.010 A 
ATOM     20  C   UNL     1       2.266   4.055  -1.293  0.00  0.00    +0.004 A 
ATOM     21  C   UNL     1       3.439   3.409  -1.642  0.00  0.00    +0.045 A 
ATOM     22  C   UNL     1       3.455   2.032  -1.820  0.00  0.00    +0.121 A 
ATOM     23  C   UNL     1       2.295   1.298  -1.647  0.00  0.00    +0.055 A 
BRANCH  22  24
ATOM     24  O   UNL     1       4.611   1.405  -2.163  0.00  0.00    -0.495 OA
ATOM     25  C   UNL     1       5.770   2.225  -2.325  0.00  0.00    +0.277 C 
ENDBRANCH  22  24
ENDBRANCH  17  18
ENDBRANCH   7  16
TORSDOF 5
