REMARK  Name = ZINC00231391
REMARK  4 active torsions:
REMARK  status: ('A' for Active; 'I' for Inactive)
REMARK    1  A    between atoms: C_4  and  O_20
REMARK    2  A    between atoms: C_5  and  N_7
REMARK    3  A    between atoms: C_8  and  C_10
REMARK    4  A    between atoms: C_13  and  N_17
REMARK                            x       y       z     vdW  Elec       q    Type
REMARK                         _______ _______ _______ _____ _____    ______ ____
ROOT
ATOM      1  N   UNL     1       2.502  -0.272  -0.023  0.00  0.00    -0.279 N 
ATOM      2  C   UNL     1       2.479   1.076  -0.008  0.00  0.00    +0.250 C 
ATOM      3  O   UNL     1       3.521   1.701  -0.018  0.00  0.00    -0.270 OA
ATOM      4  H   UNL     1       1.674  -0.772   0.050  0.00  0.00    +0.155 HD
ENDROOT
BRANCH   2   5
ATOM      5  C   UNL     1       1.187   1.792   0.020  0.00  0.00    +0.055 A 
ATOM      6  C   UNL     1      -0.012   1.077   0.031  0.00  0.00    +0.017 A 
ATOM      7  C   UNL     1      -1.214   1.752   0.051  0.00  0.00    +0.033 A 
ATOM      8  C   UNL     1      -1.235   3.136   0.071  0.00  0.00    +0.128 A 
ATOM      9  C   UNL     1      -0.052   3.852   0.060  0.00  0.00    +0.053 A 
ATOM     10  C   UNL     1       1.160   3.189   0.035  0.00  0.00    +0.055 A 
ATOM     11 CL   UNL     1       2.644   4.089   0.021  0.00  0.00    -0.083 Cl
BRANCH   8  12
ATOM     12  N   UNL     1      -2.529   3.853   0.098  0.00  0.00    +0.056 N 
ATOM     13  O   UNL     1      -2.551   5.070   0.111  0.00  0.00    -0.126 OA
ATOM     14  O   UNL     1      -3.573   3.225   0.107  0.00  0.00    -0.126 OA
ENDBRANCH   8  12
ENDBRANCH   2   5
BRANCH   1  19
ATOM     15  C   UNL     1       6.069  -1.103   0.322  0.00  0.00    +0.002 A 
ATOM     16  C   UNL     1       6.133  -2.291  -0.384  0.00  0.00    +0.004 A 
ATOM     17  C   UNL     1       4.996  -2.813  -0.971  0.00  0.00    +0.047 A 
ATOM     18  C   UNL     1       3.787  -2.147  -0.855  0.00  0.00    +0.138 A 
ATOM     19  C   UNL     1       3.721  -0.950  -0.144  0.00  0.00    +0.076 A 
ATOM     20  C   UNL     1       4.868  -0.430   0.438  0.00  0.00    +0.027 A 
BRANCH  18  21
ATOM     21  O   UNL     1       2.668  -2.659  -1.432  0.00  0.00    -0.505 OA
ATOM     22  H   UNL     1       2.521  -2.358  -2.340  0.00  0.00    +0.292 HD
ENDBRANCH  18  21
ENDBRANCH   1  19
TORSDOF 4
