REMARK  Name = ZINC63373933
REMARK  4 active torsions:
REMARK  status: ('A' for Active; 'I' for Inactive)
REMARK    1  A    between atoms: C_1  and  O_2
REMARK    2  A    between atoms: O_2  and  C_3
REMARK    3  A    between atoms: C_6  and  N_9
REMARK    4  A    between atoms: C_12  and  C_19
REMARK                            x       y       z     vdW  Elec       q    Type
REMARK                         _______ _______ _______ _____ _____    ______ ____
ROOT
ATOM      1  N   UNL     1       2.458  -2.458  -4.303  0.00  0.00    -0.229 N 
ATOM      2  C   UNL     1       2.588  -3.800  -4.324  0.00  0.00    +0.270 A 
ATOM      3  O   UNL     1       2.167  -4.471  -3.398  0.00  0.00    -0.267 OA
ATOM      4  C   UNL     1       3.212  -4.419  -5.421  0.00  0.00    +0.101 A 
ATOM      5  C   UNL     1       3.674  -3.645  -6.444  0.00  0.00    +0.263 A 
ATOM      6  N   UNL     1       3.521  -2.283  -6.383  0.00  0.00    -0.274 N 
ATOM      7  H   UNL     1       3.848  -1.729  -7.109  0.00  0.00    +0.173 HD
ATOM      8  C   UNL     1       2.916  -1.712  -5.325  0.00  0.00    +0.337 A 
ATOM      9  O   UNL     1       2.785  -0.504  -5.290  0.00  0.00    -0.246 OA
ATOM     10  O   UNL     1       4.277  -4.215  -7.509  0.00  0.00    -0.267 OA
ENDROOT
BRANCH   4  11
ATOM     11  C   UNL     1       3.369  -5.917  -5.465  0.00  0.00    +0.121 C 
ATOM     12  C   UNL     1       4.291  -6.373  -4.332  0.00  0.00    +0.128 C 
ATOM     13  C   UNL     1       4.258  -7.897  -4.343  0.00  0.00    -0.035 C 
ATOM     14  C   UNL     1       5.519  -8.299  -4.420  0.00  0.00    -0.001 A 
ATOM     15  C   UNL     1       6.126  -9.639  -4.383  0.00  0.00    +0.010 A 
ATOM     16  C   UNL     1       7.479  -9.688  -4.506  0.00  0.00    +0.001 A 
ATOM     17  C   UNL     1       8.279  -8.552  -4.660  0.00  0.00    +0.002 A 
ATOM     18  C   UNL     1       7.807  -7.280  -4.699  0.00  0.00    +0.026 A 
ATOM     19  C   UNL     1       6.399  -7.099  -4.574  0.00  0.00    +0.043 A 
ATOM     20  N   UNL     1       5.685  -5.990  -4.553  0.00  0.00    -0.376 N 
ATOM     21  C   UNL     1       2.956  -8.661  -4.361  0.00  0.00    +0.048 C 
ATOM     22  C   UNL     1       2.094  -8.013  -5.460  0.00  0.00    +0.086 C 
ATOM     23  N   UNL     1       2.057  -6.559  -5.282  0.00  0.00    -0.307 NA
ATOM     24  H   UNL     1       1.657  -6.314  -4.388  0.00  0.00    +0.123 HD
ATOM     25  H   UNL     1       6.014  -5.085  -4.666  0.00  0.00    +0.160 HD
ENDBRANCH   4  11
BRANCH   1  29
ATOM     26  C   UNL     1       0.607  -0.609  -1.055  0.00  0.00    +0.120 A 
ATOM     27  C   UNL     1      -0.149  -1.013  -2.146  0.00  0.00    +0.047 A 
ATOM     28  C   UNL     1       0.463  -1.625  -3.221  0.00  0.00    +0.030 A 
ATOM     29  C   UNL     1       1.835  -1.836  -3.211  0.00  0.00    +0.055 A 
ATOM     30  C   UNL     1       2.591  -1.431  -2.119  0.00  0.00    +0.030 A 
ATOM     31  C   UNL     1       1.979  -0.814  -1.047  0.00  0.00    +0.047 A 
BRANCH  26  33
ATOM     32  C   UNL     1      -1.412   0.173  -0.072  0.00  0.00    +0.277 C 
ATOM     33  O   UNL     1       0.004  -0.006   0.004  0.00  0.00    -0.495 OA
ENDBRANCH  26  33
ENDBRANCH   1  29
TORSDOF 3
