REMARK  Name = ZINC39631641
REMARK  12 active torsions:
REMARK  status: ('A' for Active; 'I' for Inactive)
REMARK    1  A    between atoms: C_1  and  C_2
REMARK    2  A    between atoms: C_6  and  C_9
REMARK    3  A    between atoms: C_13  and  C_22
REMARK    4  A    between atoms: N_24  and  C_25
REMARK    5  A    between atoms: C_25  and  C_27
REMARK    6  A    between atoms: C_25  and  C_28
REMARK    7  A    between atoms: C_28  and  C_29
REMARK    8  A    between atoms: C_29  and  C_30
REMARK    9  A    between atoms: C_30  and  C_31
REMARK   10  A    between atoms: C_31  and  C_32
REMARK   11  A    between atoms: C_31  and  C_33
REMARK   12  A    between atoms: C_31  and  O_34
REMARK                            x       y       z     vdW  Elec       q    Type
REMARK                         _______ _______ _______ _____ _____    ______ ____
ROOT
ATOM      1  C   UNL     1       0.774  -3.746   1.061  0.00  0.00    +0.252 C 
ATOM      2  O   UNL     1       1.797  -4.232   1.502  0.00  0.00    -0.270 OA
ATOM      3  N   UNL     1      -0.343  -3.728   1.815  0.00  0.00    -0.296 N 
ATOM      4  C   UNL     1      -1.699  -3.281   1.418  0.00  0.00    +0.121 C 
ATOM      5  C   UNL     1      -2.655  -4.293   2.088  0.00  0.00    +0.100 C 
ATOM      6  C   UNL     1      -1.859  -4.858   3.276  0.00  0.00    -0.004 C 
ATOM      7  C   UNL     1      -0.494  -4.155   3.226  0.00  0.00    +0.115 C 
ATOM      8  C   UNL     1      -1.675  -6.365   3.120  0.00  0.00    -0.010 C 
ATOM      9  C   UNL     1      -0.930  -6.912   4.341  0.00  0.00    -0.082 C 
ATOM     10  N   UNL     1      -1.696  -6.615   5.558  0.00  0.00    +0.379 N 
ATOM     11  C   UNL     1      -1.789  -5.162   5.749  0.00  0.00    -0.082 C 
ATOM     12  C   UNL     1      -2.570  -4.541   4.588  0.00  0.00    -0.010 C 
ATOM     13  H   UNL     1      -2.624  -7.001   5.472  0.00  0.00    -0.086 HD
ATOM     14  H   UNL     1      -1.235  -7.029   6.354  0.00  0.00    -0.086 HD
ENDROOT
BRANCH   1  20
ATOM     15  C   UNL     1       1.140   0.200  -1.976  0.00  0.00    +0.047 C 
ATOM     16  C   UNL     1       0.931  -1.278  -1.768  0.00  0.00    -0.014 A 
ATOM     17  C   UNL     1       0.720  -2.105  -2.857  0.00  0.00    +0.009 A 
ATOM     18  C   UNL     1       0.528  -3.462  -2.678  0.00  0.00    +0.039 A 
ATOM     19  C   UNL     1       0.543  -4.005  -1.407  0.00  0.00    +0.138 A 
ATOM     20  C   UNL     1       0.756  -3.176  -0.300  0.00  0.00    +0.107 A 
ATOM     21  C   UNL     1       0.956  -1.804  -0.491  0.00  0.00    +0.141 A 
ATOM     22  F   UNL     1       1.168  -0.996   0.571  0.00  0.00    -0.204 F 
ATOM     23  F   UNL     1       0.354  -5.331  -1.234  0.00  0.00    -0.205 F 
ENDBRANCH   1  20
BRANCH   5  24
ATOM     24  C   UNL     1      -3.014  -5.394   1.123  0.00  0.00    +0.218 C 
ATOM     25  O   UNL     1      -2.208  -5.761   0.294  0.00  0.00    -0.275 OA
ATOM     26  N   UNL     1      -4.231  -5.971   1.181  0.00  0.00    -0.312 N 
ATOM     27  H   UNL     1      -4.849  -5.729   1.888  0.00  0.00    +0.149 HD
BRANCH  26  28
ATOM     28  C   UNL     1      -4.619  -6.964   0.176  0.00  0.00    +0.070 C 
ATOM     29  C   UNL     1      -4.157  -8.352   0.625  0.00  0.00    +0.028 C 
BRANCH  28  30
ATOM     30  C   UNL     1      -6.141  -6.960   0.017  0.00  0.00    +0.022 C 
BRANCH  30  31
ATOM     31  C   UNL     1      -6.589  -5.620  -0.571  0.00  0.00    +0.005 C 
BRANCH  31  32
ATOM     32  C   UNL     1      -8.117  -5.570  -0.620  0.00  0.00    +0.034 C 
BRANCH  32  33
ATOM     33  C   UNL     1      -8.563  -4.290  -1.330  0.00  0.00    +0.061 C 
ATOM     34  C   UNL     1     -10.091  -4.247  -1.392  0.00  0.00    +0.041 C 
ATOM     35  C   UNL     1      -8.049  -3.073  -0.558  0.00  0.00    +0.041 C 
BRANCH  33  36
ATOM     36  O   UNL     1      -8.031  -4.271  -2.657  0.00  0.00    -0.389 OA
ATOM     37  H   UNL     1      -8.316  -5.015  -3.205  0.00  0.00    +0.210 HD
ENDBRANCH  33  36
ENDBRANCH  32  33
ENDBRANCH  31  32
ENDBRANCH  30  31
ENDBRANCH  28  30
ENDBRANCH  26  28
ENDBRANCH   5  24
TORSDOF 8
