REMARK  Name = ZINC11694855
REMARK  4 active torsions:
REMARK  status: ('A' for Active; 'I' for Inactive)
REMARK    1  A    between atoms: C_1  and  C_2
REMARK    2  A    between atoms: C_4  and  C_21
REMARK    3  A    between atoms: C_6  and  C_14
REMARK    4  A    between atoms: N_23  and  C_24
REMARK                            x       y       z     vdW  Elec       q    Type
REMARK                         _______ _______ _______ _____ _____    ______ ____
ROOT
ATOM      1  C   UNL     1      -0.313   0.249  -0.073  0.00  0.00    +0.028 C 
ATOM      2  C   UNL     1       0.076   1.013   1.194  0.00  0.00    +0.084 C 
ATOM      3  C   UNL     1      -1.043   1.987   1.577  0.00  0.00    +0.124 C 
ATOM      4  C   UNL     1      -0.677   2.712   2.878  0.00  0.00    +0.157 C 
ATOM      5  N   UNL     1       0.684   3.233   2.761  0.00  0.00    -0.225 N 
ATOM      6  C   UNL     1       1.595   2.794   1.858  0.00  0.00    +0.214 A 
ATOM      7  N   UNL     1       2.695   3.475   2.030  0.00  0.00    -0.202 NA
ATOM      8  C   UNL     1       2.527   4.350   3.027  0.00  0.00    +0.247 A 
ATOM      9  N   UNL     1       1.312   4.234   3.502  0.00  0.00    -0.156 NA
ATOM     10  N   UNL     1       1.309   1.785   0.947  0.00  0.00    -0.310 N 
ATOM     11  H   UNL     1       1.888   1.599   0.192  0.00  0.00    +0.149 HD
ENDROOT
BRANCH   4  12
ATOM     12  C   UNL     1      -1.635   3.852   3.112  0.00  0.00    +0.013 A 
ATOM     13  C   UNL     1      -1.746   4.864   2.178  0.00  0.00    +0.008 A 
ATOM     14  C   UNL     1      -2.625   5.910   2.392  0.00  0.00    +0.001 A 
ATOM     15  C   UNL     1      -3.395   5.943   3.540  0.00  0.00    +0.003 A 
ATOM     16  C   UNL     1      -3.285   4.932   4.475  0.00  0.00    +0.039 A 
ATOM     17  C   UNL     1      -2.409   3.881   4.259  0.00  0.00    +0.129 A 
ATOM     18  F   UNL     1      -2.306   2.889   5.170  0.00  0.00    -0.205 F 
ENDBRANCH   4  12
BRANCH   3  19
ATOM     19  C   UNL     1      -2.327   1.223   1.773  0.00  0.00    +0.224 C 
ATOM     20  O   UNL     1      -2.687   0.918   2.890  0.00  0.00    -0.275 OA
ATOM     21  N   UNL     1      -3.076   0.879   0.706  0.00  0.00    -0.285 N 
ATOM     22  H   UNL     1      -2.755   1.060  -0.191  0.00  0.00    +0.155 HD
BRANCH  21  23
ATOM     23  C   UNL     1      -4.318   0.261   0.893  0.00  0.00    +0.033 A 
ATOM     24  C   UNL     1      -4.504  -0.621   1.950  0.00  0.00    +0.025 A 
ATOM     25  C   UNL     1      -5.732  -1.226   2.135  0.00  0.00    +0.022 A 
ATOM     26  C   UNL     1      -6.773  -0.961   1.262  0.00  0.00    +0.041 A 
ATOM     27  C   UNL     1      -6.589  -0.087   0.206  0.00  0.00    +0.022 A 
ATOM     28  C   UNL     1      -5.365   0.524   0.019  0.00  0.00    +0.025 A 
ATOM     29 CL   UNL     1      -8.313  -1.728   1.494  0.00  0.00    -0.084 Cl
ENDBRANCH  21  23
ENDBRANCH   3  19
TORSDOF 3
