REMARK  Name = ZINC56296251
REMARK  6 active torsions:
REMARK  status: ('A' for Active; 'I' for Inactive)
REMARK    1  A    between atoms: C_1  and  C_2
REMARK    2  A    between atoms: C_10  and  C_11
REMARK    3  A    between atoms: C_11  and  C_13
REMARK    4  A    between atoms: C_11  and  N_14
REMARK    5  A    between atoms: C_15  and  C_17
REMARK    6  A    between atoms: C_17  and  N_18
REMARK                            x       y       z     vdW  Elec       q    Type
REMARK                         _______ _______ _______ _____ _____    ______ ____
ROOT
ATOM      1  C   UNL     1       0.030  -0.352   2.503  0.00  0.00    +0.136 C 
ATOM      2  C   UNL     1       1.432  -0.532   3.090  0.00  0.00    +0.036 C 
ENDROOT
BRANCH   1  12
ATOM      3  C   UNL     1      -0.018   1.503   0.010  0.00  0.00    +0.048 C 
ATOM      4  C   UNL     1       0.002  -0.004   0.002  0.00  0.00    +0.000 A 
ATOM      5  C   UNL     1       0.009  -0.879  -1.177  0.00  0.00    +0.023 A 
ATOM      6  C   UNL     1       0.000  -0.660  -2.553  0.00  0.00    +0.012 A 
ATOM      7  C   UNL     1       0.011  -1.726  -3.409  0.00  0.00    +0.001 A 
ATOM      8  C   UNL     1       0.031  -3.023  -2.916  0.00  0.00    +0.004 A 
ATOM      9  C   UNL     1       0.040  -3.259  -1.558  0.00  0.00    +0.047 A 
ATOM     10  C   UNL     1       0.029  -2.190  -0.671  0.00  0.00    +0.136 A 
ATOM     11  O   UNL     1       0.033  -2.100   0.674  0.00  0.00    -0.458 OA
ATOM     12  C   UNL     1       0.023  -0.814   1.069  0.00  0.00    +0.129 A 
ENDBRANCH   1  12
BRANCH   1  13
ATOM     13  N   UNL     1      -0.928  -1.145   3.277  0.00  0.00    -0.304 N 
ATOM     14  C   UNL     1      -1.473  -0.636   4.399  0.00  0.00    +0.231 C 
ATOM     15  O   UNL     1      -1.170   0.478   4.769  0.00  0.00    -0.274 OA
ATOM     16  H   UNL     1      -1.171  -2.037   2.981  0.00  0.00    +0.149 HD
BRANCH  14  17
ATOM     17  C   UNL     1      -2.459  -1.452   5.195  0.00  0.00    +0.201 C 
BRANCH  17  18
ATOM     18  N   UNL     1      -2.902  -0.682   6.360  0.00  0.00    -0.291 N 
ATOM     19  C   UNL     1      -3.791  -1.215   7.222  0.00  0.00    +0.297 C 
ATOM     20  O   UNL     1      -4.226  -2.335   7.032  0.00  0.00    -0.253 OA
ATOM     21  N   UNL     1      -4.199  -0.507   8.294  0.00  0.00    -0.313 N 
ATOM     22  H   UNL     1      -2.556   0.211   6.512  0.00  0.00    +0.151 HD
ATOM     23  H   UNL     1      -3.852   0.386   8.445  0.00  0.00    +0.146 HD
ATOM     24  H   UNL     1      -4.839  -0.891   8.914  0.00  0.00    +0.146 HD
ENDBRANCH  17  18
ENDBRANCH  14  17
ENDBRANCH   1  13
TORSDOF 4
