REMARK  Name = ZINC45898279
REMARK  10 active torsions:
REMARK  status: ('A' for Active; 'I' for Inactive)
REMARK    1  A    between atoms: C_1  and  C_2
REMARK    2  A    between atoms: N_11  and  C_15
REMARK    3  A    between atoms: C_15  and  C_16
REMARK    4  A    between atoms: N_18  and  C_19
REMARK    5  A    between atoms: C_19  and  C_20
REMARK    6  A    between atoms: C_20  and  C_22
REMARK    7  A    between atoms: C_20  and  N_26
REMARK    8  A    between atoms: C_22  and  C_23
REMARK    9  A    between atoms: C_23  and  C_24
REMARK   10  A    between atoms: C_23  and  C_25
REMARK                            x       y       z     vdW  Elec       q    Type
REMARK                         _______ _______ _______ _____ _____    ______ ____
ROOT
ATOM      1  C   UNL     1       3.324   2.986   1.478  0.00  0.00    +0.231 C 
ATOM      2  O   UNL     1       2.345   3.536   1.020  0.00  0.00    -0.274 OA
ATOM      3  N   UNL     1       4.395   3.715   1.847  0.00  0.00    -0.313 N 
ATOM      4  H   UNL     1       5.178   3.275   2.214  0.00  0.00    +0.149 HD
ENDROOT
BRANCH   1   5
ATOM      5  C   UNL     1       3.342   1.487   1.633  0.00  0.00    +0.213 C 
BRANCH   5  15
ATOM      6  C   UNL     1      -0.398   2.347  -0.633  0.00  0.00    +0.010 C 
ATOM      7  C   UNL     1      -0.440   0.882  -1.069  0.00  0.00    +0.018 C 
ATOM      8  C   UNL     1      -1.886   0.381  -1.039  0.00  0.00    +0.006 C 
ATOM      9  C   UNL     1      -1.924  -1.091  -1.456  0.00  0.00    +0.000 C 
ATOM     10  C   UNL     1      -1.085  -1.921  -0.483  0.00  0.00    +0.003 C 
ATOM     11  C   UNL     1       0.364  -1.429  -0.511  0.00  0.00    +0.035 C 
ATOM     12  C   UNL     1       0.410   0.044  -0.119  0.00  0.00    +0.115 C 
ATOM     13  C   UNL     1       1.836   0.543  -0.107  0.00  0.00    +0.247 C 
ATOM     14  O   UNL     1       2.607   0.586  -1.042  0.00  0.00    -0.273 OA
ATOM     15  N   UNL     1       2.071   0.932   1.163  0.00  0.00    -0.215 N 
ATOM     16  C   UNL     1       0.997   0.747   1.942  0.00  0.00    +0.310 C 
ATOM     17  O   UNL     1       0.965   1.022   3.125  0.00  0.00    -0.252 OA
ATOM     18  N   UNL     1      -0.043   0.222   1.266  0.00  0.00    -0.285 N 
ATOM     19  H   UNL     1      -0.918   0.004   1.624  0.00  0.00    +0.151 HD
ENDBRANCH   5  15
ENDBRANCH   1   5
BRANCH   3  20
ATOM     20  C   UNL     1       4.377   5.173   1.696  0.00  0.00    +0.123 C 
BRANCH  20  21
ATOM     21  C   UNL     1       5.652   5.764   2.301  0.00  0.00    +0.074 C 
BRANCH  21  22
ATOM     22  N   UNL     1       5.769   5.344   3.704  0.00  0.00    -0.294 NA
ATOM     23  C   UNL     1       5.058   6.273   4.593  0.00  0.00    +0.113 C 
ATOM     24  C   UNL     1       5.155   5.767   6.035  0.00  0.00    +0.175 C 
ATOM     25  O   UNL     1       6.532   5.623   6.393  0.00  0.00    -0.377 OA
ATOM     26  C   UNL     1       7.255   4.724   5.547  0.00  0.00    +0.175 C 
ATOM     27  C   UNL     1       7.179   5.219   4.101  0.00  0.00    +0.113 C 
ENDBRANCH  21  22
BRANCH  21  28
ATOM     28  C   UNL     1       5.590   7.291   2.229  0.00  0.00    +0.023 C 
BRANCH  28  29
ATOM     29  C   UNL     1       6.927   7.878   2.688  0.00  0.00    -0.016 C 
ATOM     30  C   UNL     1       8.041   7.397   1.756  0.00  0.00    +0.007 C 
ATOM     31  C   UNL     1       6.853   9.405   2.650  0.00  0.00    +0.007 C 
ENDBRANCH  28  29
ENDBRANCH  21  28
ENDBRANCH  20  21
ENDBRANCH   3  20
TORSDOF 7
