REMARK  Name = ZINC14245955
REMARK  5 active torsions:
REMARK  status: ('A' for Active; 'I' for Inactive)
REMARK    1  A    between atoms: C_1  and  C_2
REMARK    2  A    between atoms: C_4  and  C_30
REMARK    3  A    between atoms: C_6  and  S_9
REMARK    4  A    between atoms: C_7  and  C_8
REMARK    5  A    between atoms: S_9  and  N_12
REMARK                            x       y       z     vdW  Elec       q    Type
REMARK                         _______ _______ _______ _____ _____    ______ ____
ROOT
ATOM      1  N   UNL     1      -5.957   1.602   1.682  0.00  0.00    -0.171 NA
ATOM      2  C   UNL     1      -5.633   0.888   2.926  0.00  0.00    +0.145 C 
ATOM      3  C   UNL     1      -6.922   0.450   3.569  0.00  0.00    -0.024 A 
ATOM      4  C   UNL     1      -6.884  -0.613   4.457  0.00  0.00    +0.054 A 
ATOM      5  C   UNL     1      -8.043  -1.056   5.071  0.00  0.00    +0.162 A 
ATOM      6  C   UNL     1      -9.250  -0.427   4.786  0.00  0.00    +0.162 A 
ATOM      7  C   UNL     1      -9.279   0.634   3.901  0.00  0.00    +0.054 A 
ATOM      8  C   UNL     1      -8.113   1.081   3.284  0.00  0.00    -0.032 A 
ATOM      9  C   UNL     1      -8.233   2.237   2.336  0.00  0.00    +0.011 C 
ATOM     10  C   UNL     1      -6.908   2.715   1.771  0.00  0.00    +0.121 C 
ATOM     11  C   UNL     1      -9.182   1.849   1.176  0.00  0.00    +0.013 C 
ATOM     12  C   UNL     1      -9.716   3.221   0.696  0.00  0.00    +0.001 C 
ATOM     13  C   UNL     1      -9.896   4.033   1.996  0.00  0.00    +0.001 C 
ATOM     14  C   UNL     1      -8.952   3.407   3.039  0.00  0.00    +0.013 C 
ATOM     15  O   UNL     1     -10.407  -0.847   5.369  0.00  0.00    -0.485 OA
ATOM     16  C   UNL     1     -10.279  -1.668   6.535  0.00  0.00    +0.270 C 
ATOM     17  C   UNL     1      -9.226  -2.748   6.250  0.00  0.00    +0.270 C 
ATOM     18  O   UNL     1      -7.988  -2.096   5.946  0.00  0.00    -0.485 OA
ENDROOT
BRANCH   1  19
ATOM     19  S   UNL     1      -5.280   1.163   0.236  0.00  0.00    +0.061 S 
ATOM     20  O   UNL     1      -6.236   1.469  -0.770  0.00  0.00    -0.153 OA
ATOM     21  O   UNL     1      -4.755  -0.146   0.415  0.00  0.00    -0.153 OA
BRANCH  19  27
ATOM     22  C   UNL     1      -0.563   2.979   1.566  0.00  0.00    +0.044 C 
ATOM     23  C   UNL     1      -1.735   3.023   0.619  0.00  0.00    -0.045 A 
ATOM     24  C   UNL     1      -1.722   3.891  -0.453  0.00  0.00    +0.018 A 
ATOM     25  C   UNL     1      -2.808   3.930  -1.329  0.00  0.00    +0.065 A 
ATOM     26  C   UNL     1      -3.904   3.092  -1.110  0.00  0.00    +0.044 A 
ATOM     27  C   UNL     1      -3.902   2.225  -0.038  0.00  0.00    +0.109 A 
ATOM     28  C   UNL     1      -2.821   2.192   0.827  0.00  0.00    -0.021 A 
ATOM     29  C   UNL     1      -2.829   1.246   2.000  0.00  0.00    +0.046 C 
BRANCH  25  30
ATOM     30  C   UNL     1      -2.801   4.858  -2.479  0.00  0.00    +0.387 C 
ATOM     31  O   UNL     1      -3.748   4.889  -3.240  0.00  0.00    -0.241 OA
ATOM     32  O   UNL     1      -1.747   5.672  -2.681  0.00  0.00    -0.241 OA
ENDBRANCH  25  30
ENDBRANCH  19  27
ENDBRANCH   1  19
TORSDOF 3
