REMARK  Name = ZINC35425337
REMARK  6 active torsions:
REMARK  status: ('A' for Active; 'I' for Inactive)
REMARK    1  A    between atoms: C_3  and  C_34
REMARK    2  A    between atoms: C_6  and  C_7
REMARK    3  A    between atoms: C_7  and  N_8
REMARK    4  A    between atoms: C_12  and  C_14
REMARK    5  A    between atoms: C_16  and  C_19
REMARK    6  A    between atoms: C_28  and  C_31
REMARK                            x       y       z     vdW  Elec       q    Type
REMARK                         _______ _______ _______ _____ _____    ______ ____
ROOT
ATOM      1  C   UNL     1      -2.800  -3.130  -2.220  0.00  0.00    +0.214 A 
ATOM      2  N   UNL     1      -3.181  -4.324  -1.864  0.00  0.00    -0.193 NA
ATOM      3  C   UNL     1      -2.604  -5.246  -2.656  0.00  0.00    +0.203 A 
ATOM      4  N   UNL     1      -1.845  -4.631  -3.530  0.00  0.00    -0.056 NA
ATOM      5  O   UNL     1      -1.966  -3.242  -3.261  0.00  0.00    -0.339 OA
ENDROOT
BRANCH   3   6
ATOM      6  C   UNL     1      -2.796  -6.713  -2.557  0.00  0.00    +0.041 A 
ATOM      7  C   UNL     1      -2.134  -7.577  -3.439  0.00  0.00    +0.016 A 
ATOM      8  C   UNL     1      -2.343  -8.935  -3.308  0.00  0.00    +0.044 A 
ATOM      9  C   UNL     1      -3.198  -9.399  -2.312  0.00  0.00    +0.121 A 
ATOM     10  N   UNL     1      -3.809  -8.555  -1.494  0.00  0.00    -0.240 NA
ATOM     11  C   UNL     1      -3.631  -7.252  -1.583  0.00  0.00    +0.124 A 
ATOM     12  N   UNL     1      -3.414 -10.763  -2.175  0.00  0.00    -0.315 N 
ATOM     13  C   UNL     1      -4.119 -11.295  -1.001  0.00  0.00    +0.107 C 
ATOM     14  C   UNL     1      -5.284 -12.168  -1.479  0.00  0.00    +0.031 C 
ATOM     15  C   UNL     1      -4.754 -13.241  -2.433  0.00  0.00    +0.078 C 
ATOM     16  C   UNL     1      -4.119 -12.571  -3.654  0.00  0.00    +0.031 C 
ATOM     17  C   UNL     1      -2.946 -11.702  -3.204  0.00  0.00    +0.107 C 
BRANCH  15  18
ATOM     18  C   UNL     1      -5.891 -14.122  -2.880  0.00  0.00    +0.214 C 
ATOM     19  O   UNL     1      -7.015 -13.914  -2.474  0.00  0.00    -0.276 OA
ATOM     20  N   UNL     1      -5.660 -15.143  -3.729  0.00  0.00    -0.329 N 
ATOM     21  H   UNL     1      -4.761 -15.310  -4.053  0.00  0.00    +0.145 HD
ATOM     22  H   UNL     1      -6.392 -15.711  -4.016  0.00  0.00    +0.145 HD
ENDBRANCH  15  18
ENDBRANCH   3   6
BRANCH   1  27
ATOM     23  N   UNL     1      -2.063  -0.962  -1.377  0.00  0.00    +0.390 N 
ATOM     24  C   UNL     1      -2.292   0.298  -2.115  0.00  0.00    -0.077 C 
ATOM     25  C   UNL     1      -3.303  -0.074  -3.229  0.00  0.00    -0.020 C 
ATOM     26  C   UNL     1      -4.216  -1.092  -2.495  0.00  0.00    -0.008 C 
ATOM     27  C   UNL     1      -3.232  -1.839  -1.572  0.00  0.00    +0.022 C 
ATOM     28  H   UNL     1      -1.234  -1.415  -1.731  0.00  0.00    -0.080 HD
BRANCH  23  29
ATOM     29  C   UNL     1      -1.895  -0.672   0.054  0.00  0.00    -0.042 C 
BRANCH  29  35
ATOM     30  C   UNL     1      -0.674   1.505   0.222  0.00  0.00    +0.003 A 
ATOM     31  C   UNL     1       0.479   2.238   0.412  0.00  0.00    +0.019 A 
ATOM     32  C   UNL     1       1.690   1.583   0.643  0.00  0.00    +0.052 A 
ATOM     33  C   UNL     1       1.725   0.187   0.681  0.00  0.00    +0.019 A 
ATOM     34  C   UNL     1       0.565  -0.534   0.490  0.00  0.00    +0.003 A 
ATOM     35  C   UNL     1      -0.632   0.122   0.261  0.00  0.00    -0.064 A 
BRANCH  32  36
ATOM     36  C   UNL     1       2.890   2.338   0.840  0.00  0.00    +0.099 C 
ATOM     37  N   UNL     1       3.843   2.937   0.996  0.00  0.00    -0.191 NA
ENDBRANCH  32  36
ENDBRANCH  29  35
ENDBRANCH  23  29
ENDBRANCH   1  27
TORSDOF 6
