REMARK  Name = ZINC21813875
REMARK  3 active torsions:
REMARK  status: ('A' for Active; 'I' for Inactive)
REMARK    1  A    between atoms: C_5  and  C_7
REMARK    2  A    between atoms: C_7  and  N_8
REMARK    3  A    between atoms: N_8  and  C_9
REMARK                            x       y       z     vdW  Elec       q    Type
REMARK                         _______ _______ _______ _____ _____    ______ ____
ROOT
ATOM      1  C   UNL     1       3.955   0.556  -1.645  0.00  0.00    +0.031 A 
ATOM      2  C   UNL     1       4.842   0.270  -0.615  0.00  0.00    +0.027 A 
ATOM      3  C   UNL     1       6.005  -0.430  -0.877  0.00  0.00    +0.051 A 
ATOM      4  C   UNL     1       6.288  -0.849  -2.167  0.00  0.00    +0.173 A 
ATOM      5  C   UNL     1       5.400  -0.564  -3.202  0.00  0.00    +0.174 A 
ATOM      6  C   UNL     1       4.233   0.134  -2.938  0.00  0.00    +0.072 A 
ATOM      7  O   UNL     1       5.902  -1.079  -4.362  0.00  0.00    -0.395 OA
ATOM      8  C   UNL     1       6.902  -2.034  -3.959  0.00  0.00    +0.589 C 
ATOM      9  O   UNL     1       7.347  -1.543  -2.680  0.00  0.00    -0.395 OA
ATOM     10  F   UNL     1       6.340  -3.308  -3.827  0.00  0.00    -0.125 F 
ATOM     11  F   UNL     1       7.959  -2.056  -4.875  0.00  0.00    -0.125 F 
ENDROOT
BRANCH   1  12
ATOM     12  N   UNL     1       2.779   1.264  -1.378  0.00  0.00    -0.340 N 
ATOM     13  H   UNL     1       2.076   1.491  -2.193  0.00  0.00    +0.146 HD
BRANCH  12  14
ATOM     14  C   UNL     1       2.482   1.705  -0.013  0.00  0.00    +0.138 C 
BRANCH  14  19
ATOM     15  C   UNL     1      -0.059   4.497   0.026  0.00  0.00    +0.000 A 
ATOM     16  C   UNL     1      -1.247   3.789   0.033  0.00  0.00    +0.001 A 
ATOM     17  C   UNL     1      -1.229   2.408   0.021  0.00  0.00    +0.020 A 
ATOM     18  C   UNL     1      -0.021   1.732   0.012  0.00  0.00    +0.046 A 
ATOM     19  C   UNL     1       1.167   2.440   0.004  0.00  0.00    -0.012 A 
ATOM     20  C   UNL     1       1.147   3.822   0.011  0.00  0.00    +0.006 A 
ATOM     21 CL   UNL     1       0.002  -0.004   0.002  0.00  0.00    -0.083 Cl
ENDBRANCH  14  19
ENDBRANCH  12  14
ENDBRANCH   1  12
TORSDOF 3
