REMARK  Name = ZINC00089412
REMARK  6 active torsions:
REMARK  status: ('A' for Active; 'I' for Inactive)
REMARK    1  A    between atoms: C_1  and  C_2
REMARK    2  A    between atoms: C_3  and  C_21
REMARK    3  A    between atoms: N_11  and  C_14
REMARK    4  A    between atoms: C_15  and  C_19
REMARK    5  A    between atoms: C_16  and  N_18
REMARK    6  A    between atoms: C_21  and  C_23
REMARK                            x       y       z     vdW  Elec       q    Type
REMARK                         _______ _______ _______ _____ _____    ______ ____
ROOT
ATOM      1  C   UNL     1      -3.451   6.475  -2.373  0.00  0.00    +0.086 C 
ATOM      2  C   UNL     1      -3.139   5.708  -1.113  0.00  0.00    +0.112 C 
ATOM      3  C   UNL     1      -2.986   4.373  -1.184  0.00  0.00    +0.057 C 
ATOM      4  C   UNL     1      -2.677   3.571   0.046  0.00  0.00    +0.144 C 
ATOM      5  C   UNL     1      -1.239   3.118   0.035  0.00  0.00    -0.001 A 
ATOM      6  C   UNL     1      -0.040   3.794   0.026  0.00  0.00    +0.007 A 
ATOM      7  C   UNL     1       1.151   3.090   0.015  0.00  0.00    +0.000 A 
ATOM      8  C   UNL     1       1.132   1.707   0.013  0.00  0.00    +0.002 A 
ATOM      9  C   UNL     1      -0.067   1.026   0.022  0.00  0.00    +0.024 A 
ATOM     10  C   UNL     1      -1.271   1.728   0.027  0.00  0.00    +0.041 A 
ATOM     11  N   UNL     1      -2.591   1.276   0.033  0.00  0.00    -0.273 N 
ATOM     12  C   UNL     1      -3.476   2.289   0.037  0.00  0.00    +0.240 C 
ATOM     13  O   UNL     1      -4.685   2.191   0.043  0.00  0.00    -0.274 OA
ATOM     14  C   UNL     1      -2.970  -0.140   0.032  0.00  0.00    +0.138 C 
ATOM     15  C   UNL     1      -2.965   4.373   1.283  0.00  0.00    +0.110 C 
ATOM     16  C   UNL     1      -3.121   5.718   1.208  0.00  0.00    +0.199 C 
ATOM     17  O   UNL     1      -3.022   6.378   0.041  0.00  0.00    -0.445 OA
ENDROOT
BRANCH  16  18
ATOM     18  N   UNL     1      -3.388   6.425   2.354  0.00  0.00    -0.328 N 
ATOM     19  H   UNL     1      -3.463   5.961   3.203  0.00  0.00    +0.145 HD
ATOM     20  H   UNL     1      -3.502   7.387   2.315  0.00  0.00    +0.145 HD
ENDBRANCH  16  18
BRANCH   3  21
ATOM     21  C   UNL     1      -3.116   3.723  -2.425  0.00  0.00    +0.161 C 
ATOM     22  O   UNL     1      -3.477   4.347  -3.403  0.00  0.00    -0.293 OA
ATOM     23  C   UNL     1      -2.807   2.252  -2.541  0.00  0.00    +0.091 C 
ENDBRANCH   3  21
BRANCH  15  24
ATOM     24  C   UNL     1      -3.076   3.714   2.549  0.00  0.00    +0.102 C 
ATOM     25  N   UNL     1      -3.164   3.191   3.553  0.00  0.00    -0.191 NA
ENDBRANCH  15  24
TORSDOF 3
