REMARK  Name = ZINC19320882
REMARK  5 active torsions:
REMARK  status: ('A' for Active; 'I' for Inactive)
REMARK    1  A    between atoms: C_1  and  C_2
REMARK    2  A    between atoms: C_2  and  C_3
REMARK    3  A    between atoms: C_9  and  C_26
REMARK    4  A    between atoms: C_11  and  N_12
REMARK    5  A    between atoms: N_16  and  C_19
REMARK                            x       y       z     vdW  Elec       q    Type
REMARK                         _______ _______ _______ _____ _____    ______ ____
ROOT
ATOM      1  N   UNL     1      -7.165  -2.640  -1.052  0.00  0.00    -0.181 NA
ATOM      2  C   UNL     1      -7.762  -2.865   0.100  0.00  0.00    +0.185 C 
ATOM      3  N   UNL     1      -7.134  -2.632   1.309  0.00  0.00    -0.304 N 
ATOM      4  C   UNL     1      -7.342  -3.627   2.374  0.00  0.00    +0.193 C 
ATOM      5  N   UNL     1      -8.783  -3.904   2.486  0.00  0.00    -0.268 NA
ATOM      6  C   UNL     1      -9.331  -4.367   1.201  0.00  0.00    +0.193 C 
ATOM      7  N   UNL     1      -9.056  -3.342   0.175  0.00  0.00    -0.304 N 
ATOM      8  H   UNL     1      -9.751  -3.018  -0.419  0.00  0.00    +0.150 HD
ATOM      9  H   UNL     1      -6.580  -1.849   1.450  0.00  0.00    +0.150 HD
ENDROOT
BRANCH   1  18
ATOM     10  C   UNL     1      -1.412  -0.526   0.013  0.00  0.00    -0.047 A 
ATOM     11  C   UNL     1      -2.046  -0.764   1.230  0.00  0.00    +0.006 A 
ATOM     12  C   UNL     1      -3.324  -1.235   1.276  0.00  0.00    +0.029 A 
ATOM     13  C   UNL     1      -4.014  -1.485   0.081  0.00  0.00    +0.077 A 
ATOM     14  C   UNL     1      -3.367  -1.241  -1.159  0.00  0.00    +0.022 A 
ATOM     15  C   UNL     1      -2.053  -0.752  -1.168  0.00  0.00    +0.015 A 
ATOM     16  C   UNL     1      -4.076  -1.498  -2.348  0.00  0.00    +0.051 A 
ATOM     17  N   UNL     1      -5.307  -1.951  -2.261  0.00  0.00    -0.215 NA
ATOM     18  C   UNL     1      -5.889  -2.170  -1.077  0.00  0.00    +0.254 A 
ATOM     19  N   UNL     1      -5.269  -1.947   0.072  0.00  0.00    -0.211 NA
ATOM     20  C   UNL     1      -3.438  -1.256  -3.692  0.00  0.00    +0.066 C 
BRANCH  10  22
ATOM     21  C   UNL     1      -0.019   1.526   0.010  0.00  0.00    +0.009 C 
ATOM     22  C   UNL     1       0.002  -0.004   0.002  0.00  0.00    +0.032 C 
ENDBRANCH  10  22
ENDBRANCH   1  18
BRANCH   5  23
ATOM     23  C   UNL     1      -9.051  -4.877   3.554  0.00  0.00    +0.060 C 
ATOM     24  C   UNL     1      -8.426  -6.224   3.184  0.00  0.00    +0.019 C 
ATOM     25  C   UNL     1      -8.705  -7.237   4.296  0.00  0.00    +0.002 C 
ATOM     26  C   UNL     1     -10.217  -7.405   4.465  0.00  0.00    +0.000 C 
ATOM     27  C   UNL     1     -10.842  -6.058   4.834  0.00  0.00    +0.002 C 
ATOM     28  C   UNL     1     -10.562  -5.045   3.723  0.00  0.00    +0.019 C 
ENDBRANCH   5  23
TORSDOF 3
