REMARK  Name = ZINC09501896
REMARK  3 active torsions:
REMARK  status: ('A' for Active; 'I' for Inactive)
REMARK    1  A    between atoms: C_1  and  C_2
REMARK    2  A    between atoms: C_13  and  C_15
REMARK    3  A    between atoms: C_15  and  N_16
REMARK                            x       y       z     vdW  Elec       q    Type
REMARK                         _______ _______ _______ _____ _____    ______ ____
ROOT
ATOM      1  C   UNL     1      -0.273   5.469   4.314  0.00  0.00    +0.214 C 
ENDROOT
BRANCH   1  13
ATOM      2  C   UNL     1      -0.466   5.590   6.620  0.00  0.00    +0.028 C 
ATOM      3  C   UNL     1      -1.429   6.778   6.578  0.00  0.00    +0.079 C 
ATOM      4  C   UNL     1      -1.099   7.758   7.718  0.00  0.00    +0.027 C 
ATOM      5  C   UNL     1      -2.120   8.895   7.698  0.00  0.00    +0.039 C 
ATOM      6  C   UNL     1      -2.217   9.493   6.319  0.00  0.00    -0.026 A 
ATOM      7  C   UNL     1      -2.736  10.769   6.176  0.00  0.00    +0.005 A 
ATOM      8  C   UNL     1      -2.846  11.341   4.924  0.00  0.00    +0.000 A 
ATOM      9  C   UNL     1      -2.438  10.642   3.803  0.00  0.00    +0.002 A 
ATOM     10  C   UNL     1      -1.917   9.371   3.936  0.00  0.00    +0.024 A 
ATOM     11  C   UNL     1      -1.804   8.793   5.196  0.00  0.00    +0.040 A 
ATOM     12  N   UNL     1      -1.269   7.503   5.310  0.00  0.00    -0.267 N 
ATOM     13  C   UNL     1      -0.625   6.934   4.272  0.00  0.00    +0.238 C 
ATOM     14  O   UNL     1      -0.327   7.601   3.304  0.00  0.00    -0.273 OA
ENDBRANCH   1  13
BRANCH   1  15
ATOM     15  N   UNL     1       0.209   5.045   2.998  0.00  0.00    -0.215 N 
ATOM     16  C   UNL     1      -0.584   4.566   2.018  0.00  0.00    +0.247 C 
ATOM     17  O   UNL     1      -1.786   4.412   2.056  0.00  0.00    -0.273 OA
ATOM     18  C   UNL     1       0.341   4.263   0.862  0.00  0.00    +0.113 C 
ATOM     19  C   UNL     1       0.298   2.777   0.520  0.00  0.00    +0.035 C 
ATOM     20  C   UNL     1       1.267   2.488  -0.629  0.00  0.00    +0.003 C 
ATOM     21  C   UNL     1       0.872   3.322  -1.850  0.00  0.00    +0.000 C 
ATOM     22  C   UNL     1       0.941   4.809  -1.498  0.00  0.00    +0.003 C 
ATOM     23  C   UNL     1      -0.030   5.107  -0.353  0.00  0.00    +0.035 C 
ATOM     24  N   UNL     1       1.671   4.636   1.361  0.00  0.00    -0.285 N 
ATOM     25  C   UNL     1       1.493   5.083   2.619  0.00  0.00    +0.310 C 
ATOM     26  O   UNL     1       2.396   5.476   3.331  0.00  0.00    -0.252 OA
ATOM     27  H   UNL     1       2.510   4.575   0.880  0.00  0.00    +0.151 HD
ENDBRANCH   1  15
TORSDOF 2
