REMARK  Name = ZINC18194435
REMARK  5 active torsions:
REMARK  status: ('A' for Active; 'I' for Inactive)
REMARK    1  A    between atoms: C_1  and  C_2
REMARK    2  A    between atoms: C_2  and  C_14
REMARK    3  A    between atoms: N_3  and  N_4
REMARK    4  A    between atoms: C_5  and  C_7
REMARK    5  A    between atoms: C_11  and  O_13
REMARK                            x       y       z     vdW  Elec       q    Type
REMARK                         _______ _______ _______ _____ _____    ______ ____
ROOT
ATOM      1  C   UNL     1       3.511   7.335   0.005  0.00  0.00    +0.068 C 
ATOM      2  C   UNL     1       2.198   8.074   0.021  0.00  0.00    +0.063 C 
ATOM      3  N   UNL     1       1.081   7.413   0.028  0.00  0.00    -0.184 NA
ENDROOT
BRANCH   2   4
ATOM      4  C   UNL     1       2.183   9.549   0.028  0.00  0.00    -0.002 A 
ATOM      5  C   UNL     1       3.390  10.262   0.020  0.00  0.00    +0.012 A 
ATOM      6  C   UNL     1       3.391  11.626   0.026  0.00  0.00    +0.027 A 
ATOM      7  C   UNL     1       2.189  12.329   0.041  0.00  0.00    +0.046 A 
ATOM      8  C   UNL     1       0.970  11.625   0.049  0.00  0.00    +0.000 A 
ATOM      9  C   UNL     1       0.970  10.231   0.037  0.00  0.00    +0.019 A 
ATOM     10  C   UNL     1      -0.085  12.642   0.064  0.00  0.00    +0.027 A 
ATOM     11  C   UNL     1       0.523  13.838   0.064  0.00  0.00    +0.083 A 
ATOM     12  N   UNL     1       1.881  13.671   0.050  0.00  0.00    -0.361 N 
ATOM     13  H   UNL     1       2.531  14.391   0.048  0.00  0.00    +0.165 HD
ENDBRANCH   2   4
BRANCH   3  14
ATOM     14  N   UNL     1       1.096   6.013   0.021  0.00  0.00    -0.203 N 
ATOM     15  C   UNL     1      -0.064   5.326   0.029  0.00  0.00    +0.263 C 
ATOM     16  O   UNL     1      -1.124   5.923   0.042  0.00  0.00    -0.268 OA
ATOM     17  H   UNL     1       1.941   5.536   0.011  0.00  0.00    +0.178 HD
BRANCH  15  18
ATOM     18  C   UNL     1      -0.049   3.848   0.022  0.00  0.00    +0.042 A 
ATOM     19  C   UNL     1       1.166   3.160   0.007  0.00  0.00    +0.013 A 
ATOM     20  C   UNL     1       1.177   1.781   0.000  0.00  0.00    +0.004 A 
ATOM     21  C   UNL     1      -0.013   1.076   0.008  0.00  0.00    +0.045 A 
ATOM     22  C   UNL     1      -1.226   1.751   0.017  0.00  0.00    +0.118 A 
ATOM     23  C   UNL     1      -1.248   3.135   0.030  0.00  0.00    +0.058 A 
BRANCH  22  24
ATOM     24  O   UNL     1      -2.392   1.053   0.019  0.00  0.00    -0.507 OA
ATOM     25  H   UNL     1      -2.725   0.846   0.904  0.00  0.00    +0.292 HD
ENDBRANCH  22  24
ENDBRANCH  15  18
ENDBRANCH   3  14
TORSDOF 4
