REMARK  Name = ZINC28294156
REMARK  13 active torsions:
REMARK  status: ('A' for Active; 'I' for Inactive)
REMARK    1  A    between atoms: C_1  and  C_2
REMARK    2  A    between atoms: C_2  and  N_3
REMARK    3  A    between atoms: N_3  and  C_4
REMARK    4  A    between atoms: C_4  and  C_5
REMARK    5  A    between atoms: N_8  and  C_9
REMARK    6  A    between atoms: C_9  and  C_11
REMARK    7  A    between atoms: C_9  and  N_15
REMARK    8  A    between atoms: N_15  and  C_16
REMARK    9  A    between atoms: C_16  and  N_18
REMARK   10  A    between atoms: N_18  and  C_19
REMARK   11  A    between atoms: C_22  and  C_25
REMARK   12  A    between atoms: C_25  and  O_27
REMARK   13  A    between atoms: O_27  and  C_28
REMARK                            x       y       z     vdW  Elec       q    Type
REMARK                         _______ _______ _______ _____ _____    ______ ____
ROOT
ATOM      1  N   UNL     1       2.834   1.383   1.454  0.00  0.00    -0.305 N 
ATOM      2  H   UNL     1       3.478   2.235   1.716  0.00  0.00    +0.150 HD
ENDROOT
BRANCH   1   3
ATOM      3  C   UNL     1       2.816   0.285   2.235  0.00  0.00    +0.136 C 
ATOM      4  S   UNL     1       1.814  -1.041   1.826  0.00  0.00    -0.019 S 
BRANCH   3   5
ATOM      5  N   UNL     1       3.588   0.231   3.339  0.00  0.00    -0.297 N 
ATOM      6  H   UNL     1       4.299   1.043   3.553  0.00  0.00    +0.154 HD
BRANCH   5   7
ATOM      7  C   UNL     1       3.485  -0.853   4.209  0.00  0.00    +0.033 A 
ATOM      8  C   UNL     1       2.232  -1.361   4.539  0.00  0.00    +0.024 A 
ATOM      9  C   UNL     1       2.128  -2.435   5.393  0.00  0.00    +0.017 A 
ATOM     10  C   UNL     1       3.281  -3.008   5.938  0.00  0.00    +0.059 A 
ATOM     11  C   UNL     1       4.537  -2.491   5.609  0.00  0.00    +0.017 A 
ATOM     12  C   UNL     1       4.635  -1.420   4.750  0.00  0.00    +0.024 A 
BRANCH  10  13
ATOM     13  C   UNL     1       3.172  -4.155   6.858  0.00  0.00    +0.339 C 
ATOM     14  O   UNL     1       4.175  -4.653   7.330  0.00  0.00    -0.245 OA
BRANCH  13  15
ATOM     15  O   UNL     1       1.960  -4.653   7.175  0.00  0.00    -0.464 OA
ATOM     16  C   UNL     1       1.929  -5.783   8.086  0.00  0.00    +0.280 C 
ENDBRANCH  13  15
ENDBRANCH  10  13
ENDBRANCH   5   7
ENDBRANCH   3   5
ENDBRANCH   1   3
BRANCH   1  17
ATOM     17  C   UNL     1       1.995   1.441   0.254  0.00  0.00    +0.212 C 
BRANCH  17  21
ATOM     18  N   UNL     1      -1.431   2.591   0.932  0.00  0.00    -0.286 N 
ATOM     19  C   UNL     1      -0.374   1.785   0.709  0.00  0.00    +0.304 C 
ATOM     20  O   UNL     1      -0.523   0.579   0.688  0.00  0.00    -0.253 OA
ATOM     21  N   UNL     1       0.847   2.317   0.503  0.00  0.00    -0.277 N 
ATOM     22  H   UNL     1       0.982   3.408   0.522  0.00  0.00    +0.152 HD
BRANCH  18  24
ATOM     23  C   UNL     1      -2.965   1.755   2.644  0.00  0.00    +0.024 C 
ATOM     24  C   UNL     1      -2.760   2.013   1.150  0.00  0.00    +0.106 C 
ENDBRANCH  18  24
BRANCH  18  25
ATOM     25  C   UNL     1      -1.252   4.045   0.958  0.00  0.00    +0.106 C 
ATOM     26  C   UNL     1      -1.446   4.607  -0.452  0.00  0.00    +0.024 C 
ENDBRANCH  18  25
ENDBRANCH  17  21
BRANCH  17  27
ATOM     27  C   UNL     1       2.814   1.994  -0.914  0.00  0.00    +0.225 C 
ATOM     28 CL   UNL     1       3.398   3.650  -0.508  0.00  0.00    -0.080 Cl
ATOM     29 CL   UNL     1       4.226   0.916  -1.221  0.00  0.00    -0.080 Cl
ATOM     30 CL   UNL     1       1.782   2.066  -2.391  0.00  0.00    -0.080 Cl
ENDBRANCH  17  27
ENDBRANCH   1  17
TORSDOF 10
