REMARK  Name = ZINC15840831
REMARK  8 active torsions:
REMARK  status: ('A' for Active; 'I' for Inactive)
REMARK    1  A    between atoms: C_1  and  C_2
REMARK    2  A    between atoms: C_2  and  O_3
REMARK    3  A    between atoms: O_3  and  C_4
REMARK    4  A    between atoms: C_7  and  N_14
REMARK    5  A    between atoms: C_15  and  C_17
REMARK    6  A    between atoms: C_17  and  C_19
REMARK    7  A    between atoms: C_17  and  O_20
REMARK    8  A    between atoms: O_20  and  C_21
REMARK                            x       y       z     vdW  Elec       q    Type
REMARK                         _______ _______ _______ _____ _____    ______ ____
ROOT
ATOM      1  N   UNL     1      -1.235   6.137  -1.097  0.00  0.00    -0.282 N 
ATOM      2  C   UNL     1      -0.380   5.128  -1.357  0.00  0.00    +0.258 C 
ATOM      3  O   UNL     1       0.436   5.239  -2.248  0.00  0.00    -0.271 OA
ATOM      4  H   UNL     1      -1.845   6.074  -0.346  0.00  0.00    +0.155 HD
ENDROOT
BRANCH   1   8
ATOM      5  C   UNL     1      -1.229   9.550  -3.545  0.00  0.00    +0.146 A 
ATOM      6  C   UNL     1      -0.064   8.871  -3.272  0.00  0.00    +0.049 A 
ATOM      7  C   UNL     1      -0.069   7.741  -2.460  0.00  0.00    +0.027 A 
ATOM      8  C   UNL     1      -1.243   7.274  -1.911  0.00  0.00    +0.043 A 
ATOM      9  C   UNL     1      -2.453   7.946  -2.178  0.00  0.00    +0.025 A 
ATOM     10  C   UNL     1      -2.448   9.100  -2.999  0.00  0.00    +0.114 A 
ATOM     11  N   UNL     1      -3.593   9.743  -3.249  0.00  0.00    -0.251 NA
ATOM     12  C   UNL     1      -4.730   9.331  -2.744  0.00  0.00    +0.111 A 
ATOM     13  C   UNL     1      -4.803   8.207  -1.925  0.00  0.00    +0.020 A 
ATOM     14  C   UNL     1      -3.670   7.505  -1.629  0.00  0.00    +0.013 A 
BRANCH   5  15
ATOM     15  O   UNL     1      -1.204  10.652  -4.341  0.00  0.00    -0.490 OA
BRANCH  15  17
ATOM     16  C   UNL     1      -0.104  12.299  -5.725  0.00  0.00    +0.048 C 
ATOM     17  C   UNL     1       0.067  11.050  -4.860  0.00  0.00    +0.226 C 
ENDBRANCH  15  17
ENDBRANCH   5  15
ENDBRANCH   1   8
BRANCH   2  18
ATOM     18  C   UNL     1      -0.437   3.863  -0.541  0.00  0.00    +0.256 C 
ATOM     19  C   UNL     1      -0.182   4.193   0.931  0.00  0.00    +0.062 C 
BRANCH  18  20
ATOM     20  O   UNL     1       0.561   2.951  -1.004  0.00  0.00    -0.478 OA
BRANCH  20  21
ATOM     21  C   UNL     1       0.262   1.627  -0.948  0.00  0.00    +0.140 A 
ATOM     22  C   UNL     1      -0.911   1.205  -0.340  0.00  0.00    +0.047 A 
ATOM     23  C   UNL     1      -1.214  -0.142  -0.284  0.00  0.00    +0.004 A 
ATOM     24  C   UNL     1      -0.348  -1.070  -0.833  0.00  0.00    +0.002 A 
ATOM     25  C   UNL     1       0.822  -0.653  -1.440  0.00  0.00    +0.023 A 
ATOM     26  C   UNL     1       1.130   0.694  -1.498  0.00  0.00    +0.083 A 
ATOM     27 CL   UNL     1       2.600   1.217  -2.259  0.00  0.00    -0.080 Cl
ENDBRANCH  20  21
ENDBRANCH  18  20
ENDBRANCH   2  18
TORSDOF 6
