REMARK  Name = ZINC15223741
REMARK  7 active torsions:
REMARK  status: ('A' for Active; 'I' for Inactive)
REMARK    1  A    between atoms: C_1  and  C_2
REMARK    2  A    between atoms: C_6  and  N_8
REMARK    3  A    between atoms: C_9  and  C_24
REMARK    4  A    between atoms: C_11  and  C_14
REMARK    5  A    between atoms: C_12  and  C_13
REMARK    6  A    between atoms: N_15  and  C_16
REMARK    7  A    between atoms: C_21  and  O_22
REMARK                            x       y       z     vdW  Elec       q    Type
REMARK                         _______ _______ _______ _____ _____    ______ ____
ROOT
ATOM      1  N   UNL     1      -0.599   5.299  -0.218  0.00  0.00    -0.317 N 
ATOM      2  C   UNL     1       0.024   6.075  -1.154  0.00  0.00    +0.022 A 
ATOM      3  C   UNL     1       0.090   7.341  -0.704  0.00  0.00    +0.032 A 
ATOM      4  C   UNL     1      -0.545   7.348   0.619  0.00  0.00    +0.014 A 
ATOM      5  C   UNL     1      -0.953   6.052   0.854  0.00  0.00    +0.030 A 
ATOM      6  C   UNL     1      -1.664   5.558   2.087  0.00  0.00    +0.064 C 
ATOM      7  C   UNL     1       0.554   5.591  -2.479  0.00  0.00    +0.064 C 
ENDROOT
BRANCH   1  13
ATOM      8  C   UNL     1       1.128   0.710  -0.602  0.00  0.00    +0.044 C 
ATOM      9  C   UNL     1      -0.024   1.679  -0.537  0.00  0.00    -0.048 A 
ATOM     10  C   UNL     1      -1.324   1.213  -0.607  0.00  0.00    +0.003 A 
ATOM     11  C   UNL     1      -2.384   2.099  -0.553  0.00  0.00    +0.002 A 
ATOM     12  C   UNL     1      -2.146   3.454  -0.419  0.00  0.00    +0.026 A 
ATOM     13  C   UNL     1      -0.843   3.925  -0.349  0.00  0.00    +0.047 A 
ATOM     14  C   UNL     1       0.220   3.033  -0.409  0.00  0.00    +0.029 A 
ENDBRANCH   1  13
BRANCH   4  15
ATOM     15  C   UNL     1      -0.716   8.504   1.510  0.00  0.00    +0.121 C 
ATOM     16  N   UNL     1      -1.304   8.355   2.665  0.00  0.00    -0.251 NA
BRANCH  16  17
ATOM     17  C   UNL     1      -1.560   9.448   3.449  0.00  0.00    +0.105 A 
ATOM     18  C   UNL     1      -2.156  10.583   2.897  0.00  0.00    +0.033 A 
ATOM     19  C   UNL     1      -2.412  11.682   3.691  0.00  0.00    +0.022 A 
ATOM     20  C   UNL     1      -2.079  11.663   5.036  0.00  0.00    +0.045 A 
ATOM     21  C   UNL     1      -1.488  10.543   5.594  0.00  0.00    +0.067 A 
ATOM     22  C   UNL     1      -1.229   9.431   4.810  0.00  0.00    +0.143 A 
ATOM     23 CL   UNL     1      -2.405  13.051   6.026  0.00  0.00    -0.083 Cl
BRANCH  22  24
ATOM     24  O   UNL     1      -0.654   8.329   5.358  0.00  0.00    -0.505 OA
ATOM     25  H   UNL     1      -0.395   8.318   6.428  0.00  0.00    +0.292 HD
ENDBRANCH  22  24
ENDBRANCH  16  17
ENDBRANCH   4  15
TORSDOF 4
