REMARK  Name = ZINC50183938
REMARK  8 active torsions:
REMARK  status: ('A' for Active; 'I' for Inactive)
REMARK    1  A    between atoms: C_1  and  C_2
REMARK    2  A    between atoms: C_3  and  C_8
REMARK    3  A    between atoms: C_8  and  C_9
REMARK    4  A    between atoms: C_9  and  C_10
REMARK    5  A    between atoms: C_10  and  N_11
REMARK    6  A    between atoms: C_12  and  C_14
REMARK    7  A    between atoms: C_14  and  C_19
REMARK    8  A    between atoms: N_20  and  O_21
REMARK                            x       y       z     vdW  Elec       q    Type
REMARK                         _______ _______ _______ _____ _____    ______ ____
ROOT
ATOM      1  N   UNL     1       2.848   0.680  -4.827  0.00  0.00    -0.314 N 
ATOM      2  C   UNL     1       3.034   1.132  -6.082  0.00  0.00    +0.226 C 
ATOM      3  O   UNL     1       2.099   1.186  -6.853  0.00  0.00    -0.275 OA
ATOM      4  H   UNL     1       3.607   0.565  -4.234  0.00  0.00    +0.149 HD
ENDROOT
BRANCH   2   5
ATOM      5  C   UNL     1       4.405   1.571  -6.529  0.00  0.00    +0.105 C 
ATOM      6  C   UNL     1       4.346   2.096  -7.974  0.00  0.00    +0.024 C 
ATOM      7  C   UNL     1       5.275   1.193  -8.810  0.00  0.00    +0.001 C 
ATOM      8  C   UNL     1       5.345  -0.128  -8.005  0.00  0.00    +0.001 C 
ATOM      9  C   UNL     1       5.369   0.366  -6.538  0.00  0.00    +0.024 C 
BRANCH   5  10
ATOM     10  C   UNL     1       4.929   2.644  -5.610  0.00  0.00    +0.147 C 
ATOM     11  N   UNL     1       6.059   2.482  -5.006  0.00  0.00    -0.076 NA
ATOM     12  N   UNL     1       4.202   3.797  -5.413  0.00  0.00    -0.343 N 
ATOM     13  H   UNL     1       3.391   3.952  -5.923  0.00  0.00    +0.144 HD
ATOM     14  H   UNL     1       4.500   4.454  -4.765  0.00  0.00    +0.144 HD
BRANCH  11  15
ATOM     15  O   UNL     1       6.551   3.490  -4.142  0.00  0.00    -0.408 OA
ATOM     16  H   UNL     1       7.403   3.280  -3.736  0.00  0.00    +0.328 HD
ENDBRANCH  11  15
ENDBRANCH   5  10
ENDBRANCH   2   5
BRANCH   1  17
ATOM     17  C   UNL     1       1.497   0.362  -4.356  0.00  0.00    +0.104 C 
BRANCH  17  18
ATOM     18  C   UNL     1       1.564  -0.127  -2.908  0.00  0.00    +0.023 C 
BRANCH  18  19
ATOM     19  C   UNL     1       0.154  -0.460  -2.416  0.00  0.00    +0.040 C 
BRANCH  19  22
ATOM     20  C   UNL     1       0.179   1.347   0.138  0.00  0.00    +0.065 C 
ATOM     21  C   UNL     1       0.230  -0.160   0.115  0.00  0.00    +0.036 A 
ATOM     22  C   UNL     1       0.220  -0.941  -0.989  0.00  0.00    -0.007 A 
ATOM     23  C   UNL     1       0.280  -2.275  -0.573  0.00  0.00    +0.138 A 
ATOM     24  N   UNL     1       0.325  -2.294   0.734  0.00  0.00    -0.182 NA
ATOM     25  N   UNL     1       0.300  -0.970   1.192  0.00  0.00    -0.282 N 
ATOM     26  H   UNL     1       0.327  -0.686   2.119  0.00  0.00    +0.189 HD
ENDBRANCH  19  22
ENDBRANCH  18  19
ENDBRANCH  17  18
ENDBRANCH   1  17
TORSDOF 7
