REMARK  Name = ZINC16958780
REMARK  9 active torsions:
REMARK  status: ('A' for Active; 'I' for Inactive)
REMARK    1  A    between atoms: C_1  and  C_2
REMARK    2  A    between atoms: C_4  and  C_27
REMARK    3  A    between atoms: N_5  and  C_11
REMARK    4  A    between atoms: C_8  and  C_9
REMARK    5  A    between atoms: C_13  and  O_26
REMARK    6  A    between atoms: C_15  and  O_25
REMARK    7  A    between atoms: C_17  and  O_24
REMARK    8  A    between atoms: C_19  and  C_22
REMARK    9  A    between atoms: C_22  and  O_23
REMARK                            x       y       z     vdW  Elec       q    Type
REMARK                         _______ _______ _______ _____ _____    ______ ____
ROOT
ATOM      1  C   UNL     1       2.441   3.745  -0.503  0.00  0.00    +0.252 C 
ATOM      2  C   UNL     1       2.493   4.181  -1.969  0.00  0.00    +0.195 C 
ATOM      3  C   UNL     1       3.806   4.928  -2.225  0.00  0.00    +0.178 C 
ATOM      4  C   UNL     1       3.902   6.115  -1.262  0.00  0.00    +0.177 C 
ATOM      5  C   UNL     1       3.796   5.604   0.177  0.00  0.00    +0.177 C 
ATOM      6  O   UNL     1       2.566   4.893   0.339  0.00  0.00    -0.346 OA
ENDROOT
BRANCH   1  11
ATOM      7  C   UNL     1      -2.529   1.084   0.533  0.00  0.00    +0.045 C 
ATOM      8  C   UNL     1      -1.230   1.798   0.263  0.00  0.00    -0.029 A 
ATOM      9  C   UNL     1      -0.034   1.084   0.168  0.00  0.00    +0.025 A 
ATOM     10  C   UNL     1       1.130   1.735  -0.081  0.00  0.00    +0.019 A 
ATOM     11  N   UNL     1       1.162   3.081  -0.236  0.00  0.00    -0.309 N 
ATOM     12  C   UNL     1       0.039   3.818  -0.149  0.00  0.00    +0.107 A 
ATOM     13  S   UNL     1       0.108   5.517  -0.349  0.00  0.00    -0.031 S 
ATOM     14  C   UNL     1      -1.203   3.182   0.110  0.00  0.00    +0.086 A 
ATOM     15  C   UNL     1       2.410   0.947  -0.186  0.00  0.00    +0.063 C 
BRANCH  14  16
ATOM     16  C   UNL     1      -2.408   3.950   0.205  0.00  0.00    +0.102 C 
ATOM     17  N   UNL     1      -3.364   4.559   0.281  0.00  0.00    -0.191 NA
ENDBRANCH  14  16
ENDBRANCH   1  11
BRANCH   4  18
ATOM     18  O   UNL     1       5.157   6.776  -1.442  0.00  0.00    -0.386 OA
ATOM     19  H   UNL     1       5.294   7.121  -2.335  0.00  0.00    +0.210 HD
ENDBRANCH   4  18
BRANCH   3  20
ATOM     20  O   UNL     1       3.831   5.402  -3.573  0.00  0.00    -0.386 OA
ATOM     21  H   UNL     1       4.636   5.886  -3.805  0.00  0.00    +0.210 HD
ENDBRANCH   3  20
BRANCH   2  22
ATOM     22  O   UNL     1       2.426   3.030  -2.813  0.00  0.00    -0.385 OA
ATOM     23  H   UNL     1       2.454   3.233  -3.758  0.00  0.00    +0.210 HD
ENDBRANCH   2  22
BRANCH   5  24
ATOM     24  C   UNL     1       3.830   6.789   1.144  0.00  0.00    +0.190 C 
BRANCH  24  25
ATOM     25  O   UNL     1       3.848   6.307   2.489  0.00  0.00    -0.392 OA
ATOM     26  H   UNL     1       3.871   7.006   3.157  0.00  0.00    +0.210 HD
ENDBRANCH  24  25
ENDBRANCH   5  24
TORSDOF 7
