REMARK  Name = ZINC50397150
REMARK  6 active torsions:
REMARK  status: ('A' for Active; 'I' for Inactive)
REMARK    1  A    between atoms: C_1  and  N_2
REMARK    2  A    between atoms: N_2  and  C_3
REMARK    3  A    between atoms: N_2  and  C_4
REMARK    4  A    between atoms: C_7  and  N_21
REMARK    5  A    between atoms: C_9  and  C_10
REMARK    6  A    between atoms: N_12  and  C_13
REMARK                            x       y       z     vdW  Elec       q    Type
REMARK                         _______ _______ _______ _____ _____    ______ ____
ROOT
ATOM      1  C   UNL     1       0.000  -0.693  -1.207  0.00  0.00    +0.042 A 
ATOM      2  C   UNL     1       1.201  -1.027  -1.821  0.00  0.00    +0.025 A 
ATOM      3  C   UNL     1       1.200  -1.710  -3.019  0.00  0.00    +0.024 A 
ATOM      4  C   UNL     1      -0.002  -2.069  -3.623  0.00  0.00    +0.025 A 
ATOM      5  C   UNL     1      -1.206  -1.744  -3.024  0.00  0.00    +0.037 A 
ATOM      6  C   UNL     1      -1.214  -1.058  -1.806  0.00  0.00    +0.059 A 
ENDROOT
BRANCH   6   7
ATOM      7  C   UNL     1      -2.494  -0.714  -1.159  0.00  0.00    +0.247 C 
ATOM      8  O   UNL     1      -2.498  -0.112  -0.102  0.00  0.00    -0.270 OA
ATOM      9  N   UNL     1      -3.658  -1.067  -1.738  0.00  0.00    -0.300 N 
ATOM     10  H   UNL     1      -3.655  -1.546  -2.581  0.00  0.00    +0.150 HD
BRANCH   9  11
ATOM     11  C   UNL     1      -4.929  -0.725  -1.095  0.00  0.00    +0.159 C 
ATOM     12  C   UNL     1      -6.030  -0.643  -2.155  0.00  0.00    +0.033 C 
ATOM     13  C   UNL     1      -7.385  -0.559  -1.442  0.00  0.00    +0.021 C 
ATOM     14  C   UNL     1      -7.649  -1.890  -0.735  0.00  0.00    +0.104 C 
ATOM     15  N   UNL     1      -6.502  -2.271   0.080  0.00  0.00    -0.314 N 
ATOM     16  C   UNL     1      -5.275  -1.778  -0.082  0.00  0.00    +0.233 C 
ATOM     17  O   UNL     1      -4.389  -2.203   0.629  0.00  0.00    -0.274 OA
ATOM     18  H   UNL     1      -6.641  -2.925   0.782  0.00  0.00    +0.149 HD
ENDBRANCH   9  11
ENDBRANCH   6   7
BRANCH   1  20
ATOM     19  C   UNL     1      -0.018   1.461   0.010  0.00  0.00    +0.129 C 
ATOM     20  N   UNL     1       0.002  -0.004   0.002  0.00  0.00    -0.335 N 
ATOM     21  C   UNL     1       0.024  -0.743   1.267  0.00  0.00    +0.129 C 
ENDBRANCH   1  20
BRANCH   4  22
ATOM     22  N   UNL     1       0.009  -2.762  -4.839  0.00  0.00    -0.358 N 
ATOM     23  H   UNL     1       0.852  -2.990  -5.261  0.00  0.00    +0.142 HD
ATOM     24  H   UNL     1      -0.828  -3.013  -5.261  0.00  0.00    +0.142 HD
ENDBRANCH   4  22
TORSDOF 4
