REMARK  Name = ZINC31681170
REMARK  6 active torsions:
REMARK  status: ('A' for Active; 'I' for Inactive)
REMARK    1  A    between atoms: C_6  and  C_7
REMARK    2  A    between atoms: C_7  and  O_8
REMARK    3  A    between atoms: O_8  and  C_9
REMARK    4  A    between atoms: C_9  and  C_11
REMARK    5  A    between atoms: C_11  and  C_12
REMARK    6  A    between atoms: C_12  and  N_13
REMARK                            x       y       z     vdW  Elec       q    Type
REMARK                         _______ _______ _______ _____ _____    ______ ____
ROOT
ATOM      1  C   UNL     1      -1.239   2.152   0.020  0.00  0.00    +0.129 C 
ENDROOT
BRANCH   1   2
ATOM      2  N   UNL     1      -0.016   1.345   0.009  0.00  0.00    -0.224 N 
ATOM      3  C   UNL     1       0.002  -0.004   0.002  0.00  0.00    +0.247 C 
ATOM      4  O   UNL     1      -0.953  -0.751   0.007  0.00  0.00    -0.273 OA
ATOM      5  C   UNL     1       1.464  -0.388  -0.014  0.00  0.00    +0.113 C 
ATOM      6  C   UNL     1       1.792  -1.178  -1.276  0.00  0.00    +0.035 C 
ATOM      7  C   UNL     1       3.281  -1.532  -1.287  0.00  0.00    +0.003 C 
ATOM      8  C   UNL     1       3.616  -2.361  -0.045  0.00  0.00    +0.000 C 
ATOM      9  C   UNL     1       3.305  -1.546   1.212  0.00  0.00    +0.003 C 
ATOM     10  C   UNL     1       1.816  -1.192   1.233  0.00  0.00    +0.035 C 
ATOM     11  N   UNL     1       2.171   0.899  -0.014  0.00  0.00    -0.285 N 
ATOM     12  C   UNL     1       1.222   1.855   0.000  0.00  0.00    +0.309 C 
ATOM     13  O   UNL     1       1.462   3.046   0.004  0.00  0.00    -0.252 OA
ATOM     14  H   UNL     1       3.270   0.923  -0.024  0.00  0.00    +0.151 HD
ENDBRANCH   1   2
BRANCH   1  15
ATOM     15  C   UNL     1      -1.658   2.425   1.466  0.00  0.00    +0.140 C 
BRANCH  15  16
ATOM     16  C   UNL     1      -2.915   3.255   1.477  0.00  0.00    +0.309 C 
ATOM     17  O   UNL     1      -3.425   3.593   0.434  0.00  0.00    -0.251 OA
BRANCH  16  18
ATOM     18  O   UNL     1      -3.470   3.618   2.644  0.00  0.00    -0.460 OA
BRANCH  18  19
ATOM     19  C   UNL     1      -4.681   4.417   2.578  0.00  0.00    +0.267 C 
BRANCH  19  25
ATOM     20  C   UNL     1      -6.036   3.872   4.610  0.00  0.00    +0.010 A 
ATOM     21  C   UNL     1      -6.467   4.152   5.893  0.00  0.00    +0.039 A 
ATOM     22  C   UNL     1      -6.025   5.295   6.537  0.00  0.00    +0.123 A 
ATOM     23  C   UNL     1      -5.146   6.153   5.898  0.00  0.00    +0.039 A 
ATOM     24  C   UNL     1      -4.712   5.868   4.617  0.00  0.00    +0.010 A 
ATOM     25  C   UNL     1      -5.154   4.727   3.975  0.00  0.00    -0.010 A 
ATOM     26  F   UNL     1      -6.450   5.573   7.789  0.00  0.00    -0.205 F 
ENDBRANCH  19  25
ENDBRANCH  18  19
ENDBRANCH  16  18
ENDBRANCH  15  16
ENDBRANCH   1  15
TORSDOF 6
