REMARK  Name = ZINC39654387
REMARK  7 active torsions:
REMARK  status: ('A' for Active; 'I' for Inactive)
REMARK    1  A    between atoms: C_1  and  C_2
REMARK    2  A    between atoms: C_2  and  C_3
REMARK    3  A    between atoms: C_6  and  C_9
REMARK    4  A    between atoms: C_9  and  C_10
REMARK    5  A    between atoms: C_10  and  N_11
REMARK    6  A    between atoms: C_12  and  C_14
REMARK    7  A    between atoms: C_25  and  C_27
REMARK                            x       y       z     vdW  Elec       q    Type
REMARK                         _______ _______ _______ _____ _____    ______ ____
ROOT
ATOM      1  C   UNL     1      -9.853  -0.493   0.199  0.00  0.00    +0.100 C 
ATOM      2  C   UNL     1     -10.142  -1.568   1.270  0.00  0.00    +0.121 C 
ATOM      3  N   UNL     1     -10.897  -0.852   2.325  0.00  0.00    -0.296 N 
ATOM      4  C   UNL     1     -11.798   0.059   1.579  0.00  0.00    +0.115 C 
ATOM      5  C   UNL     1     -10.944   0.571   0.403  0.00  0.00    -0.004 C 
ATOM      6  C   UNL     1     -10.312   1.914   0.756  0.00  0.00    -0.010 C 
ATOM      7  C   UNL     1     -11.414   2.969   0.898  0.00  0.00    -0.082 C 
ATOM      8  N   UNL     1     -12.160   3.073  -0.361  0.00  0.00    +0.379 N 
ATOM      9  C   UNL     1     -12.840   1.804  -0.647  0.00  0.00    -0.082 C 
ATOM     10  C   UNL     1     -11.799   0.700  -0.854  0.00  0.00    -0.010 C 
ATOM     11  C   UNL     1     -10.789  -0.996   3.661  0.00  0.00    +0.248 C 
ATOM     12  O   UNL     1     -11.549  -0.402   4.400  0.00  0.00    -0.270 OA
ATOM     13  H   UNL     1     -12.845   3.810  -0.286  0.00  0.00    -0.086 HD
ATOM     14  H   UNL     1     -11.521   3.287  -1.113  0.00  0.00    -0.086 HD
ENDROOT
BRANCH  11  15
ATOM     15  C   UNL     1      -9.745  -1.876   4.227  0.00  0.00    +0.057 A 
ATOM     16  C   UNL     1      -9.386  -3.053   3.566  0.00  0.00    +0.014 A 
ATOM     17  C   UNL     1      -8.412  -3.870   4.099  0.00  0.00    +0.002 A 
ATOM     18  C   UNL     1      -7.790  -3.528   5.287  0.00  0.00    +0.021 A 
ATOM     19  C   UNL     1      -8.140  -2.365   5.949  0.00  0.00    +0.060 A 
ATOM     20  C   UNL     1      -9.110  -1.533   5.422  0.00  0.00    +0.071 A 
ATOM     21 CL   UNL     1      -9.544  -0.069   6.249  0.00  0.00    -0.081 Cl
ATOM     22 CL   UNL     1      -7.354  -1.945   7.439  0.00  0.00    -0.082 Cl
ENDBRANCH  11  15
BRANCH   1  24
ATOM     23  N   UNL     1      -7.805   0.619  -0.631  0.00  0.00    -0.315 N 
ATOM     24  C   UNL     1      -8.487   0.107   0.413  0.00  0.00    +0.218 C 
ATOM     25  O   UNL     1      -8.002   0.131   1.524  0.00  0.00    -0.275 OA
ATOM     26  H   UNL     1      -8.193   0.601  -1.520  0.00  0.00    +0.149 HD
BRANCH  23  27
ATOM     27  C   UNL     1      -6.478   1.203  -0.422  0.00  0.00    +0.109 C 
BRANCH  27  28
ATOM     28  C   UNL     1      -5.927   1.707  -1.758  0.00  0.00    +0.054 C 
BRANCH  28  32
ATOM     29  C   UNL     1      -2.056   3.410  -1.153  0.00  0.00    -0.048 A 
ATOM     30  C   UNL     1      -2.181   2.065  -1.446  0.00  0.00    +0.004 A 
ATOM     31  C   UNL     1      -3.434   1.513  -1.642  0.00  0.00    +0.004 A 
ATOM     32  C   UNL     1      -4.561   2.307  -1.544  0.00  0.00    -0.046 A 
ATOM     33  C   UNL     1      -4.436   3.652  -1.250  0.00  0.00    +0.004 A 
ATOM     34  C   UNL     1      -3.184   4.202  -1.050  0.00  0.00    +0.004 A 
BRANCH  29  36
ATOM     35  C   UNL     1      -0.314   3.909   0.539  0.00  0.00    +0.009 C 
ATOM     36  C   UNL     1      -0.691   4.010  -0.940  0.00  0.00    +0.032 C 
ENDBRANCH  29  36
ENDBRANCH  28  32
ENDBRANCH  27  28
ENDBRANCH  23  27
ENDBRANCH   1  24
TORSDOF 6
