REMARK  Name = ZINC48619782
REMARK  4 active torsions:
REMARK  status: ('A' for Active; 'I' for Inactive)
REMARK    1  A    between atoms: C_2  and  C_9
REMARK    2  A    between atoms: C_5  and  N_6
REMARK    3  A    between atoms: C_9  and  S_10
REMARK    4  A    between atoms: S_10  and  C_11
REMARK                            x       y       z     vdW  Elec       q    Type
REMARK                         _______ _______ _______ _____ _____    ______ ____
ROOT
ATOM      1  C   UNL     1      -0.016   1.351   0.009  0.00  0.00    +0.045 A 
ATOM      2  C   UNL     1       1.183   2.038   0.002  0.00  0.00    -0.028 A 
ATOM      3  C   UNL     1       2.343   1.336  -0.013  0.00  0.00    +0.052 A 
ATOM      4  S   UNL     1       1.754  -0.349  -0.017  0.00  0.00    -0.073 S 
ATOM      5  C   UNL     1       0.002  -0.004   0.002  0.00  0.00    +0.164 A 
ENDROOT
BRANCH   5   6
ATOM      6  N   UNL     1      -1.135  -0.952   0.008  0.00  0.00    +0.063 N 
ATOM      7  O   UNL     1      -2.270  -0.535   0.021  0.00  0.00    -0.126 OA
ATOM      8  O   UNL     1      -0.929  -2.143  -0.001  0.00  0.00    -0.126 OA
ENDBRANCH   5   6
BRANCH   2   9
ATOM      9  C   UNL     1       1.202   3.545   0.009  0.00  0.00    +0.113 C 
BRANCH   9  10
ATOM     10  S   UNL     1       1.225   4.141   1.722  0.00  0.00    -0.082 S 
BRANCH  10  11
ATOM     11  C   UNL     1       1.246   5.896   1.563  0.00  0.00    +0.184 A 
ATOM     12  N   UNL     1       1.243   6.572   0.433  0.00  0.00    -0.209 NA
ATOM     13  H   UNL     1       1.263   6.587   3.527  0.00  0.00    +0.191 HD
ATOM     14  C   UNL     1       1.262   7.880   0.692  0.00  0.00    +0.245 A 
ATOM     15  N   UNL     1       1.276   8.060   1.986  0.00  0.00    -0.160 NA
ATOM     16  N   UNL     1       1.261   6.786   2.578  0.00  0.00    -0.254 N 
ENDBRANCH  10  11
ENDBRANCH   9  10
ENDBRANCH   2   9
TORSDOF 4
