REMARK  Name = ZINC09870959
REMARK  8 active torsions:
REMARK  status: ('A' for Active; 'I' for Inactive)
REMARK    1  A    between atoms: C_1  and  C_2
REMARK    2  A    between atoms: C_2  and  C_4
REMARK    3  A    between atoms: C_7  and  O_30
REMARK    4  A    between atoms: C_8  and  C_10
REMARK    5  A    between atoms: C_10  and  N_11
REMARK    6  A    between atoms: C_14  and  C_18
REMARK    7  A    between atoms: C_14  and  C_19
REMARK    8  A    between atoms: O_30  and  C_31
REMARK                            x       y       z     vdW  Elec       q    Type
REMARK                         _______ _______ _______ _____ _____    ______ ____
ROOT
ATOM      1  N   UNL     1      -0.196   7.693   4.787  0.00  0.00    -0.219 N 
ATOM      2  C   UNL     1       0.741   6.786   4.447  0.00  0.00    +0.251 C 
ATOM      3  O   UNL     1       1.455   6.154   5.196  0.00  0.00    -0.272 OA
ATOM      4  C   UNL     1       0.717   6.721   2.933  0.00  0.00    +0.135 C 
ATOM      5  N   UNL     1      -0.327   7.690   2.558  0.00  0.00    -0.281 N 
ATOM      6  C   UNL     1      -0.802   8.205   3.710  0.00  0.00    +0.310 C 
ATOM      7  O   UNL     1      -1.682   9.041   3.764  0.00  0.00    -0.252 OA
ATOM      8  C   UNL     1       2.071   7.137   2.354  0.00  0.00    +0.047 C 
ATOM      9  H   UNL     1      -0.615   7.913   1.659  0.00  0.00    +0.152 HD
ENDROOT
BRANCH   4  10
ATOM     10  C   UNL     1       0.346   5.336   2.467  0.00  0.00    -0.012 A 
ATOM     11  C   UNL     1       0.716   4.235   3.217  0.00  0.00    +0.010 A 
ATOM     12  C   UNL     1       0.380   2.961   2.796  0.00  0.00    +0.050 A 
ATOM     13  C   UNL     1      -0.330   2.792   1.619  0.00  0.00    +0.162 A 
ATOM     14  C   UNL     1      -0.702   3.897   0.867  0.00  0.00    +0.162 A 
ATOM     15  C   UNL     1      -0.364   5.171   1.292  0.00  0.00    +0.055 A 
ATOM     16  O   UNL     1      -1.402   3.720  -0.291  0.00  0.00    -0.488 OA
ATOM     17  C   UNL     1      -0.690   3.098  -1.362  0.00  0.00    +0.232 C 
ATOM     18  C   UNL     1      -0.736   1.583  -1.234  0.00  0.00    +0.082 C 
ATOM     19  C   UNL     1      -0.013   1.086   0.008  0.00  0.00    +0.232 C 
ATOM     20  O   UNL     1      -0.670   1.541   1.193  0.00  0.00    -0.488 OA
ENDBRANCH   4  10
BRANCH   1  21
ATOM     21  C   UNL     1      -0.510   8.072   6.167  0.00  0.00    +0.156 C 
BRANCH  21  26
ATOM     22  C   UNL     1       2.283  10.098   7.726  0.00  0.00    +0.018 A 
ATOM     23  C   UNL     1       1.939  11.394   7.323  0.00  0.00    +0.015 A 
ATOM     24  C   UNL     1       0.824  11.599   6.561  0.00  0.00    +0.046 A 
ATOM     25  C   UNL     1       0.029  10.524   6.180  0.00  0.00    +0.125 A 
ATOM     26  C   UNL     1       0.358   9.233   6.579  0.00  0.00    +0.013 A 
ATOM     27  C   UNL     1       1.480   9.015   7.346  0.00  0.00    +0.020 A 
BRANCH  22  29
ATOM     28  C   UNL     1       4.345  11.041   8.951  0.00  0.00    +0.091 C 
ATOM     29  C   UNL     1       3.482   9.874   8.544  0.00  0.00    +0.160 C 
ATOM     30  O   UNL     1       3.778   8.751   8.893  0.00  0.00    -0.292 OA
ENDBRANCH  22  29
BRANCH  25  31
ATOM     31  O   UNL     1      -1.075  10.736   5.420  0.00  0.00    -0.495 OA
ATOM     32  C   UNL     1      -1.355  12.086   5.045  0.00  0.00    +0.277 C 
ENDBRANCH  25  31
ENDBRANCH  21  26
ENDBRANCH   1  21
TORSDOF 5
