REMARK  Name = ZINC49486347
REMARK  8 active torsions:
REMARK  status: ('A' for Active; 'I' for Inactive)
REMARK    1  A    between atoms: C_3  and  C_6
REMARK    2  A    between atoms: C_6  and  C_8
REMARK    3  A    between atoms: C_6  and  N_21
REMARK    4  A    between atoms: C_8  and  N_9
REMARK    5  A    between atoms: C_10  and  C_12
REMARK    6  A    between atoms: N_14  and  C_15
REMARK    7  A    between atoms: C_15  and  C_16
REMARK    8  A    between atoms: N_24  and  C_27
REMARK                            x       y       z     vdW  Elec       q    Type
REMARK                         _______ _______ _______ _____ _____    ______ ____
ROOT
ATOM      1  C   UNL     1       3.637   0.583   0.019  0.00  0.00    +0.017 C 
ENDROOT
BRANCH   1   2
ATOM      2  N   UNL     1       3.979  -0.575  -0.819  0.00  0.00    +0.389 N 
ATOM      3  C   UNL     1       3.627  -0.288  -2.215  0.00  0.00    -0.059 C 
ATOM      4  C   UNL     1       3.877  -1.534  -3.070  0.00  0.00    +0.086 C 
ATOM      5  N   UNL     1       5.269  -1.966  -2.871  0.00  0.00    -0.333 N 
ATOM      6  C   UNL     1       5.756  -2.121  -1.492  0.00  0.00    +0.086 C 
ATOM      7  C   UNL     1       5.418  -0.847  -0.711  0.00  0.00    -0.059 C 
ATOM      8  H   UNL     1       3.461  -1.381  -0.503  0.00  0.00    -0.081 HD
BRANCH   5   9
ATOM      9  C   UNL     1       6.106  -2.221  -3.962  0.00  0.00    +0.030 A 
ATOM     10  C   UNL     1       7.448  -2.509  -3.756  0.00  0.00    +0.026 A 
ATOM     11  C   UNL     1       8.273  -2.761  -4.835  0.00  0.00    +0.040 A 
ATOM     12  C   UNL     1       7.762  -2.726  -6.121  0.00  0.00    +0.124 A 
ATOM     13  C   UNL     1       6.423  -2.439  -6.329  0.00  0.00    +0.040 A 
ATOM     14  C   UNL     1       5.594  -2.192  -5.253  0.00  0.00    +0.026 A 
ATOM     15  F   UNL     1       8.570  -2.972  -7.175  0.00  0.00    -0.205 F 
ENDBRANCH   5   9
ENDBRANCH   1   2
BRANCH   1  18
ATOM     16  C   UNL     1       0.175   1.828  -0.194  0.00  0.00    +0.041 A 
ATOM     17  C   UNL     1       1.570   2.051  -0.132  0.00  0.00    +0.043 A 
ATOM     18  C   UNL     1       2.155   0.842  -0.063  0.00  0.00    +0.093 A 
ATOM     19  O   UNL     1       1.193  -0.096  -0.081  0.00  0.00    -0.469 OA
ATOM     20  C   UNL     1      -0.009   0.496  -0.160  0.00  0.00    +0.195 A 
ENDBRANCH   1  18
BRANCH   1  21
ATOM     21  C   UNL     1       4.025   0.295   1.470  0.00  0.00    +0.097 C 
BRANCH  21  22
ATOM     22  N   UNL     1       3.398  -0.957   1.904  0.00  0.00    -0.309 N 
ATOM     23  C   UNL     1       3.525  -1.366   3.182  0.00  0.00    +0.299 C 
ATOM     24  O   UNL     1       4.159  -0.699   3.973  0.00  0.00    -0.265 OA
ATOM     25  H   UNL     1       2.892  -1.490   1.272  0.00  0.00    +0.149 HD
BRANCH  23  26
ATOM     26  C   UNL     1       2.886  -2.642   3.624  0.00  0.00    +0.299 C 
ATOM     27  O   UNL     1       2.253  -3.310   2.833  0.00  0.00    -0.265 OA
ATOM     28  N   UNL     1       3.013  -3.052   4.902  0.00  0.00    -0.303 N 
ATOM     29  H   UNL     1       3.519  -2.518   5.535  0.00  0.00    +0.149 HD
BRANCH  28  30
ATOM     30  C   UNL     1       2.386  -4.303   5.336  0.00  0.00    +0.140 C 
BRANCH  30  31
ATOM     31  C   UNL     1       2.677  -4.530   6.797  0.00  0.00    -0.023 A 
ATOM     32  C   UNL     1       3.805  -5.228   7.188  0.00  0.00    +0.013 A 
ATOM     33  C   UNL     1       4.037  -5.414   8.510  0.00  0.00    +0.045 A 
ATOM     34  S   UNL     1       2.636  -4.591   9.251  0.00  0.00    -0.105 S 
ATOM     35  C   UNL     1       1.839  -4.049   7.748  0.00  0.00    +0.050 A 
ENDBRANCH  30  31
ENDBRANCH  28  30
ENDBRANCH  23  26
ENDBRANCH  21  22
ENDBRANCH   1  21
TORSDOF 8
