REMARK  Name = ZINC25389804
REMARK  7 active torsions:
REMARK  status: ('A' for Active; 'I' for Inactive)
REMARK    1  A    between atoms: C_3  and  N_14
REMARK    2  A    between atoms: C_4  and  N_11
REMARK    3  A    between atoms: C_6  and  C_7
REMARK    4  A    between atoms: N_17  and  C_20
REMARK    5  A    between atoms: C_20  and  C_21
REMARK    6  A    between atoms: N_23  and  C_24
REMARK    7  A    between atoms: C_25  and  C_29
REMARK                            x       y       z     vdW  Elec       q    Type
REMARK                         _______ _______ _______ _____ _____    ______ ____
ROOT
ATOM      1  N   UNL     1      -0.870   2.826   3.761  0.00  0.00    -0.332 N 
ATOM      2  C   UNL     1      -0.959   1.364   3.643  0.00  0.00    +0.086 C 
ATOM      3  C   UNL     1      -0.165   0.904   2.418  0.00  0.00    -0.059 C 
ATOM      4  N   UNL     1      -0.700   1.560   1.217  0.00  0.00    +0.387 N 
ATOM      5  C   UNL     1      -0.612   3.022   1.334  0.00  0.00    -0.059 C 
ATOM      6  C   UNL     1      -1.405   3.482   2.559  0.00  0.00    +0.086 C 
ATOM      7  H   UNL     1      -1.763   1.290   1.127  0.00  0.00    -0.081 HD
ENDROOT
BRANCH   1  10
ATOM      8  C   UNL     1      -3.524   3.479   6.218  0.00  0.00    +0.014 A 
ATOM      9  C   UNL     1      -2.881   3.032   5.080  0.00  0.00    +0.026 A 
ATOM     10  C   UNL     1      -1.524   3.277   4.910  0.00  0.00    +0.060 A 
ATOM     11  C   UNL     1      -0.818   3.966   5.888  0.00  0.00    +0.148 A 
ATOM     12  C   UNL     1      -1.468   4.414   7.020  0.00  0.00    +0.047 A 
ATOM     13  C   UNL     1      -2.819   4.169   7.186  0.00  0.00    +0.057 A 
BRANCH  13  14
ATOM     14  C   UNL     1      -3.524   4.655   8.426  0.00  0.00    +0.417 C 
ATOM     15  F   UNL     1      -4.874   4.290   8.368  0.00  0.00    -0.166 F 
ATOM     16  F   UNL     1      -2.933   4.077   9.555  0.00  0.00    -0.166 F 
ATOM     17  F   UNL     1      -3.421   6.048   8.507  0.00  0.00    -0.166 F 
ENDBRANCH  13  14
BRANCH  11  18
ATOM     18  N   UNL     1       0.629   4.223   5.714  0.00  0.00    +0.058 N 
ATOM     19  O   UNL     1       1.248   4.827   6.572  0.00  0.00    -0.126 OA
ATOM     20  O   UNL     1       1.202   3.831   4.712  0.00  0.00    -0.126 OA
ENDBRANCH  11  18
ENDBRANCH   1  10
BRANCH   4  21
ATOM     21  C   UNL     1      -0.013   1.086   0.008  0.00  0.00    +0.019 C 
BRANCH  21  22
ATOM     22  C   UNL     1      -0.742   1.585  -1.213  0.00  0.00    +0.201 C 
ATOM     23  O   UNL     1      -1.736   2.268  -1.088  0.00  0.00    -0.278 OA
ATOM     24  N   UNL     1      -0.288   1.272  -2.443  0.00  0.00    -0.281 N 
ATOM     25  H   UNL     1       0.614   0.653  -2.556  0.00  0.00    +0.155 HD
BRANCH  24  26
ATOM     26  C   UNL     1      -0.959   1.732  -3.566  0.00  0.00    +0.084 A 
ATOM     27  C   UNL     1      -0.646   1.522  -4.904  0.00  0.00    +0.065 A 
ATOM     28  C   UNL     1      -1.528   2.120  -5.878  0.00  0.00    +0.022 A 
ATOM     29  C   UNL     1      -2.567   2.835  -5.410  0.00  0.00    +0.048 A 
ATOM     30  S   UNL     1      -2.385   2.712  -3.642  0.00  0.00    -0.081 S 
BRANCH  27  31
ATOM     31  C   UNL     1       0.519   0.730  -5.307  0.00  0.00    +0.244 C 
ATOM     32  O   UNL     1       1.241   0.236  -4.460  0.00  0.00    -0.270 OA
ATOM     33  N   UNL     1       0.792   0.547  -6.614  0.00  0.00    -0.325 N 
ATOM     34  H   UNL     1       1.667  -0.047  -6.916  0.00  0.00    +0.145 HD
ATOM     35  H   UNL     1       0.140   0.994  -7.379  0.00  0.00    +0.145 HD
ENDBRANCH  27  31
ENDBRANCH  24  26
ENDBRANCH  21  22
ENDBRANCH   4  21
TORSDOF 7
