REMARK  Name = ZINC48707585
REMARK  8 active torsions:
REMARK  status: ('A' for Active; 'I' for Inactive)
REMARK    1  A    between atoms: C_1  and  C_2
REMARK    2  A    between atoms: C_2  and  C_3
REMARK    3  A    between atoms: C_3  and  C_4
REMARK    4  A    between atoms: C_4  and  C_6
REMARK    5  A    between atoms: C_4  and  N_7
REMARK    6  A    between atoms: N_7  and  S_8
REMARK    7  A    between atoms: S_8  and  C_11
REMARK    8  A    between atoms: C_16  and  N_17
REMARK                            x       y       z     vdW  Elec       q    Type
REMARK                         _______ _______ _______ _____ _____    ______ ____
ROOT
ATOM      1  S   UNL     1      -0.944  -3.100  -0.678  0.00  0.00    +0.061 S 
ATOM      2  O   UNL     1      -1.989  -3.889  -1.229  0.00  0.00    -0.153 OA
ATOM      3  O   UNL     1       0.408  -3.225  -1.099  0.00  0.00    -0.153 OA
ENDROOT
BRANCH   1   4
ATOM      4  C   UNL     1      -0.958  -3.386   1.060  0.00  0.00    +0.138 A 
ATOM      5  C   UNL     1       0.234  -3.514   1.749  0.00  0.00    +0.031 A 
ATOM      6  C   UNL     1       0.224  -3.739   3.113  0.00  0.00    +0.005 A 
ATOM      7  C   UNL     1      -0.978  -3.837   3.789  0.00  0.00    +0.041 A 
ATOM      8  C   UNL     1      -2.171  -3.709   3.100  0.00  0.00    +0.155 A 
ATOM      9  C   UNL     1      -2.160  -3.478   1.735  0.00  0.00    +0.187 A 
ATOM     10  F   UNL     1      -3.346  -3.804   3.761  0.00  0.00    -0.203 F 
BRANCH   9  11
ATOM     11  N   UNL     1      -3.436  -3.335   0.998  0.00  0.00    +0.061 N 
ATOM     12  O   UNL     1      -4.101  -4.312   0.746  0.00  0.00    -0.126 OA
ATOM     13  O   UNL     1      -3.812  -2.241   0.648  0.00  0.00    -0.126 OA
ENDBRANCH   9  11
ENDBRANCH   1   4
BRANCH   1  14
ATOM     14  N   UNL     1      -1.369  -1.518  -0.917  0.00  0.00    -0.187 NA
ATOM     15  H   UNL     1      -2.187  -1.302  -1.393  0.00  0.00    +0.148 HD
BRANCH  14  16
ATOM     16  C   UNL     1      -0.511  -0.444  -0.411  0.00  0.00    +0.073 C 
ATOM     17  C   UNL     1       0.433   0.021  -1.521  0.00  0.00    +0.025 C 
BRANCH  16  18
ATOM     18  C   UNL     1      -1.379   0.731   0.045  0.00  0.00    +0.020 C 
BRANCH  18  20
ATOM     19  C   UNL     1      -3.103   1.474   1.694  0.00  0.00    +0.004 C 
ATOM     20  C   UNL     1      -2.235   0.300   1.238  0.00  0.00    -0.002 C 
ENDBRANCH  18  20
ENDBRANCH  16  18
ENDBRANCH  14  16
ENDBRANCH   1  14
TORSDOF 6
