REMARK  Name = ZINC36817729
REMARK  7 active torsions:
REMARK  status: ('A' for Active; 'I' for Inactive)
REMARK    1  A    between atoms: C_1  and  C_2
REMARK    2  A    between atoms: C_2  and  N_3
REMARK    3  A    between atoms: C_7  and  C_9
REMARK    4  A    between atoms: C_9  and  C_11
REMARK    5  A    between atoms: C_9  and  S_12
REMARK    6  A    between atoms: S_12  and  C_13
REMARK    7  A    between atoms: C_23  and  C_27
REMARK                            x       y       z     vdW  Elec       q    Type
REMARK                         _______ _______ _______ _____ _____    ______ ____
ROOT
ATOM      1  C   UNL     1      -6.268  -6.442  -0.294  0.00  0.00    +0.192 A 
ATOM      2  N   UNL     1      -7.170  -5.527   0.042  0.00  0.00    -0.207 NA
ATOM      3  C   UNL     1      -8.437  -5.620  -0.324  0.00  0.00    +0.129 A 
ATOM      4  C   UNL     1      -8.855  -6.734  -1.105  0.00  0.00    +0.051 A 
ATOM      5  C   UNL     1     -10.191  -7.040  -1.622  0.00  0.00    -0.025 A 
ATOM      6  C   UNL     1     -10.324  -8.171  -2.342  0.00  0.00    -0.004 A 
ATOM      7  S   UNL     1      -8.703  -8.890  -2.379  0.00  0.00    -0.073 S 
ATOM      8  C   UNL     1      -7.846  -7.665  -1.424  0.00  0.00    +0.115 A 
ATOM      9  N   UNL     1      -6.600  -7.499  -1.024  0.00  0.00    -0.214 NA
ATOM     10  C   UNL     1     -11.574  -8.703  -2.976  0.00  0.00    +0.046 C 
ATOM     11  C   UNL     1     -12.620  -7.579  -3.001  0.00  0.00    -0.009 C 
ATOM     12  C   UNL     1     -12.673  -6.928  -1.616  0.00  0.00    +0.008 C 
ATOM     13  C   UNL     1     -11.391  -6.133  -1.366  0.00  0.00    +0.037 C 
ATOM     14  C   UNL     1     -13.990  -8.162  -3.352  0.00  0.00    +0.008 C 
ATOM     15  N   UNL     1      -9.345  -4.646   0.047  0.00  0.00    -0.343 N 
ATOM     16  H   UNL     1     -10.201  -4.583  -0.406  0.00  0.00    +0.144 HD
ATOM     17  H   UNL     1      -9.128  -4.027   0.760  0.00  0.00    +0.144 HD
ENDROOT
BRANCH   1  18
ATOM     18  S   UNL     1      -4.598  -6.246   0.233  0.00  0.00    -0.073 S 
BRANCH  18  19
ATOM     19  C   UNL     1      -4.616  -4.699   1.179  0.00  0.00    +0.137 C 
ATOM     20  C   UNL     1      -5.483  -4.875   2.428  0.00  0.00    +0.029 C 
BRANCH  19  25
ATOM     21  N   UNL     1      -1.348  -1.495   2.652  0.00  0.00    -0.299 N 
ATOM     22  C   UNL     1      -1.650  -2.762   2.305  0.00  0.00    +0.306 C 
ATOM     23  O   UNL     1      -0.789  -3.619   2.323  0.00  0.00    -0.252 OA
ATOM     24  N   UNL     1      -2.908  -3.078   1.937  0.00  0.00    -0.239 N 
ATOM     25  C   UNL     1      -3.210  -4.345   1.590  0.00  0.00    +0.233 C 
ATOM     26  O   UNL     1      -2.351  -5.200   1.609  0.00  0.00    -0.274 OA
ATOM     27  H   UNL     1      -2.036  -0.811   2.638  0.00  0.00    +0.150 HD
ATOM     28  H   UNL     1      -3.595  -2.394   1.923  0.00  0.00    +0.159 HD
BRANCH  21  30
ATOM     29  C   UNL     1       0.091   0.338   3.393  0.00  0.00    +0.024 C 
ATOM     30  C   UNL     1       0.019  -1.151   3.051  0.00  0.00    +0.102 C 
ENDBRANCH  21  30
ENDBRANCH  19  25
ENDBRANCH  18  19
ENDBRANCH   1  18
TORSDOF 4
