REMARK  Name = ZINC67106408
REMARK  7 active torsions:
REMARK  status: ('A' for Active; 'I' for Inactive)
REMARK    1  A    between atoms: C_1  and  C_2
REMARK    2  A    between atoms: C_5  and  C_12
REMARK    3  A    between atoms: C_8  and  C_10
REMARK    4  A    between atoms: C_8  and  C_11
REMARK    5  A    between atoms: C_12  and  C_13
REMARK    6  A    between atoms: N_15  and  C_16
REMARK    7  A    between atoms: C_24  and  C_29
REMARK                            x       y       z     vdW  Elec       q    Type
REMARK                         _______ _______ _______ _____ _____    ______ ____
ROOT
ATOM      1  C   UNL     1      -5.501  -2.200  -2.695  0.00  0.00    +0.105 C 
ATOM      2  C   UNL     1      -7.008  -2.141  -2.459  0.00  0.00    +0.027 C 
ATOM      3  C   UNL     1      -7.698  -1.942  -3.815  0.00  0.00    +0.008 C 
ATOM      4  C   UNL     1      -7.533  -3.224  -4.627  0.00  0.00    +0.054 C 
ATOM      5  C   UNL     1      -6.087  -3.653  -4.661  0.00  0.00    +0.024 A 
ATOM      6  C   UNL     1      -5.170  -3.192  -3.780  0.00  0.00    -0.007 A 
ATOM      7  C   UNL     1      -3.844  -3.639  -3.857  0.00  0.00    +0.025 A 
ATOM      8  C   UNL     1      -3.480  -4.551  -4.841  0.00  0.00    +0.101 A 
ATOM      9  C   UNL     1      -4.476  -5.001  -5.747  0.00  0.00    +0.261 A 
ATOM     10  O   UNL     1      -4.192  -5.798  -6.625  0.00  0.00    -0.267 OA
ATOM     11  N   UNL     1      -5.730  -4.542  -5.631  0.00  0.00    -0.325 N 
ATOM     12  H   UNL     1      -6.404  -4.853  -6.255  0.00  0.00    +0.169 HD
ENDROOT
BRANCH   8  13
ATOM     13  C   UNL     1      -2.096  -5.037  -4.942  0.00  0.00    +0.247 C 
ATOM     14  O   UNL     1      -1.231  -4.564  -4.229  0.00  0.00    -0.270 OA
ATOM     15  N   UNL     1      -1.785  -6.007  -5.825  0.00  0.00    -0.325 N 
ATOM     16  H   UNL     1      -2.457  -6.333  -6.444  0.00  0.00    +0.145 HD
ATOM     17  H   UNL     1      -0.889  -6.380  -5.841  0.00  0.00    +0.145 HD
ENDBRANCH   8  13
BRANCH   1  20
ATOM     18  C   UNL     1      -3.554  -2.246  -1.232  0.00  0.00    +0.214 C 
ATOM     19  O   UNL     1      -2.953  -1.592  -2.058  0.00  0.00    -0.276 OA
ATOM     20  N   UNL     1      -4.834  -2.603  -1.455  0.00  0.00    -0.308 N 
ATOM     21  H   UNL     1      -5.314  -3.126  -0.793  0.00  0.00    +0.149 HD
BRANCH  18  22
ATOM     22  C   UNL     1      -2.867  -2.660   0.045  0.00  0.00    +0.099 C 
BRANCH  22  26
ATOM     23  C   UNL     1      -0.037   1.458   0.107  0.00  0.00    +0.007 C 
ATOM     24  C   UNL     1      -0.017  -0.072   0.078  0.00  0.00    -0.013 C 
ATOM     25  C   UNL     1      -1.452  -0.601   0.076  0.00  0.00    +0.007 C 
ATOM     26  C   UNL     1      -1.432  -2.131   0.047  0.00  0.00    -0.002 C 
ATOM     27  C   UNL     1      -0.697  -2.654   1.282  0.00  0.00    +0.010 C 
ATOM     28  C   UNL     1       0.739  -2.125   1.284  0.00  0.00    -0.034 C 
ATOM     29  C   UNL     1       0.718  -0.596   1.313  0.00  0.00    +0.009 C 
ATOM     30  C   UNL     1       1.473  -2.649   2.520  0.00  0.00    +0.011 C 
ATOM     31  C   UNL     1       1.460  -2.602   0.022  0.00  0.00    +0.011 C 
ENDBRANCH  22  26
ENDBRANCH  18  22
ENDBRANCH   1  20
TORSDOF 4
