REMARK  Name = ZINC37486827
REMARK  8 active torsions:
REMARK  status: ('A' for Active; 'I' for Inactive)
REMARK    1  A    between atoms: C_1  and  C_2
REMARK    2  A    between atoms: C_2  and  C_3
REMARK    3  A    between atoms: C_3  and  N_4
REMARK    4  A    between atoms: C_5  and  N_25
REMARK    5  A    between atoms: C_6  and  N_13
REMARK    6  A    between atoms: N_13  and  C_14
REMARK    7  A    between atoms: C_19  and  C_24
REMARK    8  A    between atoms: C_21  and  C_23
REMARK                            x       y       z     vdW  Elec       q    Type
REMARK                         _______ _______ _______ _____ _____    ______ ____
ROOT
ATOM      1  N   UNL     1       0.840  -1.978  -1.463  0.00  0.00    -0.281 N 
ATOM      2  C   UNL     1       1.827  -2.644  -0.773  0.00  0.00    +0.127 A 
ATOM      3  C   UNL     1       1.853  -4.012  -0.792  0.00  0.00    +0.131 A 
ATOM      4  C   UNL     1       0.866  -4.703  -1.518  0.00  0.00    +0.277 A 
ATOM      5  O   UNL     1       0.868  -5.922  -1.549  0.00  0.00    -0.266 OA
ATOM      6  N   UNL     1      -0.081  -4.009  -2.179  0.00  0.00    -0.273 N 
ATOM      7  H   UNL     1      -0.763  -4.484  -2.680  0.00  0.00    +0.173 HD
ATOM      8  C   UNL     1      -0.095  -2.664  -2.146  0.00  0.00    +0.331 A 
ATOM      9  O   UNL     1      -0.963  -2.060  -2.746  0.00  0.00    -0.246 OA
ENDROOT
BRANCH   2  10
ATOM     10  N   UNL     1       2.779  -1.940  -0.072  0.00  0.00    -0.343 N 
ATOM     11  H   UNL     1       2.757  -0.971  -0.062  0.00  0.00    +0.144 HD
ATOM     12  H   UNL     1       3.473  -2.414   0.413  0.00  0.00    +0.144 HD
ENDBRANCH   2  10
BRANCH   3  13
ATOM     13  N   UNL     1       2.857  -4.720  -0.092  0.00  0.00    -0.334 N 
ATOM     14  H   UNL     1       3.581  -4.238   0.337  0.00  0.00    +0.147 HD
BRANCH  13  15
ATOM     15  C   UNL     1       2.803  -6.182  -0.014  0.00  0.00    +0.074 C 
ATOM     16  C   UNL     1       3.441  -6.784  -1.268  0.00  0.00    +0.022 C 
ATOM     17  C   UNL     1       3.384  -8.310  -1.187  0.00  0.00    +0.002 C 
ATOM     18  C   UNL     1       4.148  -8.784   0.052  0.00  0.00    +0.003 C 
ATOM     19  C   UNL     1       3.510  -8.183   1.305  0.00  0.00    -0.009 C 
ATOM     20  C   UNL     1       3.566  -6.656   1.224  0.00  0.00    +0.009 C 
ATOM     21  C   UNL     1       2.928  -6.054   2.478  0.00  0.00    +0.009 C 
ATOM     22  C   UNL     1       4.274  -8.656   2.544  0.00  0.00    +0.008 C 
ENDBRANCH  13  15
ENDBRANCH   3  13
BRANCH   1  23
ATOM     23  C   UNL     1       0.802  -0.513  -1.450  0.00  0.00    +0.128 C 
BRANCH  23  25
ATOM     24  C   UNL     1      -0.085   1.494  -0.255  0.00  0.00    +0.005 C 
ATOM     25  C   UNL     1      -0.046  -0.036  -0.269  0.00  0.00    +0.018 C 
ENDBRANCH  23  25
ENDBRANCH   1  23
TORSDOF 5
