REMARK  Name = ZINC20699608
REMARK  6 active torsions:
REMARK  status: ('A' for Active; 'I' for Inactive)
REMARK    1  A    between atoms: C_1  and  C_2
REMARK    2  A    between atoms: C_2  and  C_3
REMARK    3  A    between atoms: C_3  and  N_4
REMARK    4  A    between atoms: N_4  and  S_5
REMARK    5  A    between atoms: S_5  and  C_8
REMARK    6  A    between atoms: C_21  and  C_24
REMARK                            x       y       z     vdW  Elec       q    Type
REMARK                         _______ _______ _______ _____ _____    ______ ____
ROOT
ATOM      1  C   UNL     1      -5.236   3.229   1.975  0.00  0.00    +0.106 A 
ATOM      2  C   UNL     1      -4.964   3.200   3.331  0.00  0.00    +0.030 A 
ATOM      3  C   UNL     1      -3.812   2.600   3.794  0.00  0.00    +0.025 A 
ATOM      4  C   UNL     1      -2.915   2.021   2.903  0.00  0.00    +0.031 A 
ATOM      5  C   UNL     1      -3.204   2.044   1.532  0.00  0.00    -0.018 A 
ATOM      6  C   UNL     1      -4.354   2.651   1.081  0.00  0.00    +0.034 A 
ATOM      7  C   UNL     1      -2.234   1.398   0.620  0.00  0.00    +0.049 C 
ATOM      8  C   UNL     1      -2.088   1.820  -0.796  0.00  0.00    -0.023 C 
ATOM      9  C   UNL     1      -0.827   1.630  -1.167  0.00  0.00    -0.030 C 
ATOM     10  C   UNL     1      -0.013   1.086   0.008  0.00  0.00    +0.033 C 
ATOM     11  C   UNL     1      -0.807   1.618   1.208  0.00  0.00    +0.029 C 
ATOM     12  C   UNL     1      -0.764   0.800   2.486  0.00  0.00    +0.105 C 
ATOM     13  N   UNL     1      -1.744   1.433   3.396  0.00  0.00    -0.336 N 
ATOM     14  H   UNL     1      -1.559   1.446   4.480  0.00  0.00    +0.147 HD
ENDROOT
BRANCH  12  15
ATOM     15  C   UNL     1       0.615   0.850   3.091  0.00  0.00    -0.027 A 
ATOM     16  C   UNL     1       1.007   1.952   3.828  0.00  0.00    +0.007 A 
ATOM     17  C   UNL     1       2.270   1.996   4.388  0.00  0.00    +0.020 A 
ATOM     18  C   UNL     1       3.147   0.942   4.200  0.00  0.00    +0.041 A 
ATOM     19  C   UNL     1       2.756  -0.158   3.456  0.00  0.00    +0.020 A 
ATOM     20  C   UNL     1       1.491  -0.203   2.902  0.00  0.00    +0.007 A 
ATOM     21 CL   UNL     1       4.736   1.000   4.895  0.00  0.00    -0.084 Cl
ENDBRANCH  12  15
BRANCH   1  22
ATOM     22  S   UNL     1      -6.706   4.003   1.387  0.00  0.00    +0.058 S 
ATOM     23  O   UNL     1      -6.997   3.417   0.126  0.00  0.00    -0.153 OA
ATOM     24  O   UNL     1      -7.632   3.989   2.465  0.00  0.00    -0.153 OA
BRANCH  22  25
ATOM     25  N   UNL     1      -6.341   5.592   1.098  0.00  0.00    -0.190 NA
ATOM     26  H   UNL     1      -6.693   6.361   1.801  0.00  0.00    +0.148 HD
BRANCH  25  27
ATOM     27  C   UNL     1      -5.381   5.944   0.049  0.00  0.00    +0.105 C 
BRANCH  27  29
ATOM     28  C   UNL     1      -4.495   7.804  -1.365  0.00  0.00    +0.005 C 
ATOM     29  C   UNL     1      -5.497   7.436  -0.269  0.00  0.00    +0.013 C 
ENDBRANCH  27  29
ENDBRANCH  25  27
ENDBRANCH  22  25
ENDBRANCH   1  22
TORSDOF 5
