REMARK  Name = ZINC09041344
REMARK  7 active torsions:
REMARK  status: ('A' for Active; 'I' for Inactive)
REMARK    1  A    between atoms: C_1  and  C_2
REMARK    2  A    between atoms: C_2  and  N_49
REMARK    3  A    between atoms: C_15  and  C_17
REMARK    4  A    between atoms: C_18  and  O_28
REMARK    5  A    between atoms: C_20  and  O_27
REMARK    6  A    between atoms: N_21  and  C_24
REMARK    7  A    between atoms: C_24  and  C_25
REMARK                            x       y       z     vdW  Elec       q    Type
REMARK                         _______ _______ _______ _____ _____    ______ ____
ROOT
ATOM      1  C   UNL     1       1.200   5.853   4.299  0.00  0.00    -0.073 C 
ATOM      2  C   UNL     1       1.155   6.826   3.113  0.00  0.00    +0.019 C 
ATOM      3  C   UNL     1      -0.182   6.671   2.433  0.00  0.00    -0.022 A 
ATOM      4  C   UNL     1      -0.835   7.545   1.484  0.00  0.00    +0.003 A 
ATOM      5  C   UNL     1      -0.468   8.763   0.904  0.00  0.00    +0.010 A 
ATOM      6  C   UNL     1      -1.358   9.325   0.023  0.00  0.00    +0.001 A 
ATOM      7  C   UNL     1      -2.567   8.724  -0.286  0.00  0.00    +0.002 A 
ATOM      8  C   UNL     1      -2.956   7.519   0.272  0.00  0.00    +0.026 A 
ATOM      9  C   UNL     1      -2.072   6.925   1.171  0.00  0.00    +0.047 A 
ATOM     10  N   UNL     1      -2.139   5.764   1.887  0.00  0.00    -0.359 N 
ATOM     11  H   UNL     1      -2.879   5.137   1.866  0.00  0.00    +0.166 HD
ATOM     12  C   UNL     1      -1.005   5.618   2.639  0.00  0.00    +0.011 A 
ATOM     13  C   UNL     1      -0.668   4.479   3.572  0.00  0.00    +0.021 C 
ATOM     14  N   UNL     1       0.791   4.510   3.826  0.00  0.00    +0.388 N 
ATOM     15  H   UNL     1       1.286   4.301   2.951  0.00  0.00    -0.080 HD
ENDROOT
BRANCH  13  16
ATOM     16  C   UNL     1      -1.022   3.168   2.919  0.00  0.00    +0.071 A 
ATOM     17  C   UNL     1      -2.016   2.363   3.447  0.00  0.00    +0.224 A 
ATOM     18  N   UNL     1      -2.316   1.202   2.853  0.00  0.00    -0.161 NA
ATOM     19  C   UNL     1      -1.682   0.807   1.772  0.00  0.00    +0.302 A 
ATOM     20  N   UNL     1      -0.698   1.558   1.213  0.00  0.00    -0.259 N 
ATOM     21  C   UNL     1      -0.348   2.737   1.770  0.00  0.00    +0.262 A 
ATOM     22  O   UNL     1       0.538   3.417   1.277  0.00  0.00    -0.267 OA
BRANCH  19  23
ATOM     23  O   UNL     1      -2.016  -0.371   1.206  0.00  0.00    -0.479 OA
ATOM     24  H   UNL     1      -2.720  -0.879   1.631  0.00  0.00    +0.295 HD
ENDBRANCH  19  23
BRANCH  17  25
ATOM     25  O   UNL     1      -2.684   2.749   4.559  0.00  0.00    -0.492 OA
ATOM     26  H   UNL     1      -3.359   2.121   4.851  0.00  0.00    +0.294 HD
ENDBRANCH  17  25
BRANCH  20  27
ATOM     27  C   UNL     1      -0.013   1.086   0.008  0.00  0.00    +0.156 C 
BRANCH  27  28
ATOM     28  C   UNL     1      -0.742   1.585  -1.213  0.00  0.00    -0.013 C 
ATOM     29  C   UNL     1      -0.098   2.269  -2.126  0.00  0.00    +0.005 C 
ENDBRANCH  27  28
ENDBRANCH  20  27
ENDBRANCH  13  16
BRANCH  14  31
ATOM     30  C   UNL     1       2.674   3.393   4.915  0.00  0.00    -0.017 C 
ATOM     31  C   UNL     1       1.150   3.491   4.834  0.00  0.00    -0.081 C 
ENDBRANCH  14  31
TORSDOF 6
