REMARK  Name = ZINC35453275
REMARK  4 active torsions:
REMARK  status: ('A' for Active; 'I' for Inactive)
REMARK    1  A    between atoms: C_1  and  C_2
REMARK    2  A    between atoms: C_7  and  N_10
REMARK    3  A    between atoms: N_10  and  C_11
REMARK    4  A    between atoms: C_16  and  N_17
REMARK                            x       y       z     vdW  Elec       q    Type
REMARK                         _______ _______ _______ _____ _____    ______ ____
ROOT
ATOM      1  C   UNL     1       2.057  -3.777   0.017  0.00  0.00    +0.050 A 
ATOM      2  C   UNL     1       2.005  -4.581   1.146  0.00  0.00    +0.051 A 
ATOM      3  C   UNL     1       2.608  -5.829   1.132  0.00  0.00    +0.078 A 
ATOM      4  C   UNL     1       3.265  -6.276  -0.013  0.00  0.00    +0.144 A 
ATOM      5  C   UNL     1       3.317  -5.474  -1.140  0.00  0.00    +0.072 A 
ATOM      6  C   UNL     1       2.710  -4.226  -1.130  0.00  0.00    +0.049 A 
ATOM      7  O   UNL     1       3.854  -7.503  -0.010  0.00  0.00    -0.481 OA
ATOM      8  C   UNL     1       4.402  -7.950   1.233  0.00  0.00    +0.325 C 
ATOM      9  C   UNL     1       3.409  -7.709   2.341  0.00  0.00    +0.255 C 
ATOM     10  O   UNL     1       3.368  -8.455   3.296  0.00  0.00    -0.272 OA
ATOM     11  N   UNL     1       2.564  -6.657   2.265  0.00  0.00    -0.280 N 
ATOM     12  H   UNL     1       1.936  -6.477   2.983  0.00  0.00    +0.155 HD
ENDROOT
BRANCH   6  13
ATOM     13  N   UNL     1       2.757  -3.415  -2.272  0.00  0.00    -0.356 N 
ATOM     14  H   UNL     1       2.336  -2.541  -2.264  0.00  0.00    +0.142 HD
ATOM     15  H   UNL     1       3.211  -3.727  -3.071  0.00  0.00    +0.142 HD
ENDBRANCH   6  13
BRANCH   1  16
ATOM     16  N   UNL     1       1.448  -2.513   0.028  0.00  0.00    -0.340 N 
ATOM     17  H   UNL     1       1.482  -1.952  -0.763  0.00  0.00    +0.146 HD
BRANCH  16  23
ATOM     18  C   UNL     1      -0.019   1.526   0.010  0.00  0.00    +0.007 C 
ATOM     19  C   UNL     1       0.002  -0.004   0.002  0.00  0.00    -0.012 C 
ATOM     20  C   UNL     1      -1.433  -0.534   0.013  0.00  0.00    +0.003 C 
ATOM     21  C   UNL     1      -1.413  -2.063   0.004  0.00  0.00    +0.002 C 
ATOM     22  C   UNL     1      -0.673  -2.570   1.244  0.00  0.00    +0.022 C 
ATOM     23  C   UNL     1       0.763  -2.041   1.233  0.00  0.00    +0.071 C 
ATOM     24  C   UNL     1       0.742  -0.511   1.242  0.00  0.00    +0.025 C 
ENDBRANCH  16  23
ENDBRANCH   1  16
TORSDOF 3
