REMARK  Name = ZINC49095542
REMARK  6 active torsions:
REMARK  status: ('A' for Active; 'I' for Inactive)
REMARK    1  A    between atoms: C_1  and  C_2
REMARK    2  A    between atoms: C_2  and  C_4
REMARK    3  A    between atoms: C_2  and  N_8
REMARK    4  A    between atoms: N_6  and  C_7
REMARK    5  A    between atoms: C_9  and  C_11
REMARK    6  A    between atoms: C_15  and  N_20
REMARK                            x       y       z     vdW  Elec       q    Type
REMARK                         _______ _______ _______ _____ _____    ______ ____
ROOT
ATOM      1  C   UNL     1      -3.430  -1.151  -1.134  0.00  0.00    +0.075 A 
ATOM      2  C   UNL     1      -4.265  -1.357  -2.187  0.00  0.00    +0.029 A 
ATOM      3  C   UNL     1      -5.562  -1.856  -1.967  0.00  0.00    -0.008 A 
ATOM      4  C   UNL     1      -6.570  -2.134  -2.927  0.00  0.00    +0.031 A 
ATOM      5  C   UNL     1      -7.792  -2.621  -2.532  0.00  0.00    +0.025 A 
ATOM      6  C   UNL     1      -8.078  -2.856  -1.186  0.00  0.00    +0.024 A 
ATOM      7  C   UNL     1      -7.126  -2.598  -0.237  0.00  0.00    +0.017 A 
ATOM      8  C   UNL     1      -5.894  -2.109  -0.616  0.00  0.00    +0.020 A 
ATOM      9  S   UNL     1      -4.418  -1.659   0.263  0.00  0.00    -0.084 S 
ENDROOT
BRANCH   1  11
ATOM     10  N   UNL     1      -1.372  -0.511   0.012  0.00  0.00    -0.300 N 
ATOM     11  C   UNL     1      -2.051  -0.643  -1.145  0.00  0.00    +0.251 C 
ATOM     12  O   UNL     1      -1.522  -0.340  -2.198  0.00  0.00    -0.270 OA
ATOM     13  H   UNL     1      -1.794  -0.752   0.852  0.00  0.00    +0.150 HD
BRANCH  10  15
ATOM     14  C   UNL     1      -0.019   1.526   0.010  0.00  0.00    +0.038 C 
ATOM     15  C   UNL     1       0.002  -0.004   0.002  0.00  0.00    +0.156 C 
BRANCH  15  16
ATOM     16  C   UNL     1       0.731  -0.503   1.223  0.00  0.00    +0.233 C 
ATOM     17  O   UNL     1       0.159  -1.213   2.023  0.00  0.00    -0.274 OA
ATOM     18  N   UNL     1       2.019  -0.161   1.426  0.00  0.00    -0.317 N 
ATOM     19  C   UNL     1       2.727  -0.647   2.613  0.00  0.00    +0.128 C 
ATOM     20  H   UNL     1       2.476   0.406   0.786  0.00  0.00    +0.148 HD
ENDBRANCH  15  16
ENDBRANCH  10  15
ENDBRANCH   1  11
BRANCH   5  21
ATOM     21  N   UNL     1      -8.769  -2.887  -3.497  0.00  0.00    -0.358 N 
ATOM     22  H   UNL     1      -8.581  -2.727  -4.435  0.00  0.00    +0.142 HD
ATOM     23  H   UNL     1      -9.636  -3.231  -3.229  0.00  0.00    +0.142 HD
ENDBRANCH   5  21
TORSDOF 4
