REMARK  Name = ZINC45162412
REMARK  9 active torsions:
REMARK  status: ('A' for Active; 'I' for Inactive)
REMARK    1  A    between atoms: C_1  and  S_2
REMARK    2  A    between atoms: S_2  and  C_3
REMARK    3  A    between atoms: C_3  and  C_4
REMARK    4  A    between atoms: C_4  and  C_5
REMARK    5  A    between atoms: C_5  and  C_7
REMARK    6  A    between atoms: C_5  and  N_25
REMARK    7  A    between atoms: N_9  and  C_10
REMARK    8  A    between atoms: C_14  and  S_16
REMARK    9  A    between atoms: S_16  and  N_19
REMARK                            x       y       z     vdW  Elec       q    Type
REMARK                         _______ _______ _______ _____ _____    ______ ____
ROOT
ATOM      1  C   UNL     1      -0.009  -3.601  -4.570  0.00  0.00    +0.238 C 
ATOM      2  O   UNL     1      -0.546  -4.091  -5.540  0.00  0.00    -0.273 OA
ATOM      3  N   UNL     1       0.587  -4.394  -3.657  0.00  0.00    -0.284 N 
ATOM      4  H   UNL     1       1.082  -4.000  -2.921  0.00  0.00    +0.155 HD
ENDROOT
BRANCH   3   5
ATOM      5  C   UNL     1       0.491  -5.785  -3.770  0.00  0.00    +0.035 A 
ATOM      6  C   UNL     1       1.543  -6.591  -3.353  0.00  0.00    +0.023 A 
ATOM      7  C   UNL     1       1.446  -7.964  -3.466  0.00  0.00    +0.004 A 
ATOM      8  C   UNL     1       0.302  -8.537  -3.994  0.00  0.00    +0.028 A 
ATOM      9  C   UNL     1      -0.746  -7.737  -4.409  0.00  0.00    +0.107 A 
ATOM     10  C   UNL     1      -0.658  -6.364  -4.293  0.00  0.00    +0.051 A 
BRANCH   9  11
ATOM     11  S   UNL     1      -2.200  -8.472  -5.081  0.00  0.00    +0.061 S 
ATOM     12  O   UNL     1      -2.813  -7.484  -5.899  0.00  0.00    -0.153 OA
ATOM     13  O   UNL     1      -1.818  -9.745  -5.582  0.00  0.00    -0.153 OA
BRANCH  11  14
ATOM     14  N   UNL     1      -3.236  -8.750  -3.819  0.00  0.00    -0.177 NA
ATOM     15  C   UNL     1      -3.194 -10.022  -3.084  0.00  0.00    +0.109 C 
ATOM     16  C   UNL     1      -3.040  -9.722  -1.589  0.00  0.00    +0.017 C 
ATOM     17  C   UNL     1      -4.157  -8.775  -1.145  0.00  0.00    +0.003 C 
ATOM     18  C   UNL     1      -4.047  -7.457  -1.915  0.00  0.00    +0.017 C 
ATOM     19  C   UNL     1      -4.209  -7.729  -3.410  0.00  0.00    +0.109 C 
ENDBRANCH  11  14
ENDBRANCH   9  11
ENDBRANCH   3   5
BRANCH   1  20
ATOM     20  C   UNL     1      -0.008  -2.106  -4.384  0.00  0.00    +0.161 C 
BRANCH  20  21
ATOM     21  N   UNL     1      -1.077  -1.512  -5.192  0.00  0.00    -0.288 N 
ATOM     22  C   UNL     1      -1.079  -1.675  -6.530  0.00  0.00    +0.298 C 
ATOM     23  O   UNL     1      -0.195  -2.313  -7.067  0.00  0.00    -0.253 OA
ATOM     24  N   UNL     1      -2.062  -1.129  -7.273  0.00  0.00    -0.313 N 
ATOM     25  H   UNL     1      -1.782  -1.003  -4.764  0.00  0.00    +0.151 HD
ATOM     26  H   UNL     1      -2.768  -0.620  -6.845  0.00  0.00    +0.146 HD
ATOM     27  H   UNL     1      -2.064  -1.246  -8.236  0.00  0.00    +0.146 HD
ENDBRANCH  20  21
BRANCH  20  28
ATOM     28  C   UNL     1       1.342  -1.538  -4.828  0.00  0.00    +0.042 C 
BRANCH  28  29
ATOM     29  C   UNL     1       1.389  -0.039  -4.524  0.00  0.00    +0.071 C 
BRANCH  29  31
ATOM     30  C   UNL     1       2.885   2.395  -4.627  0.00  0.00    +0.084 C 
ATOM     31  S   UNL     1       2.989   0.634  -5.051  0.00  0.00    -0.164 S 
ENDBRANCH  29  31
ENDBRANCH  28  29
ENDBRANCH  20  28
ENDBRANCH   1  20
TORSDOF 8
