REMARK  Name = ZINC42740711
REMARK  4 active torsions:
REMARK  status: ('A' for Active; 'I' for Inactive)
REMARK    1  A    between atoms: C_1  and  C_2
REMARK    2  A    between atoms: C_7  and  N_10
REMARK    3  A    between atoms: C_11  and  C_13
REMARK    4  A    between atoms: C_13  and  C_14
REMARK                            x       y       z     vdW  Elec       q    Type
REMARK                         _______ _______ _______ _____ _____    ______ ____
ROOT
ATOM      1  N   UNL     1       1.471  -2.526   2.420  0.00  0.00    -0.312 N 
ATOM      2  C   UNL     1       1.207  -3.754   2.907  0.00  0.00    +0.215 C 
ATOM      3  O   UNL     1       0.382  -4.458   2.364  0.00  0.00    -0.276 OA
ATOM      4  H   UNL     1       2.131  -1.963   2.855  0.00  0.00    +0.149 HD
ENDROOT
BRANCH   1  10
ATOM      5  C   UNL     1      -0.019   1.526   0.010  0.00  0.00    +0.007 C 
ATOM      6  C   UNL     1       0.002  -0.004   0.002  0.00  0.00    -0.012 C 
ATOM      7  C   UNL     1       0.718  -0.497  -1.257  0.00  0.00    +0.003 C 
ATOM      8  C   UNL     1       0.739  -2.027  -1.265  0.00  0.00    +0.002 C 
ATOM      9  C   UNL     1       1.479  -2.534  -0.026  0.00  0.00    +0.022 C 
ATOM     10  C   UNL     1       0.763  -2.041   1.233  0.00  0.00    +0.073 C 
ATOM     11  C   UNL     1       0.742  -0.511   1.242  0.00  0.00    +0.025 C 
ENDBRANCH   1  10
BRANCH   2  12
ATOM     12  C   UNL     1       1.936  -4.254   4.128  0.00  0.00    +0.127 C 
BRANCH  12  13
ATOM     13  C   UNL     1       1.453  -5.665   4.469  0.00  0.00    +0.169 C 
ATOM     14  C   UNL     1       2.144  -6.178   5.716  0.00  0.00    +0.241 C 
ATOM     15  O   UNL     1       2.093  -5.703   6.831  0.00  0.00    -0.273 OA
ATOM     16  N   UNL     1       2.828  -7.274   5.329  0.00  0.00    -0.239 N 
ATOM     17  C   UNL     1       2.665  -7.521   4.024  0.00  0.00    +0.307 C 
ATOM     18  O   UNL     1       3.183  -8.455   3.444  0.00  0.00    -0.252 OA
ATOM     19  N   UNL     1       1.862  -6.619   3.424  0.00  0.00    -0.287 N 
ATOM     20  H   UNL     1       3.370  -7.816   5.923  0.00  0.00    +0.159 HD
ATOM     21  H   UNL     1       1.603  -6.601   2.490  0.00  0.00    +0.151 HD
ENDBRANCH  12  13
ENDBRANCH   2  12
TORSDOF 3
