REMARK  Name = ZINC64391485
REMARK  7 active torsions:
REMARK  status: ('A' for Active; 'I' for Inactive)
REMARK    1  A    between atoms: C_1  and  C_2
REMARK    2  A    between atoms: N_14  and  C_17
REMARK    3  A    between atoms: C_17  and  C_18
REMARK    4  A    between atoms: C_18  and  C_19
REMARK    5  A    between atoms: N_21  and  C_22
REMARK    6  A    between atoms: C_22  and  C_23
REMARK    7  A    between atoms: C_23  and  C_24
REMARK                            x       y       z     vdW  Elec       q    Type
REMARK                         _______ _______ _______ _____ _____    ______ ____
ROOT
ATOM      1  C   UNL     1       1.846  -6.183   4.202  0.00  0.00    +0.124 C 
ENDROOT
BRANCH   1  14
ATOM      2  C   UNL     1      -0.018   1.503   0.010  0.00  0.00    +0.044 C 
ATOM      3  C   UNL     1       0.002  -0.004   0.002  0.00  0.00    -0.050 A 
ATOM      4  C   UNL     1       0.005  -0.679  -1.221  0.00  0.00    +0.005 A 
ATOM      5  C   UNL     1       0.019  -2.033  -1.288  0.00  0.00    +0.026 A 
ATOM      6  C   UNL     1       0.028  -2.801  -0.098  0.00  0.00    +0.045 A 
ATOM      7  N   UNL     1       0.083  -4.111   0.101  0.00  0.00    -0.368 N 
ATOM      8  C   UNL     1      -0.094  -4.363   1.516  0.00  0.00    +0.216 C 
ATOM      9  C   UNL     1       0.068  -3.025   2.208  0.00  0.00    +0.083 C 
ATOM     10  C   UNL     1       0.037  -2.084   1.193  0.00  0.00    +0.022 A 
ATOM     11  C   UNL     1       0.022  -0.673   1.183  0.00  0.00    +0.015 A 
ATOM     12  N   UNL     1       0.361  -2.914   3.498  0.00  0.00    -0.241 NA
ATOM     13  C   UNL     1       0.816  -3.984   4.119  0.00  0.00    +0.191 C 
ATOM     14  N   UNL     1       1.151  -5.125   3.465  0.00  0.00    -0.260 N 
ATOM     15  C   UNL     1       0.879  -5.303   2.158  0.00  0.00    +0.249 C 
ATOM     16  O   UNL     1       1.395  -6.205   1.534  0.00  0.00    -0.273 OA
ATOM     17  H   UNL     1       0.218  -4.784  -0.584  0.00  0.00    +0.161 HD
ENDBRANCH   1  14
BRANCH   1  18
ATOM     18  C   UNL     1       0.818  -7.132   4.821  0.00  0.00    +0.115 C 
BRANCH  18  19
ATOM     19  C   UNL     1       1.533  -8.221   5.579  0.00  0.00    +0.215 C 
ATOM     20  O   UNL     1       2.745  -8.236   5.620  0.00  0.00    -0.276 OA
ATOM     21  N   UNL     1       0.826  -9.178   6.212  0.00  0.00    -0.315 N 
ATOM     22  H   UNL     1      -0.144  -9.166   6.179  0.00  0.00    +0.149 HD
BRANCH  21  23
ATOM     23  C   UNL     1       1.520 -10.237   6.949  0.00  0.00    +0.108 C 
BRANCH  23  24
ATOM     24  C   UNL     1       0.493 -11.186   7.568  0.00  0.00    +0.052 C 
BRANCH  24  25
ATOM     25  C   UNL     1       1.208 -12.275   8.326  0.00  0.00    -0.040 C 
ATOM     26  C   UNL     1       1.483 -12.298   9.650  0.00  0.00    -0.001 A 
ATOM     27  C   UNL     1       1.212 -11.351  10.739  0.00  0.00    +0.010 A 
ATOM     28  C   UNL     1       1.620 -11.657  11.991  0.00  0.00    +0.001 A 
ATOM     29  C   UNL     1       2.296 -12.852  12.274  0.00  0.00    +0.002 A 
ATOM     30  C   UNL     1       2.581 -13.771  11.327  0.00  0.00    +0.026 A 
ATOM     31  C   UNL     1       2.197 -13.553   9.976  0.00  0.00    +0.043 A 
ATOM     32  N   UNL     1       2.357 -14.278   8.895  0.00  0.00    -0.380 N 
ATOM     33  C   UNL     1       1.756 -13.566   7.761  0.00  0.00    +0.144 C 
ATOM     34  H   UNL     1       2.796 -15.142   8.853  0.00  0.00    +0.160 HD
ENDBRANCH  24  25
ENDBRANCH  23  24
ENDBRANCH  21  23
ENDBRANCH  18  19
ENDBRANCH   1  18
TORSDOF 6
