REMARK  Name = ZINC10271817
REMARK  11 active torsions:
REMARK  status: ('A' for Active; 'I' for Inactive)
REMARK    1  A    between atoms: C_1  and  C_2
REMARK    2  A    between atoms: N_9  and  O_10
REMARK    3  A    between atoms: O_10  and  C_11
REMARK    4  A    between atoms: C_13  and  N_26
REMARK    5  A    between atoms: C_15  and  O_25
REMARK    6  A    between atoms: C_17  and  O_24
REMARK    7  A    between atoms: C_19  and  C_22
REMARK    8  A    between atoms: C_22  and  O_23
REMARK    9  A    between atoms: C_27  and  C_29
REMARK   10  A    between atoms: N_32  and  C_33
REMARK   11  A    between atoms: C_33  and  C_34
REMARK                            x       y       z     vdW  Elec       q    Type
REMARK                         _______ _______ _______ _____ _____    ______ ____
ROOT
ATOM      1  C   UNL     1      -4.129   6.873  -1.630  0.00  0.00    +0.044 C 
ATOM      2  C   UNL     1      -3.720   6.176  -2.901  0.00  0.00    -0.050 A 
ATOM      3  C   UNL     1      -3.637   6.889  -4.085  0.00  0.00    +0.005 A 
ATOM      4  C   UNL     1      -3.263   6.264  -5.258  0.00  0.00    +0.024 A 
ATOM      5  C   UNL     1      -2.965   4.906  -5.261  0.00  0.00    +0.046 A 
ATOM      6  C   UNL     1      -3.056   4.188  -4.062  0.00  0.00    +0.030 A 
ATOM      7  C   UNL     1      -3.428   4.827  -2.885  0.00  0.00    +0.015 A 
ATOM      8  C   UNL     1      -2.679   2.790  -4.381  0.00  0.00    +0.174 C 
ATOM      9  N   UNL     1      -2.622   1.776  -3.565  0.00  0.00    -0.076 NA
ATOM     10  C   UNL     1      -2.387   2.797  -5.838  0.00  0.00    +0.273 C 
ATOM     11  O   UNL     1      -2.043   1.841  -6.505  0.00  0.00    -0.268 OA
ATOM     12  N   UNL     1      -2.571   4.051  -6.286  0.00  0.00    -0.261 N 
ENDROOT
BRANCH   9  13
ATOM     13  O   UNL     1      -2.937   1.952  -2.196  0.00  0.00    -0.359 OA
BRANCH  13  14
ATOM     14  C   UNL     1      -2.833   0.758  -1.418  0.00  0.00    +0.360 C 
ATOM     15  C   UNL     1      -2.449   1.117   0.020  0.00  0.00    +0.175 C 
ATOM     16  C   UNL     1      -3.556   1.977   0.637  0.00  0.00    +0.172 C 
ATOM     17  C   UNL     1      -4.882   1.213   0.563  0.00  0.00    +0.176 C 
ATOM     18  C   UNL     1      -5.173   0.852  -0.896  0.00  0.00    +0.179 C 
ATOM     19  O   UNL     1      -4.090   0.079  -1.419  0.00  0.00    -0.330 OA
BRANCH  15  20
ATOM     20  N   UNL     1      -1.191   1.867   0.018  0.00  0.00    -0.304 N 
ATOM     21  C   UNL     1      -0.014   1.209   0.009  0.00  0.00    +0.210 C 
ATOM     22  O   UNL     1       0.002  -0.004   0.002  0.00  0.00    -0.276 OA
ATOM     23  C   UNL     1       1.280   1.980   0.001  0.00  0.00    +0.109 C 
ATOM     24  H   UNL     1      -1.204   2.837   0.023  0.00  0.00    +0.149 HD
ENDBRANCH  15  20
BRANCH  17  25
ATOM     25  O   UNL     1      -4.790   0.019   1.341  0.00  0.00    -0.387 OA
ATOM     26  H   UNL     1      -5.596  -0.515   1.339  0.00  0.00    +0.210 HD
ENDBRANCH  17  25
BRANCH  16  27
ATOM     27  O   UNL     1      -3.240   2.256   2.002  0.00  0.00    -0.387 OA
ATOM     28  H   UNL     1      -3.900   2.798   2.456  0.00  0.00    +0.210 HD
ENDBRANCH  16  27
BRANCH  18  29
ATOM     29  C   UNL     1      -6.465   0.037  -0.972  0.00  0.00    +0.190 C 
BRANCH  29  30
ATOM     30  O   UNL     1      -6.798  -0.201  -2.341  0.00  0.00    -0.392 OA
ATOM     31  H   UNL     1      -7.609  -0.714  -2.466  0.00  0.00    +0.210 HD
ENDBRANCH  29  30
ENDBRANCH  18  29
ENDBRANCH  13  14
ENDBRANCH   9  13
BRANCH  12  32
ATOM     32  C   UNL     1      -2.381   4.465  -7.678  0.00  0.00    +0.149 C 
BRANCH  32  33
ATOM     33  C   UNL     1      -3.678   4.309  -8.430  0.00  0.00    -0.030 A 
ATOM     34  C   UNL     1      -3.965   3.119  -9.071  0.00  0.00    +0.005 A 
ATOM     35  C   UNL     1      -5.157   2.974  -9.757  0.00  0.00    +0.000 A 
ATOM     36  C   UNL     1      -6.056   4.022  -9.809  0.00  0.00    +0.000 A 
ATOM     37  C   UNL     1      -5.766   5.215  -9.173  0.00  0.00    +0.000 A 
ATOM     38  C   UNL     1      -4.577   5.358  -8.483  0.00  0.00    +0.005 A 
ENDBRANCH  32  33
ENDBRANCH  12  32
TORSDOF 9
