REMARK  Name = ZINC16010299
REMARK  6 active torsions:
REMARK  status: ('A' for Active; 'I' for Inactive)
REMARK    1  A    between atoms: C_1  and  C_2
REMARK    2  A    between atoms: C_16  and  C_19
REMARK    3  A    between atoms: C_19  and  C_20
REMARK    4  A    between atoms: C_20  and  C_21
REMARK    5  A    between atoms: N_26  and  C_29
REMARK    6  A    between atoms: C_29  and  C_30
REMARK                            x       y       z     vdW  Elec       q    Type
REMARK                         _______ _______ _______ _____ _____    ______ ____
ROOT
ATOM      1  C   UNL     1      -0.018   1.503   0.010  0.00  0.00    +0.046 C 
ATOM      2  C   UNL     1       0.002  -0.004   0.002  0.00  0.00    -0.028 A 
ATOM      3  C   UNL     1       0.006  -0.685  -1.198  0.00  0.00    +0.025 A 
ATOM      4  C   UNL     1       0.024  -2.068  -1.216  0.00  0.00    +0.042 A 
ATOM      5  C   UNL     1       0.039  -2.772  -0.023  0.00  0.00    +0.027 A 
ATOM      6  C   UNL     1       0.037  -2.096   1.176  0.00  0.00    +0.005 A 
ATOM      7  C   UNL     1       0.023  -0.704   1.205  0.00  0.00    +0.042 A 
ATOM      8  N   UNL     1       0.028  -0.250   2.526  0.00  0.00    -0.283 N 
ATOM      9  C   UNL     1       0.050  -1.264   3.413  0.00  0.00    +0.243 C 
ATOM     10  O   UNL     1       0.058  -1.169   4.622  0.00  0.00    -0.273 OA
ATOM     11  C   UNL     1       0.052  -2.537   2.612  0.00  0.00    +0.136 C 
ATOM     12  C   UNL     1      -1.157  -3.422   2.941  0.00  0.00    +0.122 C 
ATOM     13  C   UNL     1      -0.613  -4.875   2.847  0.00  0.00    +0.107 C 
ATOM     14  C   UNL     1       0.869  -4.720   2.447  0.00  0.00    +0.068 C 
ATOM     15  N   UNL     1       1.243  -3.352   2.914  0.00  0.00    -0.295 NA
ATOM     16  C   UNL     1      -0.711  -5.377   4.270  0.00  0.00    +0.227 C 
ATOM     17  O   UNL     1      -0.379  -6.480   4.648  0.00  0.00    -0.275 OA
ATOM     18  N   UNL     1      -1.221  -4.415   5.047  0.00  0.00    -0.237 N 
ATOM     19  C   UNL     1      -1.520  -3.264   4.401  0.00  0.00    +0.229 C 
ATOM     20  O   UNL     1      -1.996  -2.267   4.900  0.00  0.00    -0.275 OA
ATOM     21 CL   UNL     1       0.026  -2.919  -2.729  0.00  0.00    -0.084 Cl
ATOM     22  H   UNL     1       0.017   0.687   2.777  0.00  0.00    +0.155 HD
ATOM     23  H   UNL     1       2.051  -3.012   2.414  0.00  0.00    +0.123 HD
ENDROOT
BRANCH  14  24
ATOM     24  C   UNL     1       1.726  -5.766   3.162  0.00  0.00    +0.028 C 
BRANCH  24  25
ATOM     25  C   UNL     1       3.168  -5.675   2.657  0.00  0.00    +0.097 C 
BRANCH  25  26
ATOM     26  C   UNL     1       4.012  -6.705   3.362  0.00  0.00    +0.211 C 
ATOM     27  O   UNL     1       3.511  -7.440   4.186  0.00  0.00    -0.276 OA
ATOM     28  N   UNL     1       5.325  -6.811   3.076  0.00  0.00    -0.329 N 
ATOM     29  H   UNL     1       5.726  -6.223   2.416  0.00  0.00    +0.145 HD
ATOM     30  H   UNL     1       5.869  -7.474   3.529  0.00  0.00    +0.145 HD
ENDBRANCH  25  26
ENDBRANCH  24  25
ENDBRANCH  14  24
BRANCH  18  31
ATOM     31  C   UNL     1      -1.446  -4.592   6.483  0.00  0.00    +0.151 C 
BRANCH  31  32
ATOM     32  C   UNL     1      -0.213  -4.172   7.241  0.00  0.00    -0.029 A 
ATOM     33  C   UNL     1       0.779  -5.095   7.511  0.00  0.00    +0.008 A 
ATOM     34  C   UNL     1       1.911  -4.711   8.206  0.00  0.00    +0.038 A 
ATOM     35  C   UNL     1       2.050  -3.400   8.630  0.00  0.00    +0.123 A 
ATOM     36  C   UNL     1       1.055  -2.476   8.358  0.00  0.00    +0.038 A 
ATOM     37  C   UNL     1      -0.073  -2.862   7.660  0.00  0.00    +0.008 A 
ATOM     38  F   UNL     1       3.155  -3.023   9.309  0.00  0.00    -0.205 F 
ENDBRANCH  31  32
ENDBRANCH  18  31
TORSDOF 5
