REMARK  Name = ZINC51713303
REMARK  9 active torsions:
REMARK  status: ('A' for Active; 'I' for Inactive)
REMARK    1  A    between atoms: C_1  and  C_2
REMARK    2  A    between atoms: C_2  and  C_3
REMARK    3  A    between atoms: C_2  and  C_4
REMARK    4  A    between atoms: C_2  and  N_5
REMARK    5  A    between atoms: N_5  and  S_6
REMARK    6  A    between atoms: S_6  and  C_9
REMARK    7  A    between atoms: C_14  and  C_15
REMARK    8  A    between atoms: C_15  and  N_16
REMARK    9  A    between atoms: C_23  and  C_26
REMARK                            x       y       z     vdW  Elec       q    Type
REMARK                         _______ _______ _______ _____ _____    ______ ____
ROOT
ATOM      1  C   UNL     1       1.494  -0.124   2.131  0.00  0.00    +0.143 C 
ENDROOT
BRANCH   1   2
ATOM      2  N   UNL     1       0.181  -0.752   2.291  0.00  0.00    -0.295 N 
ATOM      3  C   UNL     1      -0.854  -0.037   2.777  0.00  0.00    +0.303 C 
ATOM      4  O   UNL     1      -0.720   1.151   2.999  0.00  0.00    -0.253 OA
ATOM      5  N   UNL     1      -2.036  -0.638   3.015  0.00  0.00    -0.281 N 
ATOM      6  C   UNL     1      -2.191  -2.093   2.858  0.00  0.00    +0.137 C 
ATOM      7  C   UNL     1      -3.421  -2.357   1.983  0.00  0.00    +0.180 C 
ATOM      8  O   UNL     1      -4.542  -1.654   2.523  0.00  0.00    -0.364 OA
ATOM      9  C   UNL     1      -4.390  -0.232   2.537  0.00  0.00    +0.221 C 
ATOM     10  C   UNL     1      -3.208   0.139   3.446  0.00  0.00    +0.150 C 
ATOM     11  H   UNL     1       0.055  -1.683   2.048  0.00  0.00    +0.151 HD
BRANCH   9  12
ATOM     12  C   UNL     1      -5.650   0.403   3.065  0.00  0.00    +0.241 C 
ATOM     13  O   UNL     1      -6.552  -0.293   3.482  0.00  0.00    -0.273 OA
ATOM     14  N   UNL     1      -5.775   1.745   3.075  0.00  0.00    -0.327 N 
ATOM     15  H   UNL     1      -5.054   2.302   2.741  0.00  0.00    +0.145 HD
ATOM     16  H   UNL     1      -6.586   2.154   3.415  0.00  0.00    +0.145 HD
ENDBRANCH   9  12
ENDBRANCH   1   2
BRANCH   1  22
ATOM     17  C   UNL     1       2.405  -1.256   0.093  0.00  0.00    +0.110 A 
ATOM     18  C   UNL     1       3.273  -2.141  -0.518  0.00  0.00    +0.029 A 
ATOM     19  C   UNL     1       4.170  -2.867   0.243  0.00  0.00    +0.002 A 
ATOM     20  C   UNL     1       4.199  -2.707   1.616  0.00  0.00    +0.000 A 
ATOM     21  C   UNL     1       3.331  -1.822   2.227  0.00  0.00    +0.007 A 
ATOM     22  C   UNL     1       2.437  -1.093   1.465  0.00  0.00    -0.004 A 
BRANCH  17  23
ATOM     23  S   UNL     1       1.261  -0.332  -0.878  0.00  0.00    +0.059 S 
ATOM     24  O   UNL     1      -0.014  -0.503  -0.275  0.00  0.00    -0.153 OA
ATOM     25  O   UNL     1       1.514  -0.669  -2.235  0.00  0.00    -0.153 OA
BRANCH  23  26
ATOM     26  N   UNL     1       1.655   1.268  -0.707  0.00  0.00    -0.185 NA
ATOM     27  H   UNL     1       1.034   1.877  -0.277  0.00  0.00    +0.149 HD
BRANCH  26  29
ATOM     28  C   UNL     1       3.079   1.423  -2.688  0.00  0.00    +0.029 C 
ATOM     29  C   UNL     1       2.941   1.763  -1.203  0.00  0.00    +0.032 C 
ATOM     30  C   UNL     1       4.078   1.102  -0.421  0.00  0.00    +0.029 C 
ATOM     31  C   UNL     1       3.009   3.280  -1.019  0.00  0.00    +0.029 C 
ENDBRANCH  26  29
ENDBRANCH  23  26
ENDBRANCH  17  23
ENDBRANCH   1  22
TORSDOF 6
