REMARK  Name = ZINC20751897
REMARK  3 active torsions:
REMARK  status: ('A' for Active; 'I' for Inactive)
REMARK    1  A    between atoms: C_9  and  O_35
REMARK    2  A    between atoms: C_10  and  C_11
REMARK    3  A    between atoms: C_24  and  C_27
REMARK                            x       y       z     vdW  Elec       q    Type
REMARK                         _______ _______ _______ _____ _____    ______ ____
ROOT
ATOM      1  C   UNL     1       1.099   2.221  -3.288  0.00  0.00    +0.109 C 
ATOM      2  C   UNL     1       1.446   0.766  -3.522  0.00  0.00    +0.029 C 
ATOM      3  C   UNL     1       2.848   0.434  -4.046  0.00  0.00    +0.033 C 
ATOM      4  C   UNL     1       2.582  -0.853  -4.832  0.00  0.00    -0.030 C 
ATOM      5  C   UNL     1       1.318  -0.879  -5.243  0.00  0.00    -0.023 C 
ATOM      6  C   UNL     1       0.655   0.375  -4.810  0.00  0.00    +0.049 C 
ATOM      7  C   UNL     1      -0.780   0.424  -4.457  0.00  0.00    -0.019 A 
ATOM      8  C   UNL     1      -1.695  -0.438  -5.024  0.00  0.00    +0.006 A 
ATOM      9  C   UNL     1      -3.037  -0.367  -4.691  0.00  0.00    +0.001 A 
ATOM     10  C   UNL     1      -3.471   0.577  -3.785  0.00  0.00    +0.015 A 
ATOM     11  C   UNL     1      -2.560   1.453  -3.200  0.00  0.00    +0.058 A 
ATOM     12  C   UNL     1      -1.188   1.379  -3.522  0.00  0.00    +0.044 A 
ATOM     13  N   UNL     1      -0.316   2.272  -2.886  0.00  0.00    -0.336 N 
ATOM     14  H   UNL     1      -0.644   2.988  -2.119  0.00  0.00    +0.147 HD
ENDROOT
BRANCH   1  24
ATOM     15  C   UNL     1       4.974   5.555  -3.049  0.00  0.00    +0.001 A 
ATOM     16  C   UNL     1       4.183   5.043  -4.076  0.00  0.00    +0.001 A 
ATOM     17  C   UNL     1       3.198   4.140  -3.818  0.00  0.00    +0.009 A 
ATOM     18  C   UNL     1       2.973   3.716  -2.497  0.00  0.00    -0.009 A 
ATOM     19  C   UNL     1       3.777   4.237  -1.452  0.00  0.00    -0.017 A 
ATOM     20  C   UNL     1       4.785   5.167  -1.758  0.00  0.00    +0.008 A 
ATOM     21  C   UNL     1       3.554   3.814  -0.131  0.00  0.00    +0.012 A 
ATOM     22  C   UNL     1       2.566   2.916   0.132  0.00  0.00    +0.046 A 
ATOM     23  C   UNL     1       1.775   2.397  -0.897  0.00  0.00    +0.122 A 
ATOM     24  C   UNL     1       1.965   2.786  -2.192  0.00  0.00    +0.022 A 
BRANCH  23  25
ATOM     25  O   UNL     1       0.799   1.497  -0.604  0.00  0.00    -0.506 OA
ATOM     26  H   UNL     1       0.172   1.084  -1.407  0.00  0.00    +0.292 HD
ENDBRANCH  23  25
ENDBRANCH   1  24
BRANCH  11  27
ATOM     27  C   UNL     1      -3.032   2.465  -2.237  0.00  0.00    +0.249 C 
ATOM     28  O   UNL     1      -2.679   3.623  -2.350  0.00  0.00    -0.270 OA
ATOM     29  N   UNL     1      -3.854   2.106  -1.231  0.00  0.00    -0.293 N 
ATOM     30  C   UNL     1      -4.203   0.694  -1.005  0.00  0.00    +0.136 C 
ATOM     31  C   UNL     1      -3.956   0.371   0.477  0.00  0.00    +0.179 C 
ATOM     32  O   UNL     1      -4.640   1.331   1.286  0.00  0.00    -0.377 OA
ATOM     33  C   UNL     1      -4.180   2.674   1.116  0.00  0.00    +0.179 C 
ATOM     34  C   UNL     1      -4.434   3.115  -0.330  0.00  0.00    +0.136 C 
ENDBRANCH  11  27
TORSDOF 3
