REMARK  Name = ZINC65748514
REMARK  14 active torsions:
REMARK  status: ('A' for Active; 'I' for Inactive)
REMARK    1  A    between atoms: C_1  and  C_2
REMARK    2  A    between atoms: C_2  and  C_3
REMARK    3  A    between atoms: C_2  and  N_4
REMARK    4  A    between atoms: N_4  and  C_5
REMARK    5  A    between atoms: C_5  and  C_6
REMARK    6  A    between atoms: C_6  and  C_8
REMARK    7  A    between atoms: C_6  and  O_20
REMARK    8  A    between atoms: C_8  and  O_9
REMARK    9  A    between atoms: O_9  and  C_10
REMARK   10  A    between atoms: O_20  and  C_21
REMARK   11  A    between atoms: C_23  and  O_37
REMARK   12  A    between atoms: C_25  and  O_36
REMARK   13  A    between atoms: C_27  and  O_35
REMARK   14  A    between atoms: C_29  and  C_32
REMARK                            x       y       z     vdW  Elec       q    Type
REMARK                         _______ _______ _______ _____ _____    ______ ____
ROOT
ATOM      1  C   UNL     1       2.826  -0.647  -2.337  0.00  0.00    +0.142 C 
ENDROOT
BRANCH   1   2
ATOM      2  C   UNL     1       2.375   0.206  -1.150  0.00  0.00    -0.047 C 
BRANCH   2   3
ATOM      3  N   UNL     1       0.907   0.221  -1.087  0.00  0.00    +0.382 N 
ATOM      4  H   UNL     1       0.566  -0.724  -0.985  0.00  0.00    -0.085 HD
ATOM      5  H   UNL     1       0.538   0.622  -1.935  0.00  0.00    -0.085 HD
BRANCH   3   7
ATOM      6  C   UNL     1       0.885   2.483  -0.149  0.00  0.00    -0.014 C 
ATOM      7  C   UNL     1       0.474   1.024   0.064  0.00  0.00    -0.078 C 
ATOM      8  C   UNL     1      -1.047   0.937   0.204  0.00  0.00    -0.014 C 
ENDBRANCH   3   7
ENDBRANCH   2   3
ENDBRANCH   1   2
BRANCH   1   9
ATOM      9  C   UNL     1       4.350  -0.776  -2.322  0.00  0.00    +0.258 C 
BRANCH   9  10
ATOM     10  O   UNL     1       4.938   0.526  -2.301  0.00  0.00    -0.489 OA
BRANCH  10  11
ATOM     11  C   UNL     1       6.295   0.590  -2.286  0.00  0.00    +0.128 A 
ATOM     12  C   UNL     1       7.038  -0.557  -2.297  0.00  0.00    +0.046 A 
ATOM     13  C   UNL     1       8.429  -0.508  -2.282  0.00  0.00    +0.004 A 
ATOM     14  C   UNL     1       9.090   0.682  -2.256  0.00  0.00    +0.009 A 
ATOM     15  C   UNL     1       8.362   1.884  -2.244  0.00  0.00    -0.014 A 
ATOM     16  C   UNL     1       6.946   1.840  -2.264  0.00  0.00    +0.024 A 
ATOM     17  C   UNL     1       6.219   3.041  -2.257  0.00  0.00    +0.012 A 
ATOM     18  C   UNL     1       6.882   4.230  -2.236  0.00  0.00    +0.001 A 
ATOM     19  C   UNL     1       8.275   4.274  -2.221  0.00  0.00    +0.001 A 
ATOM     20  C   UNL     1       9.012   3.130  -2.217  0.00  0.00    +0.008 A 
ENDBRANCH  10  11
ENDBRANCH   9  10
ENDBRANCH   1   9
BRANCH   1  21
ATOM     21  O   UNL     1       2.412  -0.026  -3.555  0.00  0.00    -0.344 OA
BRANCH  21  22
ATOM     22  C   UNL     1       1.227  -0.589  -4.122  0.00  0.00    +0.283 C 
ATOM     23  C   UNL     1       0.719   0.317  -5.246  0.00  0.00    +0.201 C 
ATOM     24  C   UNL     1       1.775   0.387  -6.353  0.00  0.00    +0.179 C 
ATOM     25  C   UNL     1       2.080  -1.032  -6.843  0.00  0.00    +0.185 C 
ATOM     26  C   UNL     1       2.536  -1.886  -5.657  0.00  0.00    +0.265 C 
ATOM     27  O   UNL     1       1.521  -1.883  -4.651  0.00  0.00    -0.331 OA
BRANCH  26  28
ATOM     28  C   UNL     1       2.781  -3.299  -6.120  0.00  0.00    +0.387 C 
ATOM     29  O   UNL     1       3.677  -3.533  -6.914  0.00  0.00    -0.243 OA
ATOM     30  O   UNL     1       2.085  -4.207  -5.701  0.00  0.00    -0.243 OA
ENDBRANCH  26  28
BRANCH  25  31
ATOM     31  O   UNL     1       0.902  -1.602  -7.418  0.00  0.00    -0.386 OA
ATOM     32  H   UNL     1       1.023  -2.502  -7.750  0.00  0.00    +0.210 HD
ENDBRANCH  25  31
BRANCH  24  33
ATOM     33  O   UNL     1       1.279   1.173  -7.438  0.00  0.00    -0.386 OA
ATOM     34  H   UNL     1       1.898   1.260  -8.176  0.00  0.00    +0.210 HD
ENDBRANCH  24  33
BRANCH  23  35
ATOM     35  O   UNL     1      -0.496  -0.216  -5.777  0.00  0.00    -0.384 OA
ATOM     36  H   UNL     1      -1.209  -0.293  -5.128  0.00  0.00    +0.210 HD
ENDBRANCH  23  35
ENDBRANCH  21  22
ENDBRANCH   1  21
TORSDOF 12
