REMARK  Name = ZINC22131230
REMARK  7 active torsions:
REMARK  status: ('A' for Active; 'I' for Inactive)
REMARK    1  A    between atoms: C_1  and  C_2
REMARK    2  A    between atoms: C_12  and  C_14
REMARK    3  A    between atoms: C_14  and  C_15
REMARK    4  A    between atoms: C_15  and  C_16
REMARK    5  A    between atoms: C_16  and  N_17
REMARK    6  A    between atoms: C_20  and  C_24
REMARK    7  A    between atoms: C_20  and  C_25
REMARK                            x       y       z     vdW  Elec       q    Type
REMARK                         _______ _______ _______ _____ _____    ______ ____
ROOT
ATOM      1  C   UNL     1      -6.599  -4.577 -10.367  0.00  0.00    +0.008 C 
ATOM      2  C   UNL     1      -5.744  -4.358  -9.117  0.00  0.00    -0.009 C 
ATOM      3  C   UNL     1      -5.171  -2.938  -9.129  0.00  0.00    +0.010 C 
ATOM      4  C   UNL     1      -4.122  -2.785  -8.027  0.00  0.00    +0.056 C 
ATOM      5  C   UNL     1      -4.733  -3.230  -6.703  0.00  0.00    +0.054 A 
ATOM      6  C   UNL     1      -5.846  -4.009  -6.691  0.00  0.00    +0.015 A 
ATOM      7  S   UNL     1      -6.142  -4.237  -4.958  0.00  0.00    -0.057 S 
ATOM      8  C   UNL     1      -4.793  -3.301  -4.387  0.00  0.00    +0.165 A 
ATOM      9  N   UNL     1      -4.242  -2.895  -5.513  0.00  0.00    -0.229 NA
ATOM     10  N   UNL     1      -4.400  -3.043  -3.079  0.00  0.00    -0.265 N 
ATOM     11  C   UNL     1      -3.311  -2.285  -2.840  0.00  0.00    +0.219 C 
ATOM     12  O   UNL     1      -2.675  -1.828  -3.766  0.00  0.00    -0.275 OA
ATOM     13  C   UNL     1      -6.611  -4.531  -7.860  0.00  0.00    +0.047 C 
ATOM     14  H   UNL     1      -4.977  -3.457  -2.240  0.00  0.00    +0.157 HD
ENDROOT
BRANCH  11  15
ATOM     15  C   UNL     1      -2.885  -2.005  -1.422  0.00  0.00    +0.098 C 
BRANCH  15  16
ATOM     16  C   UNL     1      -1.631  -1.128  -1.430  0.00  0.00    +0.029 C 
BRANCH  16  17
ATOM     17  C   UNL     1      -1.199  -0.844   0.010  0.00  0.00    +0.118 C 
BRANCH  17  18
ATOM     18  N   UNL     1       0.002  -0.004   0.002  0.00  0.00    -0.224 N 
ATOM     19  C   UNL     1      -0.016   1.343   0.009  0.00  0.00    +0.246 C 
ATOM     20  O   UNL     1      -0.992   2.062   0.018  0.00  0.00    -0.273 OA
ATOM     21  C   UNL     1       1.437   1.773  -0.002  0.00  0.00    +0.107 C 
ATOM     22  N   UNL     1       2.175   0.498  -0.016  0.00  0.00    -0.285 N 
ATOM     23  C   UNL     1       1.252  -0.481  -0.013  0.00  0.00    +0.309 C 
ATOM     24  O   UNL     1       1.524  -1.665  -0.021  0.00  0.00    -0.252 OA
ATOM     25  C   UNL     1       1.748   2.588  -1.259  0.00  0.00    +0.041 C 
ATOM     26  C   UNL     1       1.772   2.575   1.257  0.00  0.00    +0.041 C 
ATOM     27  H   UNL     1       3.275   0.499  -0.026  0.00  0.00    +0.151 HD
ENDBRANCH  17  18
ENDBRANCH  16  17
ENDBRANCH  15  16
ENDBRANCH  11  15
TORSDOF 4
