REMARK  Name = ZINC37615484
REMARK  8 active torsions:
REMARK  status: ('A' for Active; 'I' for Inactive)
REMARK    1  A    between atoms: C_1  and  C_2
REMARK    2  A    between atoms: C_2  and  C_3
REMARK    3  A    between atoms: C_2  and  C_6
REMARK    4  A    between atoms: C_2  and  N_20
REMARK    5  A    between atoms: N_8  and  C_9
REMARK    6  A    between atoms: C_14  and  N_15
REMARK    7  A    between atoms: N_15  and  S_16
REMARK    8  A    between atoms: S_16  and  C_19
REMARK                            x       y       z     vdW  Elec       q    Type
REMARK                         _______ _______ _______ _____ _____    ______ ____
ROOT
ATOM      1  C   UNL     1       0.883  -0.287  -1.266  0.00  0.00    +0.206 C 
ATOM      2  O   UNL     1       2.065  -0.559  -1.267  0.00  0.00    -0.277 OA
ATOM      3  N   UNL     1       0.147  -0.475  -2.379  0.00  0.00    -0.285 N 
ATOM      4  H   UNL     1      -0.810  -0.318  -2.360  0.00  0.00    +0.155 HD
ENDROOT
BRANCH   3   5
ATOM      5  C   UNL     1       0.764  -0.897  -3.564  0.00  0.00    +0.056 A 
ATOM      6  C   UNL     1       1.843  -1.767  -3.515  0.00  0.00    +0.025 A 
ATOM      7  C   UNL     1       2.450  -2.182  -4.685  0.00  0.00    +0.002 A 
ATOM      8  C   UNL     1       1.985  -1.733  -5.907  0.00  0.00    +0.002 A 
ATOM      9  C   UNL     1       0.910  -0.866  -5.966  0.00  0.00    +0.026 A 
ATOM     10  C   UNL     1       0.291  -0.449  -4.797  0.00  0.00    +0.069 A 
BRANCH  10  11
ATOM     11  N   UNL     1      -0.801   0.424  -4.854  0.00  0.00    -0.219 N 
ATOM     12  H   UNL     1      -0.920   1.098  -4.167  0.00  0.00    +0.173 HD
BRANCH  11  13
ATOM     13  S   UNL     1      -1.891   0.306  -6.096  0.00  0.00    +0.040 S 
ATOM     14  O   UNL     1      -2.894   1.265  -5.790  0.00  0.00    -0.155 OA
ATOM     15  O   UNL     1      -1.109   0.427  -7.277  0.00  0.00    -0.155 OA
ATOM     16  C   UNL     1      -2.568  -1.371  -5.964  0.00  0.00    +0.218 C 
ENDBRANCH  11  13
ENDBRANCH  10  11
ENDBRANCH   3   5
BRANCH   1  18
ATOM     17  C   UNL     1       0.216   1.789  -0.086  0.00  0.00    -0.001 C 
ATOM     18  C   UNL     1       0.237   0.261  -0.019  0.00  0.00    +0.007 C 
BRANCH  18  19
ATOM     19  N   UNL     1      -1.138  -0.244   0.083  0.00  0.00    +0.388 N 
ATOM     20  H   UNL     1      -1.665   0.050  -0.726  0.00  0.00    -0.089 HD
ATOM     21  H   UNL     1      -1.124  -1.252   0.127  0.00  0.00    -0.089 HD
ATOM     22  H   UNL     1      -1.570   0.122   0.918  0.00  0.00    -0.089 HD
ENDBRANCH  18  19
BRANCH  18  23
ATOM     23  C   UNL     1       1.037  -0.185   1.207  0.00  0.00    -0.014 C 
ATOM     24  C   UNL     1       0.376  -1.188   2.155  0.00  0.00    +0.003 C 
ATOM     25  C   UNL     1       0.539   0.273   2.580  0.00  0.00    +0.003 C 
ENDBRANCH  18  23
ENDBRANCH   1  18
TORSDOF 6
