REMARK  Name = ZINC08212664
REMARK  7 active torsions:
REMARK  status: ('A' for Active; 'I' for Inactive)
REMARK    1  A    between atoms: C_1  and  C_2
REMARK    2  A    between atoms: C_6  and  C_14
REMARK    3  A    between atoms: C_12  and  C_13
REMARK    4  A    between atoms: C_14  and  N_15
REMARK    5  A    between atoms: N_15  and  C_16
REMARK    6  A    between atoms: C_20  and  N_23
REMARK    7  A    between atoms: C_21  and  C_22
REMARK                            x       y       z     vdW  Elec       q    Type
REMARK                         _______ _______ _______ _____ _____    ______ ____
ROOT
ATOM      1  C   UNL     1      -4.931   0.895   0.711  0.00  0.00    +0.044 C 
ATOM      2  C   UNL     1      -3.499   0.447   0.570  0.00  0.00    -0.044 A 
ATOM      3  C   UNL     1      -3.208  -0.908   0.501  0.00  0.00    +0.004 A 
ATOM      4  C   UNL     1      -1.915  -1.334   0.373  0.00  0.00    +0.012 A 
ATOM      5  C   UNL     1      -0.880  -0.397   0.310  0.00  0.00    +0.023 A 
ATOM      6  C   UNL     1       0.517  -0.821   0.173  0.00  0.00    -0.013 A 
ATOM      7  C   UNL     1       1.476   0.138   0.119  0.00  0.00    +0.097 A 
ATOM      8  C   UNL     1       1.111   1.500   0.195  0.00  0.00    +0.338 A 
ATOM      9  O   UNL     1       1.981   2.351   0.145  0.00  0.00    -0.245 OA
ATOM     10  O   UNL     1      -0.170   1.880   0.321  0.00  0.00    -0.422 OA
ATOM     11  C   UNL     1      -1.171   0.977   0.380  0.00  0.00    +0.142 A 
ATOM     12  C   UNL     1      -2.491   1.387   0.515  0.00  0.00    -0.005 A 
ATOM     13  C   UNL     1      -2.823   2.855   0.592  0.00  0.00    +0.048 C 
ENDROOT
BRANCH   6  14
ATOM     14  C   UNL     1       0.878  -2.282   0.096  0.00  0.00    +0.137 C 
BRANCH  14  15
ATOM     15  N   UNL     1       0.643  -2.771  -1.265  0.00  0.00    -0.339 N 
ATOM     16  H   UNL     1       0.305  -2.168  -1.946  0.00  0.00    +0.146 HD
BRANCH  15  17
ATOM     17  C   UNL     1       0.907  -4.105  -1.583  0.00  0.00    +0.032 A 
ATOM     18  C   UNL     1       1.393  -4.970  -0.610  0.00  0.00    +0.023 A 
ATOM     19  C   UNL     1       1.653  -6.288  -0.927  0.00  0.00    +0.004 A 
ATOM     20  C   UNL     1       1.431  -6.749  -2.212  0.00  0.00    +0.033 A 
ATOM     21  C   UNL     1       0.948  -5.891  -3.183  0.00  0.00    +0.131 A 
ATOM     22  C   UNL     1       0.680  -4.572  -2.871  0.00  0.00    +0.001 A 
ATOM     23  C   UNL     1       0.148  -3.640  -3.929  0.00  0.00    +0.048 C 
BRANCH  21  24
ATOM     24  N   UNL     1       0.711  -6.388  -4.557  0.00  0.00    +0.057 N 
ATOM     25  O   UNL     1       0.279  -7.513  -4.732  0.00  0.00    -0.126 OA
ATOM     26  O   UNL     1       0.949  -5.671  -5.513  0.00  0.00    -0.126 OA
ENDBRANCH  21  24
ENDBRANCH  15  17
ENDBRANCH  14  15
ENDBRANCH   6  14
TORSDOF 4
