REMARK  Name = ZINC65843611
REMARK  8 active torsions:
REMARK  status: ('A' for Active; 'I' for Inactive)
REMARK    1  A    between atoms: C_1  and  C_2
REMARK    2  A    between atoms: C_2  and  C_3
REMARK    3  A    between atoms: C_2  and  C_4
REMARK    4  A    between atoms: N_6  and  C_7
REMARK    5  A    between atoms: C_11  and  N_13
REMARK    6  A    between atoms: C_14  and  C_16
REMARK    7  A    between atoms: N_18  and  C_19
REMARK    8  A    between atoms: C_22  and  C_26
REMARK                            x       y       z     vdW  Elec       q    Type
REMARK                         _______ _______ _______ _____ _____    ______ ____
ROOT
ATOM      1  N   UNL     1       0.942  -0.468   7.231  0.00  0.00    -0.278 N 
ATOM      2  C   UNL     1       1.844  -0.188   8.192  0.00  0.00    +0.303 C 
ATOM      3  O   UNL     1       3.031  -0.276   7.955  0.00  0.00    -0.265 OA
ATOM      4  H   UNL     1      -0.005  -0.464   7.439  0.00  0.00    +0.155 HD
ENDROOT
BRANCH   1   9
ATOM      5  C   UNL     1       1.048  -0.653   3.557  0.00  0.00    +0.035 A 
ATOM      6  C   UNL     1       2.231  -1.356   3.367  0.00  0.00    +0.023 A 
ATOM      7  C   UNL     1       2.979  -1.760   4.456  0.00  0.00    +0.004 A 
ATOM      8  C   UNL     1       2.554  -1.467   5.737  0.00  0.00    +0.023 A 
ATOM      9  C   UNL     1       1.372  -0.764   5.935  0.00  0.00    +0.036 A 
ATOM     10  C   UNL     1       0.621  -0.351   4.842  0.00  0.00    +0.046 A 
BRANCH   5  13
ATOM     11  C   UNL     1      -0.370   0.930   2.487  0.00  0.00    +0.220 C 
ATOM     12  O   UNL     1      -0.377   1.593   3.503  0.00  0.00    -0.275 OA
ATOM     13  N   UNL     1       0.291  -0.244   2.454  0.00  0.00    -0.285 N 
ATOM     14  H   UNL     1       0.241  -0.806   1.665  0.00  0.00    +0.155 HD
BRANCH  11  16
ATOM     15  C   UNL     1      -2.172   0.403   0.868  0.00  0.00    +0.017 C 
ATOM     16  C   UNL     1      -1.099   1.419   1.263  0.00  0.00    +0.069 C 
ATOM     17  C   UNL     1      -1.759   2.766   1.567  0.00  0.00    +0.017 C 
ENDBRANCH  11  16
ENDBRANCH   5  13
ENDBRANCH   1   9
BRANCH   2  18
ATOM     18  C   UNL     1       1.383   0.229   9.549  0.00  0.00    +0.303 C 
ATOM     19  O   UNL     1       0.196   0.316   9.787  0.00  0.00    -0.265 OA
ATOM     20  N   UNL     1       2.285   0.508  10.511  0.00  0.00    -0.278 N 
ATOM     21  H   UNL     1       3.232   0.514  10.301  0.00  0.00    +0.155 HD
BRANCH  20  22
ATOM     22  C   UNL     1       1.857   0.789  11.807  0.00  0.00    +0.035 A 
ATOM     23  C   UNL     1       0.746   0.133  12.329  0.00  0.00    +0.024 A 
ATOM     24  C   UNL     1       0.319   0.407  13.608  0.00  0.00    +0.022 A 
ATOM     25  C   UNL     1       1.005   1.346  14.386  0.00  0.00    +0.070 A 
ATOM     26  C   UNL     1       2.122   2.003  13.860  0.00  0.00    +0.060 A 
ATOM     27  C   UNL     1       2.546   1.719  12.579  0.00  0.00    +0.044 A 
ATOM     28 CL   UNL     1       2.976   3.170  14.820  0.00  0.00    -0.082 Cl
BRANCH  25  29
ATOM     29  C   UNL     1       0.564   1.633  15.718  0.00  0.00    +0.101 C 
ATOM     30  N   UNL     1       0.214   1.862  16.774  0.00  0.00    -0.191 NA
ENDBRANCH  25  29
ENDBRANCH  20  22
ENDBRANCH   2  18
TORSDOF 6
