REMARK  Name = ZINC22109017
REMARK  5 active torsions:
REMARK  status: ('A' for Active; 'I' for Inactive)
REMARK    1  A    between atoms: C_4  and  C_13
REMARK    2  A    between atoms: C_11  and  O_12
REMARK    3  A    between atoms: C_13  and  O_14
REMARK    4  A    between atoms: O_14  and  C_15
REMARK    5  A    between atoms: C_15  and  C_17
REMARK                            x       y       z     vdW  Elec       q    Type
REMARK                         _______ _______ _______ _____ _____    ______ ____
ROOT
ATOM      1  C   UNL     1      -0.015   1.386  -0.068  0.00  0.00    +0.046 A 
ATOM      2  C   UNL     1       1.152   2.094  -0.065  0.00  0.00    +0.015 A 
ATOM      3  C   UNL     1       2.376   1.416  -0.090  0.00  0.00    +0.024 A 
ATOM      4  C   UNL     1       3.644   2.149  -0.086  0.00  0.00    +0.007 A 
ATOM      5  C   UNL     1       4.799   1.434  -0.111  0.00  0.00    +0.099 A 
ATOM      6  C   UNL     1       4.751   0.025  -0.139  0.00  0.00    +0.338 A 
ATOM      7  O   UNL     1       5.794  -0.604  -0.161  0.00  0.00    -0.245 OA
ATOM      8  O   UNL     1       3.586  -0.641  -0.141  0.00  0.00    -0.422 OA
ATOM      9  C   UNL     1       2.402   0.009  -0.118  0.00  0.00    +0.143 A 
ATOM     10  C   UNL     1       1.208  -0.694  -0.122  0.00  0.00    +0.092 A 
ATOM     11  C   UNL     1       0.005  -0.007  -0.096  0.00  0.00    +0.120 A 
ENDROOT
BRANCH  11  12
ATOM     12  O   UNL     1      -1.165  -0.697  -0.100  0.00  0.00    -0.507 OA
ATOM     13  H   UNL     1      -1.512  -0.879  -0.984  0.00  0.00    +0.292 HD
ENDBRANCH  11  12
BRANCH   4  14
ATOM     14  C   UNL     1       3.667   3.656  -0.056  0.00  0.00    +0.269 C 
BRANCH  14  15
ATOM     15  O   UNL     1       5.021   4.112  -0.059  0.00  0.00    -0.455 OA
BRANCH  15  16
ATOM     16  C   UNL     1       5.218   5.444  -0.034  0.00  0.00    +0.361 C 
ATOM     17  O   UNL     1       4.266   6.199  -0.011  0.00  0.00    -0.243 OA
BRANCH  16  18
ATOM     18  C   UNL     1       6.591   5.988  -0.035  0.00  0.00    +0.187 A 
ATOM     19  C   UNL     1       6.801   7.374  -0.128  0.00  0.00    +0.149 A 
ATOM     20  N   UNL     1       8.041   7.852  -0.128  0.00  0.00    -0.237 NA
ATOM     21  C   UNL     1       9.067   7.025  -0.042  0.00  0.00    +0.132 A 
ATOM     22  C   UNL     1       8.858   5.656   0.050  0.00  0.00    +0.131 A 
ATOM     23  N   UNL     1       7.635   5.168   0.057  0.00  0.00    -0.244 NA
ATOM     24  N   UNL     1       5.724   8.236  -0.219  0.00  0.00    -0.341 N 
ATOM     25  H   UNL     1       4.821   7.892  -0.141  0.00  0.00    +0.144 HD
ATOM     26  H   UNL     1       5.872   9.184  -0.362  0.00  0.00    +0.144 HD
ENDBRANCH  16  18
ENDBRANCH  15  16
ENDBRANCH  14  15
ENDBRANCH   4  14
TORSDOF 5
