REMARK  Name = ZINC31170061
REMARK  12 active torsions:
REMARK  status: ('A' for Active; 'I' for Inactive)
REMARK    1  A    between atoms: C_1  and  C_2
REMARK    2  A    between atoms: C_2  and  C_31
REMARK    3  A    between atoms: C_3  and  C_4
REMARK    4  A    between atoms: C_4  and  C_5
REMARK    5  A    between atoms: C_7  and  C_18
REMARK    6  A    between atoms: C_8  and  O_17
REMARK    7  A    between atoms: C_9  and  C_12
REMARK    8  A    between atoms: C_10  and  O_11
REMARK    9  A    between atoms: C_12  and  C_13
REMARK   10  A    between atoms: C_14  and  C_15
REMARK   11  A    between atoms: C_14  and  C_16
REMARK   12  A    between atoms: C_26  and  O_30
REMARK                            x       y       z     vdW  Elec       q    Type
REMARK                         _______ _______ _______ _____ _____    ______ ____
ROOT
ATOM      1  C   UNL     1       4.234   2.195   4.524  0.00  0.00    -0.001 A 
ATOM      2  C   UNL     1       3.575   3.010   3.623  0.00  0.00    +0.018 A 
ATOM      3  C   UNL     1       4.006   4.306   3.417  0.00  0.00    +0.035 A 
ATOM      4  C   UNL     1       5.095   4.796   4.123  0.00  0.00    +0.130 A 
ATOM      5  C   UNL     1       5.755   3.983   5.031  0.00  0.00    +0.040 A 
ATOM      6  C   UNL     1       5.323   2.681   5.232  0.00  0.00    +0.127 A 
ENDROOT
BRANCH   3   7
ATOM      7  C   UNL     1       3.289   5.190   2.429  0.00  0.00    +0.215 C 
ATOM      8  C   UNL     1       4.008   5.131   1.073  0.00  0.00    +0.129 C 
ATOM      9  C   UNL     1       3.226   6.010   0.113  0.00  0.00    +0.170 C 
ATOM     10  O   UNL     1       3.783   6.729  -0.691  0.00  0.00    -0.292 OA
ATOM     11  C   UNL     1       1.760   5.946   0.207  0.00  0.00    +0.059 A 
ATOM     12  C   UNL     1       0.955   6.518  -0.783  0.00  0.00    +0.018 A 
ATOM     13  C   UNL     1      -0.404   6.453  -0.673  0.00  0.00    +0.046 A 
ATOM     14  C   UNL     1      -0.991   5.821   0.421  0.00  0.00    +0.120 A 
ATOM     15  C   UNL     1      -0.205   5.253   1.413  0.00  0.00    +0.091 A 
ATOM     16  C   UNL     1       1.176   5.302   1.312  0.00  0.00    +0.135 A 
ATOM     17  O   UNL     1       1.945   4.736   2.271  0.00  0.00    -0.483 OA
BRANCH  14  18
ATOM     18  O   UNL     1      -2.343   5.766   0.520  0.00  0.00    -0.507 OA
ATOM     19  H   UNL     1      -2.812   5.268   1.382  0.00  0.00    +0.292 HD
ENDBRANCH  14  18
ENDBRANCH   3   7
BRANCH   6  20
ATOM     20  O   UNL     1       5.968   1.881   6.122  0.00  0.00    -0.506 OA
ATOM     21  H   UNL     1       6.832   2.266   6.683  0.00  0.00    +0.292 HD
ENDBRANCH   6  20
BRANCH   4  22
ATOM     22  O   UNL     1       5.515   6.074   3.924  0.00  0.00    -0.506 OA
ATOM     23  H   UNL     1       6.379   6.462   4.484  0.00  0.00    +0.292 HD
ENDBRANCH   4  22
BRANCH   1  24
ATOM     24  C   UNL     1       3.765   0.779   4.741  0.00  0.00    +0.066 C 
BRANCH  24  27
ATOM     25  C   UNL     1       1.215  -0.397   4.488  0.00  0.00    +0.038 C 
ATOM     26  C   UNL     1       1.628   0.239   5.790  0.00  0.00    -0.079 C 
ATOM     27  C   UNL     1       2.833   0.735   5.924  0.00  0.00    -0.023 C 
ATOM     28  C   UNL     1       0.654   0.304   6.939  0.00  0.00    +0.038 C 
ENDBRANCH  24  27
ENDBRANCH   1  24
BRANCH   5  29
ATOM     29  C   UNL     1       6.937   4.513   5.800  0.00  0.00    +0.069 C 
BRANCH  29  30
ATOM     30  C   UNL     1       6.462   5.137   7.087  0.00  0.00    -0.023 C 
ATOM     31  C   UNL     1       6.968   4.746   8.230  0.00  0.00    -0.079 C 
ATOM     32  C   UNL     1       8.114   3.767   8.252  0.00  0.00    +0.038 C 
ATOM     33  C   UNL     1       6.404   5.275   9.524  0.00  0.00    +0.038 C 
ENDBRANCH  29  30
ENDBRANCH   5  29
TORSDOF 8
