REMARK  Name = ZINC03211161
REMARK  5 active torsions:
REMARK  status: ('A' for Active; 'I' for Inactive)
REMARK    1  A    between atoms: C_1  and  O_2
REMARK    2  A    between atoms: O_2  and  C_3
REMARK    3  A    between atoms: C_3  and  C_5
REMARK    4  A    between atoms: C_7  and  C_22
REMARK    5  A    between atoms: C_25  and  O_28
REMARK                            x       y       z     vdW  Elec       q    Type
REMARK                         _______ _______ _______ _____ _____    ______ ____
ROOT
ATOM      1  C   UNL     1      -0.437   1.143   0.172  0.00  0.00    +0.153 C 
ATOM      2  C   UNL     1      -0.784  -0.192  -0.490  0.00  0.00    +0.077 C 
ATOM      3  C   UNL     1      -2.028  -0.061  -1.326  0.00  0.00    +0.063 A 
ATOM      4  C   UNL     1      -2.466   1.135  -1.808  0.00  0.00    +0.111 A 
ATOM      5  N   UNL     1      -3.595   1.180  -2.593  0.00  0.00    -0.323 N 
ATOM      6  H   UNL     1      -3.902   2.029  -2.947  0.00  0.00    +0.169 HD
ATOM      7  C   UNL     1      -4.277   0.055  -2.872  0.00  0.00    +0.159 A 
ATOM      8  S   UNL     1      -5.682   0.137  -3.847  0.00  0.00    -0.013 S 
ATOM      9  N   UNL     1      -3.869  -1.135  -2.394  0.00  0.00    -0.302 N 
ATOM     10  H   UNL     1      -4.377  -1.935  -2.599  0.00  0.00    +0.171 HD
ATOM     11  C   UNL     1      -2.763  -1.224  -1.633  0.00  0.00    +0.258 A 
ATOM     12  O   UNL     1      -2.397  -2.307  -1.209  0.00  0.00    -0.267 OA
ATOM     13  N   UNL     1      -1.806   2.310  -1.528  0.00  0.00    -0.304 N 
ATOM     14  C   UNL     1      -0.567   2.229  -0.880  0.00  0.00    +0.017 C 
ATOM     15  C   UNL     1       0.428   3.047  -1.167  0.00  0.00    +0.029 C 
ATOM     16  H   UNL     1      -2.187   3.168  -1.772  0.00  0.00    +0.153 HD
ENDROOT
BRANCH   2  17
ATOM     17  C   UNL     1      -1.009  -1.232   0.576  0.00  0.00    -0.038 A 
ATOM     18  C   UNL     1      -2.157  -1.193   1.347  0.00  0.00    +0.008 A 
ATOM     19  C   UNL     1      -2.369  -2.149   2.322  0.00  0.00    +0.045 A 
ATOM     20  C   UNL     1      -1.423  -3.142   2.535  0.00  0.00    +0.117 A 
ATOM     21  C   UNL     1      -0.270  -3.175   1.764  0.00  0.00    +0.045 A 
ATOM     22  C   UNL     1      -0.066  -2.221   0.787  0.00  0.00    +0.008 A 
BRANCH  20  23
ATOM     23  O   UNL     1      -1.627  -4.080   3.497  0.00  0.00    -0.507 OA
ATOM     24  H   UNL     1      -1.277  -3.836   4.364  0.00  0.00    +0.292 HD
ENDBRANCH  20  23
ENDBRANCH   2  17
BRANCH   1  25
ATOM     25  C   UNL     1      -1.390   1.415   1.307  0.00  0.00    +0.316 C 
ATOM     26  O   UNL     1      -2.475   1.897   1.082  0.00  0.00    -0.250 OA
BRANCH  25  28
ATOM     27  C   UNL     1      -2.003   1.409   3.610  0.00  0.00    +0.280 C 
ATOM     28  O   UNL     1      -1.035   1.120   2.567  0.00  0.00    -0.467 OA
ENDBRANCH  25  28
ENDBRANCH   1  25
TORSDOF 4
