REMARK  Name = ZINC20613830
REMARK  10 active torsions:
REMARK  status: ('A' for Active; 'I' for Inactive)
REMARK    1  A    between atoms: C_1  and  C_2
REMARK    2  A    between atoms: C_5  and  C_9
REMARK    3  A    between atoms: C_7  and  C_8
REMARK    4  A    between atoms: C_12  and  C_34
REMARK    5  A    between atoms: C_17  and  C_19
REMARK    6  A    between atoms: N_21  and  N_22
REMARK    7  A    between atoms: N_22  and  C_23
REMARK    8  A    between atoms: C_23  and  N_25
REMARK    9  A    between atoms: N_25  and  C_26
REMARK   10  A    between atoms: C_26  and  C_27
REMARK                            x       y       z     vdW  Elec       q    Type
REMARK                         _______ _______ _______ _____ _____    ______ ____
ROOT
ATOM      1  C   UNL     1      -8.737   3.776   7.365  0.00  0.00    +0.104 C 
ATOM      2  C   UNL     1      -8.660   2.621   6.361  0.00  0.00    +0.063 C 
ATOM      3  C   UNL     1      -7.481   2.837   5.406  0.00  0.00    +0.215 C 
ATOM      4  N   UNL     1      -6.280   3.131   6.194  0.00  0.00    -0.238 N 
ATOM      5  C   UNL     1      -6.311   3.563   7.489  0.00  0.00    +0.119 A 
ATOM      6  C   UNL     1      -5.041   3.725   7.908  0.00  0.00    +0.078 A 
ATOM      7  C   UNL     1      -4.190   3.392   6.830  0.00  0.00    +0.150 A 
ATOM      8  N   UNL     1      -4.945   3.033   5.806  0.00  0.00    -0.164 NA
ATOM      9  N   UNL     1      -7.508   3.771   8.182  0.00  0.00    -0.322 N 
ATOM     10  H   UNL     1      -7.569   3.925   9.269  0.00  0.00    +0.148 HD
ENDROOT
BRANCH   1  15
ATOM     11  C   UNL     1      -9.167   8.797   4.537  0.00  0.00    +0.044 C 
ATOM     12  C   UNL     1      -9.055   7.488   5.274  0.00  0.00    -0.048 A 
ATOM     13  C   UNL     1      -7.825   6.869   5.401  0.00  0.00    +0.004 A 
ATOM     14  C   UNL     1      -7.723   5.668   6.077  0.00  0.00    +0.006 A 
ATOM     15  C   UNL     1      -8.849   5.086   6.628  0.00  0.00    -0.027 A 
ATOM     16  C   UNL     1     -10.080   5.702   6.497  0.00  0.00    +0.009 A 
ATOM     17  C   UNL     1     -10.182   6.906   5.824  0.00  0.00    -0.047 A 
ATOM     18  C   UNL     1     -11.522   7.580   5.685  0.00  0.00    +0.044 C 
ENDBRANCH   1  15
BRANCH   7  19
ATOM     19  C   UNL     1      -2.714   3.432   6.846  0.00  0.00    +0.280 C 
ATOM     20  O   UNL     1      -2.126   3.780   7.852  0.00  0.00    -0.267 OA
ATOM     21  N   UNL     1      -2.018   3.082   5.747  0.00  0.00    -0.230 N 
ATOM     22  H   UNL     1      -2.549   2.767   4.837  0.00  0.00    +0.173 HD
BRANCH  21  23
ATOM     23  N   UNL     1      -0.617   3.119   5.762  0.00  0.00    -0.246 N 
ATOM     24  H   UNL     1      -0.086   3.434   6.672  0.00  0.00    +0.172 HD
BRANCH  23  25
ATOM     25  C   UNL     1       0.079   2.770   4.662  0.00  0.00    +0.147 C 
ATOM     26  S   UNL     1       1.790   2.816   4.681  0.00  0.00    -0.017 S 
BRANCH  25  27
ATOM     27  N   UNL     1      -0.573   2.384   3.547  0.00  0.00    -0.323 N 
ATOM     28  H   UNL     1      -1.672   2.354   3.535  0.00  0.00    +0.148 HD
BRANCH  27  29
ATOM     29  C   UNL     1       0.184   2.003   2.352  0.00  0.00    +0.134 C 
BRANCH  29  30
ATOM     30  C   UNL     1      -0.788   1.610   1.237  0.00  0.00    +0.135 C 
ATOM     31  C   UNL     1      -0.013   1.086   0.008  0.00  0.00    +0.035 C 
ATOM     32  C   UNL     1      -0.811   1.623  -1.201  0.00  0.00    +0.031 C 
ATOM     33  C   UNL     1      -1.978   2.408  -0.561  0.00  0.00    +0.160 C 
ATOM     34  O   UNL     1      -1.501   2.772   0.753  0.00  0.00    -0.375 OA
ENDBRANCH  29  30
ENDBRANCH  27  29
ENDBRANCH  25  27
ENDBRANCH  23  25
ENDBRANCH  21  23
ENDBRANCH   7  19
BRANCH   3  35
ATOM     35  C   UNL     1      -7.253   1.570   4.579  0.00  0.00    +0.412 C 
ATOM     36  F   UNL     1      -6.984   0.496   5.434  0.00  0.00    -0.168 F 
ATOM     37  F   UNL     1      -8.400   1.291   3.828  0.00  0.00    -0.168 F 
ATOM     38  F   UNL     1      -6.168   1.764   3.718  0.00  0.00    -0.168 F 
ENDBRANCH   3  35
TORSDOF 8
