REMARK  Name = ZINC28053345
REMARK  4 active torsions:
REMARK  status: ('A' for Active; 'I' for Inactive)
REMARK    1  A    between atoms: C_1  and  O_2
REMARK    2  A    between atoms: O_2  and  C_3
REMARK    3  A    between atoms: C_8  and  C_9
REMARK    4  A    between atoms: C_26  and  C_28
REMARK                            x       y       z     vdW  Elec       q    Type
REMARK                         _______ _______ _______ _____ _____    ______ ____
ROOT
ATOM      1  C   UNL     1       3.899   2.549   2.598  0.00  0.00    +0.238 C 
ATOM      2  C   UNL     1       3.785   2.721   1.100  0.00  0.00    +0.026 C 
ATOM      3  C   UNL     1       3.521   3.931   0.603  0.00  0.00    +0.050 C 
ATOM      4  C   UNL     1       3.384   5.067   1.546  0.00  0.00    +0.038 A 
ATOM      5  C   UNL     1       2.792   6.263   1.161  0.00  0.00    +0.013 A 
ATOM      6  C   UNL     1       2.688   7.296   2.074  0.00  0.00    +0.001 A 
ATOM      7  C   UNL     1       3.169   7.141   3.362  0.00  0.00    +0.004 A 
ATOM      8  C   UNL     1       3.759   5.953   3.753  0.00  0.00    +0.046 A 
ATOM      9  C   UNL     1       3.869   4.911   2.851  0.00  0.00    +0.131 A 
ATOM     10  O   UNL     1       4.436   3.728   3.198  0.00  0.00    -0.479 OA
ATOM     11  N   UNL     1       3.385   4.162  -0.771  0.00  0.00    -0.282 N 
ATOM     12  C   UNL     1       3.814   3.162  -1.628  0.00  0.00    +0.240 A 
ATOM     13  N   UNL     1       4.034   3.166  -2.911  0.00  0.00    -0.092 NA
ATOM     14  N   UNL     1       4.444   2.006  -3.297  0.00  0.00    -0.021 NA
ATOM     15  N   UNL     1       4.509   1.193  -2.292  0.00  0.00    -0.042 NA
ATOM     16  N   UNL     1       4.098   1.914  -1.172  0.00  0.00    -0.201 N 
ATOM     17  C   UNL     1       3.965   1.508   0.220  0.00  0.00    +0.174 C 
ATOM     18  H   UNL     1       2.952   5.107  -1.130  0.00  0.00    +0.155 HD
ENDROOT
BRANCH   1  24
ATOM     19  C   UNL     1       2.194   0.997   3.584  0.00  0.00    +0.127 A 
ATOM     20  C   UNL     1       0.936   0.752   4.115  0.00  0.00    +0.046 A 
ATOM     21  C   UNL     1       0.021   1.780   4.224  0.00  0.00    +0.004 A 
ATOM     22  C   UNL     1       0.358   3.055   3.808  0.00  0.00    +0.001 A 
ATOM     23  C   UNL     1       1.612   3.303   3.282  0.00  0.00    +0.011 A 
ATOM     24  C   UNL     1       2.532   2.278   3.171  0.00  0.00    +0.039 A 
BRANCH  19  26
ATOM     25  C   UNL     1       2.652  -1.321   3.842  0.00  0.00    +0.277 C 
ATOM     26  O   UNL     1       3.094  -0.014   3.471  0.00  0.00    -0.495 OA
ENDBRANCH  19  26
ENDBRANCH   1  24
BRANCH  17  27
ATOM     27  C   UNL     1       2.768   0.605   0.365  0.00  0.00    -0.019 A 
ATOM     28  C   UNL     1       1.499   1.091   0.111  0.00  0.00    +0.006 A 
ATOM     29  C   UNL     1       0.401   0.262   0.244  0.00  0.00    +0.000 A 
ATOM     30  C   UNL     1       0.572  -1.054   0.632  0.00  0.00    +0.000 A 
ATOM     31  C   UNL     1       1.840  -1.540   0.888  0.00  0.00    +0.000 A 
ATOM     32  C   UNL     1       2.938  -0.711   0.754  0.00  0.00    +0.006 A 
ENDBRANCH  17  27
TORSDOF 3
