REMARK  Name = ZINC38651053
REMARK  6 active torsions:
REMARK  status: ('A' for Active; 'I' for Inactive)
REMARK    1  A    between atoms: C_10  and  C_11
REMARK    2  A    between atoms: C_11  and  O_13
REMARK    3  A    between atoms: O_13  and  C_14
REMARK    4  A    between atoms: C_21  and  N_34
REMARK    5  A    between atoms: C_22  and  C_32
REMARK    6  A    between atoms: C_23  and  C_25
REMARK                            x       y       z     vdW  Elec       q    Type
REMARK                         _______ _______ _______ _____ _____    ______ ____
ROOT
ATOM      1  C   UNL     1       7.404  -0.023  -0.129  0.00  0.00    +0.135 A 
ATOM      2  C   UNL     1       7.455   1.364  -0.082  0.00  0.00    +0.047 A 
ATOM      3  C   UNL     1       8.674   2.011  -0.119  0.00  0.00    +0.012 A 
ATOM      4  C   UNL     1       9.848   1.283  -0.202  0.00  0.00    +0.008 A 
ATOM      5  C   UNL     1       9.803  -0.102  -0.249  0.00  0.00    +0.138 A 
ATOM      6  C   UNL     1       8.578  -0.754  -0.206  0.00  0.00    +0.093 A 
ATOM      7  O   UNL     1      10.943  -0.832  -0.329  0.00  0.00    -0.441 OA
ATOM      8  C   UNL     1      12.081  -0.254  -0.747  0.00  0.00    +0.199 C 
ATOM      9  C   UNL     1      12.251   1.089  -0.731  0.00  0.00    +0.098 C 
ATOM     10  C   UNL     1      11.168   2.008  -0.240  0.00  0.00    +0.099 C 
ENDROOT
BRANCH  10  11
ATOM     11  C   UNL     1      11.512   2.491   1.145  0.00  0.00    -0.016 A 
ATOM     12  C   UNL     1      11.663   1.582   2.176  0.00  0.00    +0.006 A 
ATOM     13  C   UNL     1      11.979   2.025   3.447  0.00  0.00    +0.000 A 
ATOM     14  C   UNL     1      12.144   3.377   3.688  0.00  0.00    +0.001 A 
ATOM     15  C   UNL     1      11.994   4.285   2.658  0.00  0.00    +0.020 A 
ATOM     16  C   UNL     1      11.683   3.842   1.384  0.00  0.00    +0.045 A 
ATOM     17 CL   UNL     1      11.500   4.983   0.088  0.00  0.00    -0.083 Cl
ENDBRANCH  10  11
BRANCH   8  18
ATOM     18  N   UNL     1      13.102  -1.049  -1.204  0.00  0.00    -0.328 N 
ATOM     19  H   UNL     1      12.996  -2.013  -1.222  0.00  0.00    +0.145 HD
ATOM     20  H   UNL     1      13.931  -0.647  -1.509  0.00  0.00    +0.145 HD
ENDBRANCH   8  18
BRANCH   9  21
ATOM     21  C   UNL     1      13.488   1.645  -1.190  0.00  0.00    +0.101 C 
ATOM     22  N   UNL     1      14.470   2.087  -1.554  0.00  0.00    -0.191 NA
ENDBRANCH   9  21
BRANCH   1  23
ATOM     23  O   UNL     1       6.205  -0.661  -0.092  0.00  0.00    -0.422 OA
BRANCH  23  24
ATOM     24  C   UNL     1       5.843  -1.262   1.059  0.00  0.00    +0.345 C 
ATOM     25  O   UNL     1       6.535  -1.143   2.050  0.00  0.00    -0.245 OA
BRANCH  24  35
ATOM     26  C   UNL     1       3.556  -4.285   4.559  0.00  0.00    +0.001 A 
ATOM     27  C   UNL     1       4.733  -3.541   4.543  0.00  0.00    +0.001 A 
ATOM     28  C   UNL     1       5.090  -2.817   3.445  0.00  0.00    +0.009 A 
ATOM     29  C   UNL     1       4.264  -2.821   2.315  0.00  0.00    -0.004 A 
ATOM     30  C   UNL     1       3.066  -3.577   2.327  0.00  0.00    -0.017 A 
ATOM     31  C   UNL     1       2.729  -4.311   3.477  0.00  0.00    +0.008 A 
ATOM     32  C   UNL     1       2.239  -3.579   1.191  0.00  0.00    +0.008 A 
ATOM     33  C   UNL     1       2.579  -2.864   0.083  0.00  0.00    +0.001 A 
ATOM     34  C   UNL     1       3.743  -2.110   0.028  0.00  0.00    +0.015 A 
ATOM     35  C   UNL     1       4.607  -2.061   1.115  0.00  0.00    +0.067 A 
ENDBRANCH  24  35
ENDBRANCH  23  24
ENDBRANCH   1  23
TORSDOF 6
