REMARK  Name = ZINC39406094
REMARK  13 active torsions:
REMARK  status: ('A' for Active; 'I' for Inactive)
REMARK    1  A    between atoms: C_1  and  C_2
REMARK    2  A    between atoms: N_6  and  C_7
REMARK    3  A    between atoms: C_7  and  C_8
REMARK    4  A    between atoms: C_8  and  C_9
REMARK    5  A    between atoms: N_15  and  C_16
REMARK    6  A    between atoms: C_16  and  C_17
REMARK    7  A    between atoms: C_22  and  C_23
REMARK    8  A    between atoms: C_25  and  O_33
REMARK    9  A    between atoms: C_26  and  O_31
REMARK   10  A    between atoms: C_27  and  O_29
REMARK   11  A    between atoms: O_29  and  C_30
REMARK   12  A    between atoms: O_31  and  C_32
REMARK   13  A    between atoms: O_33  and  C_34
REMARK                            x       y       z     vdW  Elec       q    Type
REMARK                         _______ _______ _______ _____ _____    ______ ____
ROOT
ATOM      1  C   UNL     1       0.445   1.740   3.992  0.00  0.00    -0.063 C 
ENDROOT
BRANCH   1   7
ATOM      2  C   UNL     1      -1.551   0.443   4.277  0.00  0.00    -0.067 C 
ATOM      3  C   UNL     1      -3.022   0.487   4.698  0.00  0.00    -0.015 C 
ATOM      4  C   UNL     1      -3.112   0.881   6.175  0.00  0.00    -0.003 C 
ATOM      5  C   UNL     1      -2.410   2.226   6.379  0.00  0.00    -0.019 C 
ATOM      6  C   UNL     1      -0.962   2.118   5.895  0.00  0.00    -0.078 C 
ATOM      7  N   UNL     1      -0.944   1.766   4.470  0.00  0.00    +0.382 N 
ATOM      8  H   UNL     1      -1.465   2.454   3.948  0.00  0.00    -0.081 HD
BRANCH   2   9
ATOM      9  C   UNL     1      -1.455   0.050   2.801  0.00  0.00    +0.006 C 
BRANCH   9  10
ATOM     10  C   UNL     1      -2.012  -1.362   2.612  0.00  0.00    +0.121 C 
BRANCH  10  16
ATOM     11  C   UNL     1       0.409  -2.538   1.077  0.00  0.00    +0.084 C 
ATOM     12  C   UNL     1      -0.948  -2.221   0.503  0.00  0.00    +0.084 A 
ATOM     13  N   UNL     1      -1.311  -2.403  -0.737  0.00  0.00    -0.350 N 
ATOM     14  C   UNL     1      -2.585  -2.012  -0.887  0.00  0.00    +0.101 A 
ATOM     15  C   UNL     1      -3.029  -1.571   0.305  0.00  0.00    +0.104 A 
ATOM     16  N   UNL     1      -1.993  -1.709   1.189  0.00  0.00    -0.336 N 
ATOM     17  H   UNL     1      -0.748  -2.764  -1.440  0.00  0.00    +0.166 HD
ENDBRANCH  10  16
ENDBRANCH   9  10
ENDBRANCH   2   9
ENDBRANCH   1   7
BRANCH   1  18
ATOM     18  C   UNL     1       1.039   3.147   4.075  0.00  0.00    +0.066 C 
ATOM     19  C   UNL     1       0.381   4.065   3.065  0.00  0.00    +0.115 C 
ATOM     20  N   UNL     1       1.322   4.456   2.268  0.00  0.00    -0.161 NA
ATOM     21  N   UNL     1       2.560   3.918   2.602  0.00  0.00    -0.153 NA
ATOM     22  C   UNL     1       2.495   3.138   3.651  0.00  0.00    +0.077 C 
BRANCH  22  23
ATOM     23  C   UNL     1       3.599   2.406   4.287  0.00  0.00    +0.006 A 
ATOM     24  C   UNL     1       3.356   1.604   5.408  0.00  0.00    +0.059 A 
ATOM     25  C   UNL     1       4.396   0.917   6.003  0.00  0.00    +0.166 A 
ATOM     26  C   UNL     1       5.686   1.022   5.489  0.00  0.00    +0.204 A 
ATOM     27  C   UNL     1       5.933   1.819   4.375  0.00  0.00    +0.166 A 
ATOM     28  C   UNL     1       4.896   2.504   3.770  0.00  0.00    +0.059 A 
BRANCH  27  29
ATOM     29  O   UNL     1       7.194   1.920   3.877  0.00  0.00    -0.491 OA
ATOM     30  C   UNL     1       7.375   2.755   2.732  0.00  0.00    +0.277 C 
ENDBRANCH  27  29
BRANCH  26  31
ATOM     31  O   UNL     1       6.708   0.345   6.078  0.00  0.00    -0.488 OA
ATOM     32  C   UNL     1       6.973  -0.975   5.598  0.00  0.00    +0.277 C 
ENDBRANCH  26  31
BRANCH  25  33
ATOM     33  O   UNL     1       4.161   0.137   7.093  0.00  0.00    -0.491 OA
ATOM     34  C   UNL     1       2.814   0.076   7.567  0.00  0.00    +0.277 C 
ENDBRANCH  25  33
ENDBRANCH  22  23
ENDBRANCH   1  18
TORSDOF 9
