REMARK  Name = ZINC18517644
REMARK  11 active torsions:
REMARK  status: ('A' for Active; 'I' for Inactive)
REMARK    1  A    between atoms: C_1  and  C_2
REMARK    2  A    between atoms: N_10  and  C_13
REMARK    3  A    between atoms: C_13  and  C_15
REMARK    4  A    between atoms: C_13  and  C_16
REMARK    5  A    between atoms: C_16  and  O_18
REMARK    6  A    between atoms: O_18  and  C_19
REMARK    7  A    between atoms: C_19  and  C_21
REMARK    8  A    between atoms: C_19  and  C_22
REMARK    9  A    between atoms: N_27  and  C_28
REMARK   10  A    between atoms: C_28  and  C_29
REMARK   11  A    between atoms: C_28  and  C_30
REMARK                            x       y       z     vdW  Elec       q    Type
REMARK                         _______ _______ _______ _____ _____    ______ ____
ROOT
ATOM      1  C   UNL     1      -0.031  -0.704   2.280  0.00  0.00    +0.329 C 
ATOM      2  O   UNL     1      -1.222  -0.501   2.262  0.00  0.00    -0.249 OA
ENDROOT
BRANCH   1   3
ATOM      3  C   UNL     1       0.629  -1.204   3.539  0.00  0.00    +0.190 C 
ATOM      4  C   UNL     1       1.295  -2.554   3.265  0.00  0.00    +0.040 C 
BRANCH   3  14
ATOM      5  C   UNL     1      -3.728  -1.049   9.633  0.00  0.00    +0.044 C 
ATOM      6  C   UNL     1      -3.194  -1.401   8.268  0.00  0.00    -0.050 A 
ATOM      7  C   UNL     1      -3.870  -2.314   7.481  0.00  0.00    +0.004 A 
ATOM      8  C   UNL     1      -3.392  -2.649   6.224  0.00  0.00    +0.014 A 
ATOM      9  C   UNL     1      -2.228  -2.063   5.754  0.00  0.00    +0.049 A 
ATOM     10  C   UNL     1      -1.537  -1.133   6.557  0.00  0.00    +0.050 A 
ATOM     11  C   UNL     1      -2.028  -0.807   7.811  0.00  0.00    +0.017 A 
ATOM     12  C   UNL     1      -0.358  -0.716   5.769  0.00  0.00    +0.255 C 
ATOM     13  O   UNL     1       0.488   0.079   6.127  0.00  0.00    -0.270 OA
ATOM     14  N   UNL     1      -0.380  -1.362   4.590  0.00  0.00    -0.220 N 
ATOM     15  C   UNL     1      -1.447  -2.177   4.504  0.00  0.00    +0.255 C 
ATOM     16  O   UNL     1      -1.722  -2.887   3.558  0.00  0.00    -0.270 OA
ENDBRANCH   3  14
ENDBRANCH   1   3
BRANCH   1  17
ATOM     17  O   UNL     1       0.704  -0.485   1.178  0.00  0.00    -0.451 OA
BRANCH  17  18
ATOM     18  C   UNL     1       0.002  -0.004   0.002  0.00  0.00    +0.259 C 
ATOM     19  C   UNL     1      -0.019   1.526   0.010  0.00  0.00    +0.062 C 
BRANCH  18  20
ATOM     20  C   UNL     1       0.707  -0.490  -1.238  0.00  0.00    +0.261 C 
ATOM     21  O   UNL     1       1.753  -1.097  -1.142  0.00  0.00    -0.271 OA
ATOM     22  N   UNL     1       0.176  -0.250  -2.453  0.00  0.00    -0.237 N 
ATOM     23  C   UNL     1       0.807  -0.685  -3.562  0.00  0.00    +0.306 C 
ATOM     24  O   UNL     1       1.855  -1.293  -3.466  0.00  0.00    -0.252 OA
ATOM     25  N   UNL     1       0.276  -0.445  -4.777  0.00  0.00    -0.297 N 
ATOM     26  H   UNL     1      -0.660   0.235  -2.530  0.00  0.00    +0.159 HD
ATOM     27  H   UNL     1      -0.560   0.041  -4.854  0.00  0.00    +0.151 HD
BRANCH  25  28
ATOM     28  C   UNL     1       0.962  -0.917  -5.983  0.00  0.00    +0.068 C 
ATOM     29  C   UNL     1       0.566  -2.369  -6.258  0.00  0.00    +0.027 C 
ATOM     30  C   UNL     1       0.560  -0.044  -7.173  0.00  0.00    +0.027 C 
ENDBRANCH  25  28
ENDBRANCH  18  20
ENDBRANCH  17  18
ENDBRANCH   1  17
TORSDOF 6
