REMARK  Name = ZINC09378956
REMARK  3 active torsions:
REMARK  status: ('A' for Active; 'I' for Inactive)
REMARK    1  A    between atoms: C_1  and  C_2
REMARK    2  A    between atoms: C_5  and  C_13
REMARK    3  A    between atoms: N_6  and  C_7
REMARK                            x       y       z     vdW  Elec       q    Type
REMARK                         _______ _______ _______ _____ _____    ______ ____
ROOT
ATOM      1  C   UNL     1      -0.013   1.086   0.008  0.00  0.00    +0.064 C 
ATOM      2  C   UNL     1      -0.718   1.572   1.248  0.00  0.00    +0.024 A 
ATOM      3  C   UNL     1      -0.144   1.835   2.426  0.00  0.00    -0.025 A 
ATOM      4  C   UNL     1      -1.164   2.262   3.316  0.00  0.00    -0.021 A 
ATOM      5  C   UNL     1      -2.319   2.246   2.641  0.00  0.00    +0.024 A 
ATOM      6  N   UNL     1      -2.059   1.827   1.363  0.00  0.00    -0.317 N 
ATOM      7  C   UNL     1      -3.670   2.627   3.190  0.00  0.00    +0.064 C 
ATOM      8  C   UNL     1      -0.881   2.639   4.743  0.00  0.00    +0.065 C 
ATOM      9  C   UNL     1      -1.932   2.110   5.665  0.00  0.00    -0.024 A 
ATOM     10  C   UNL     1      -2.341   0.824   5.946  0.00  0.00    +0.005 A 
ATOM     11  C   UNL     1      -3.367   0.675   6.873  0.00  0.00    +0.000 A 
ATOM     12  C   UNL     1      -3.948   1.769   7.482  0.00  0.00    +0.002 A 
ATOM     13  C   UNL     1      -3.543   3.065   7.205  0.00  0.00    +0.023 A 
ATOM     14  C   UNL     1      -2.514   3.228   6.276  0.00  0.00    +0.036 A 
ATOM     15  N   UNL     1      -1.920   4.390   5.818  0.00  0.00    -0.286 N 
ATOM     16  C   UNL     1      -0.950   4.140   4.914  0.00  0.00    +0.215 C 
ATOM     17  O   UNL     1      -0.262   4.963   4.347  0.00  0.00    -0.276 OA
ATOM     18  C   UNL     1       1.474   2.542   4.138  0.00  0.00    -0.075 C 
ATOM     19  C   UNL     1       1.303   1.738   2.841  0.00  0.00    +0.018 C 
ATOM     20  H   UNL     1      -2.172   5.280   6.112  0.00  0.00    +0.155 HD
ATOM     21  N   UNL     1       0.454   2.137   5.129  0.00  0.00    +0.394 N 
ATOM     22  H   UNL     1       0.425   1.113   5.184  0.00  0.00    -0.083 HD
ATOM     23  H   UNL     1       0.705   2.522   6.047  0.00  0.00    -0.083 HD
ENDROOT
BRANCH   6  24
ATOM     24  C   UNL     1      -3.009   1.680   0.343  0.00  0.00    +0.047 A 
ATOM     25  C   UNL     1      -3.679   2.792  -0.149  0.00  0.00    +0.026 A 
ATOM     26  C   UNL     1      -4.611   2.646  -1.157  0.00  0.00    +0.002 A 
ATOM     27  C   UNL     1      -4.884   1.391  -1.671  0.00  0.00    +0.000 A 
ATOM     28  C   UNL     1      -4.222   0.281  -1.180  0.00  0.00    +0.002 A 
ATOM     29  C   UNL     1      -3.285   0.422  -0.175  0.00  0.00    +0.026 A 
ENDBRANCH   6  24
TORSDOF 1
