REMARK  Name = ZINC03830608
REMARK  6 active torsions:
REMARK  status: ('A' for Active; 'I' for Inactive)
REMARK    1  A    between atoms: C_1  and  C_2
REMARK    2  A    between atoms: C_2  and  C_24
REMARK    3  A    between atoms: CA_3  and  C_22
REMARK    4  A    between atoms: CA_9  and  N_13
REMARK    5  A    between atoms: C_14  and  C_16
REMARK    6  A    between atoms: C_16  and  N_44
REMARK                            x       y       z     vdW  Elec       q    Type
REMARK                         _______ _______ _______ _____ _____    ______ ____
ROOT
ATOM      1  N   UNL     1      -2.458  -0.211  -0.542  0.00  0.00    -0.303 N 
ATOM      2  C   UNL     1      -2.213   1.024  -1.022  0.00  0.00    +0.202 C 
ATOM      3  O   UNL     1      -3.133   1.731  -1.375  0.00  0.00    -0.277 OA
ATOM      4  H   UNL     1      -1.722  -0.777  -0.259  0.00  0.00    +0.149 HD
ENDROOT
BRANCH   1  11
ATOM      5  C   UNL     1      -7.858  -3.368  -0.748  0.00  0.00    +0.025 C 
ATOM      6  C   UNL     1      -6.404  -3.457  -0.280  0.00  0.00    +0.042 C 
ATOM      7  CA  UNL     1      -6.086  -2.387   0.802  0.00  0.00    +0.206 C 
ATOM      8  N   UNL     1      -4.661  -2.036   0.817  0.00  0.00    -0.271 N 
ATOM      9  C   UNL     1      -3.940  -2.221  -0.461  0.00  0.00    +0.165 C 
ATOM     10  S   UNL     1      -5.232  -2.883  -1.589  0.00  0.00    -0.127 S 
ATOM     11  CA  UNL     1      -3.835  -0.700  -0.447  0.00  0.00    +0.190 C 
ATOM     12  C   UNL     1      -4.370  -0.714   0.964  0.00  0.00    +0.240 C 
ATOM     13  O   UNL     1      -4.489   0.104   1.852  0.00  0.00    -0.273 OA
ATOM     14  C   UNL     1      -6.060  -4.867   0.204  0.00  0.00    +0.025 C 
BRANCH   7  15
ATOM     15  C   UNL     1      -6.474  -2.923   2.156  0.00  0.00    +0.377 C 
ATOM     16  O   UNL     1      -5.622  -3.318   2.916  0.00  0.00    -0.244 OA
ATOM     17  OXT UNL     1      -7.766  -2.963   2.517  0.00  0.00    -0.244 OA
ENDBRANCH   7  15
ENDBRANCH   1  11
BRANCH   2  18
ATOM     18  C   UNL     1      -0.795   1.527  -1.120  0.00  0.00    +0.007 C 
ATOM     19  C   UNL     1      -0.175   1.052  -2.435  0.00  0.00    -0.004 C 
ATOM     20  C   UNL     1       1.263   1.563  -2.535  0.00  0.00    -0.001 C 
ATOM     21  C   UNL     1       1.266   3.092  -2.493  0.00  0.00    -0.000 C 
ATOM     22  C   UNL     1       0.646   3.567  -1.177  0.00  0.00    -0.001 C 
ATOM     23  C   UNL     1      -0.793   3.056  -1.078  0.00  0.00    -0.004 C 
BRANCH  18  26
ATOM     24  H   UNL     1       0.002  -0.004   0.002  0.00  0.00    -0.089 HD
ATOM     25  H   UNL     1       0.925   1.379   0.001  0.00  0.00    -0.089 HD
ATOM     26  N   UNL     1      -0.025   1.014   0.027  0.00  0.00    +0.388 N 
ATOM     27  H   UNL     1      -0.476   1.316   0.899  0.00  0.00    -0.089 HD
ENDBRANCH  18  26
ENDBRANCH   2  18
TORSDOF 4
