REMARK  Name = ZINC05969759
REMARK  4 active torsions:
REMARK  status: ('A' for Active; 'I' for Inactive)
REMARK    1  A    between atoms: C_1  and  C_2
REMARK    2  A    between atoms: C_6  and  C_8
REMARK    3  A    between atoms: N_9  and  N_10
REMARK    4  A    between atoms: C_11  and  C_16
REMARK                            x       y       z     vdW  Elec       q    Type
REMARK                         _______ _______ _______ _____ _____    ______ ____
ROOT
ATOM      1  N   UNL     1       0.084  -4.854   3.648  0.00  0.00    -0.185 N 
ATOM      2  C   UNL     1       1.191  -5.259   4.364  0.00  0.00    +0.204 A 
ATOM      3  N   UNL     1       0.751  -5.894   5.427  0.00  0.00    -0.125 NA
ATOM      4  N   UNL     1      -0.534  -5.914   5.426  0.00  0.00    -0.119 NA
ATOM      5  C   UNL     1      -0.997  -5.289   4.365  0.00  0.00    +0.223 A 
ATOM      6  S   UNL     1      -2.692  -5.058   3.945  0.00  0.00    -0.007 SA
ENDROOT
BRANCH   2   7
ATOM      7  C   UNL     1       2.603  -5.023   4.003  0.00  0.00    +0.110 A 
ATOM      8  C   UNL     1       3.619  -5.502   4.833  0.00  0.00    +0.031 A 
ATOM      9  C   UNL     1       4.937  -5.274   4.481  0.00  0.00    +0.004 A 
ATOM     10  C   UNL     1       5.200  -4.572   3.312  0.00  0.00    +0.020 A 
ATOM     11  C   UNL     1       4.146  -4.126   2.537  0.00  0.00    +0.111 A 
ATOM     12  N   UNL     1       2.898  -4.360   2.890  0.00  0.00    -0.252 NA
ENDBRANCH   2   7
BRANCH   1  14
ATOM     13  C   UNL     1       0.052  -2.845   2.454  0.00  0.00    +0.141 C 
ATOM     14  N   UNL     1       0.069  -4.142   2.441  0.00  0.00    -0.170 NA
BRANCH  13  20
ATOM     15  C   UNL     1      -0.018   1.503   0.010  0.00  0.00    +0.044 C 
ATOM     16  C   UNL     1       0.002  -0.004   0.002  0.00  0.00    -0.050 A 
ATOM     17  C   UNL     1       0.006  -0.688  -1.201  0.00  0.00    +0.003 A 
ATOM     18  C   UNL     1       0.024  -2.071  -1.218  0.00  0.00    +0.001 A 
ATOM     19  C   UNL     1       0.040  -2.779  -0.034  0.00  0.00    +0.009 A 
ATOM     20  C   UNL     1       0.036  -2.095   1.184  0.00  0.00    -0.005 A 
ATOM     21  C   UNL     1       0.023  -0.698   1.194  0.00  0.00    +0.012 A 
ENDBRANCH  13  20
ENDBRANCH   1  14
TORSDOF 3
