REMARK  Name = ZINC04718511
REMARK  7 active torsions:
REMARK  status: ('A' for Active; 'I' for Inactive)
REMARK    1  A    between atoms: C_1  and  C_2
REMARK    2  A    between atoms: C_2  and  C_3
REMARK    3  A    between atoms: C_2  and  C_4
REMARK    4  A    between atoms: C_2  and  C_5
REMARK    5  A    between atoms: C_12  and  N_24
REMARK    6  A    between atoms: C_13  and  C_22
REMARK    7  A    between atoms: C_14  and  C_16
REMARK                            x       y       z     vdW  Elec       q    Type
REMARK                         _______ _______ _______ _____ _____    ______ ____
ROOT
ATOM      1  C   UNL     1       1.158  -0.940  -1.956  0.00  0.00    +0.076 A 
ATOM      2  C   UNL     1       0.747  -2.247  -2.178  0.00  0.00    +0.050 A 
ATOM      3  C   UNL     1       0.971  -2.544  -3.493  0.00  0.00    +0.222 A 
ATOM      4  N   UNL     1       1.506  -1.456  -4.070  0.00  0.00    -0.246 N 
ATOM      5  H   UNL     1       1.770  -1.374  -5.000  0.00  0.00    +0.192 HD
ATOM      6  N   UNL     1       1.610  -0.457  -3.090  0.00  0.00    -0.175 NA
ATOM      7  O   UNL     1       0.672  -3.752  -4.032  0.00  0.00    -0.423 OA
ATOM      8  C   UNL     1      -0.111  -4.581  -3.311  0.00  0.00    +0.200 C 
ATOM      9  C   UNL     1      -0.394  -4.399  -2.002  0.00  0.00    +0.098 C 
ATOM     10  C   UNL     1       0.150  -3.237  -1.211  0.00  0.00    +0.103 C 
ENDROOT
BRANCH  10  11
ATOM     11  C   UNL     1       1.214  -3.722  -0.260  0.00  0.00    -0.016 A 
ATOM     12  C   UNL     1       0.925  -3.902   1.085  0.00  0.00    +0.007 A 
ATOM     13  C   UNL     1       1.935  -4.350   1.922  0.00  0.00    +0.020 A 
ATOM     14  C   UNL     1       3.187  -4.601   1.393  0.00  0.00    +0.111 A 
ATOM     15  N   UNL     1       3.426  -4.419   0.110  0.00  0.00    -0.263 NA
ATOM     16  C   UNL     1       2.488  -3.999  -0.718  0.00  0.00    +0.115 A 
ENDBRANCH  10  11
BRANCH   1  18
ATOM     17  C   UNL     1       1.496   1.258  -0.859  0.00  0.00    +0.017 C 
ATOM     18  C   UNL     1       1.091  -0.201  -0.644  0.00  0.00    +0.007 C 
ATOM     19  C   UNL     1       2.046  -0.854   0.357  0.00  0.00    +0.017 C 
ATOM     20  C   UNL     1      -0.337  -0.259  -0.099  0.00  0.00    +0.017 C 
ENDBRANCH   1  18
BRANCH   8  21
ATOM     21  N   UNL     1      -0.650  -5.673  -3.944  0.00  0.00    -0.328 N 
ATOM     22  H   UNL     1      -0.465  -5.831  -4.883  0.00  0.00    +0.145 HD
ATOM     23  H   UNL     1      -1.217  -6.288  -3.452  0.00  0.00    +0.145 HD
ENDBRANCH   8  21
BRANCH   9  24
ATOM     24  C   UNL     1      -1.243  -5.346  -1.343  0.00  0.00    +0.101 C 
ATOM     25  N   UNL     1      -1.916  -6.096  -0.820  0.00  0.00    -0.191 NA
ENDBRANCH   9  24
TORSDOF 4
