REMARK  Name = ZINC39669668
REMARK  8 active torsions:
REMARK  status: ('A' for Active; 'I' for Inactive)
REMARK    1  A    between atoms: C_1  and  C_2
REMARK    2  A    between atoms: C_2  and  C_3
REMARK    3  A    between atoms: C_7  and  C_16
REMARK    4  A    between atoms: N_18  and  C_19
REMARK    5  A    between atoms: C_19  and  C_20
REMARK    6  A    between atoms: C_20  and  C_21
REMARK    7  A    between atoms: C_20  and  C_22
REMARK    8  A    between atoms: C_20  and  N_23
REMARK                            x       y       z     vdW  Elec       q    Type
REMARK                         _______ _______ _______ _____ _____    ______ ____
ROOT
ATOM      1  C   UNL     1      -1.548  -0.648  -0.413  0.00  0.00    +0.215 C 
ATOM      2  O   UNL     1      -2.512   0.088  -0.449  0.00  0.00    -0.276 OA
ATOM      3  N   UNL     1      -1.721  -1.983  -0.351  0.00  0.00    -0.300 N 
ATOM      4  C   UNL     1      -0.677  -3.032  -0.294  0.00  0.00    +0.121 C 
ATOM      5  C   UNL     1      -1.228  -4.078   0.701  0.00  0.00    +0.100 C 
ATOM      6  C   UNL     1      -2.753  -3.878   0.675  0.00  0.00    -0.004 C 
ATOM      7  C   UNL     1      -3.000  -2.732  -0.317  0.00  0.00    +0.115 C 
ATOM      8  C   UNL     1      -3.445  -5.151   0.198  0.00  0.00    -0.010 C 
ATOM      9  C   UNL     1      -4.962  -4.946   0.237  0.00  0.00    -0.082 C 
ATOM     10  N   UNL     1      -5.379  -4.623   1.607  0.00  0.00    +0.379 N 
ATOM     11  C   UNL     1      -4.782  -3.349   2.025  0.00  0.00    -0.082 C 
ATOM     12  C   UNL     1      -3.257  -3.486   2.061  0.00  0.00    -0.010 C 
ATOM     13  H   UNL     1      -6.385  -4.549   1.642  0.00  0.00    -0.086 HD
ATOM     14  H   UNL     1      -5.077  -5.356   2.231  0.00  0.00    -0.086 HD
ENDROOT
BRANCH   5  15
ATOM     15  C   UNL     1      -0.872  -5.471   0.248  0.00  0.00    +0.218 C 
ATOM     16  O   UNL     1      -0.766  -5.716  -0.934  0.00  0.00    -0.275 OA
ATOM     17  N   UNL     1      -0.671  -6.444   1.159  0.00  0.00    -0.313 N 
ATOM     18  H   UNL     1      -0.756  -6.248   2.105  0.00  0.00    +0.149 HD
BRANCH  17  19
ATOM     19  C   UNL     1      -0.325  -7.798   0.720  0.00  0.00    +0.126 C 
BRANCH  19  20
ATOM     20  C   UNL     1      -0.276  -8.731   1.931  0.00  0.00    +0.032 C 
ATOM     21  C   UNL     1      -1.675  -8.855   2.537  0.00  0.00    +0.029 C 
ATOM     22  C   UNL     1       0.215 -10.112   1.493  0.00  0.00    +0.029 C 
BRANCH  20  23
ATOM     23  N   UNL     1       0.645  -8.181   2.936  0.00  0.00    -0.291 NA
ATOM     24  C   UNL     1       1.989  -7.993   2.371  0.00  0.00    +0.113 C 
ATOM     25  C   UNL     1       2.898  -7.364   3.430  0.00  0.00    +0.175 C 
ATOM     26  O   UNL     1       2.910  -8.195   4.595  0.00  0.00    -0.377 OA
ATOM     27  C   UNL     1       1.617  -8.398   5.171  0.00  0.00    +0.175 C 
ATOM     28  C   UNL     1       0.695  -9.037   4.129  0.00  0.00    +0.113 C 
ENDBRANCH  20  23
ENDBRANCH  19  20
ENDBRANCH  17  19
ENDBRANCH   5  15
BRANCH   1  30
ATOM     29  C   UNL     1      -0.241   1.457  -0.511  0.00  0.00    +0.013 C 
ATOM     30  C   UNL     1      -0.157  -0.069  -0.439  0.00  0.00    +0.092 C 
ENDBRANCH   1  30
TORSDOF 5
