REMARK  Name = ZINC09087928
REMARK  9 active torsions:
REMARK  status: ('A' for Active; 'I' for Inactive)
REMARK    1  A    between atoms: C_1  and  C_2
REMARK    2  A    between atoms: C_2  and  C_3
REMARK    3  A    between atoms: C_3  and  C_4
REMARK    4  A    between atoms: C_11  and  N_32
REMARK    5  A    between atoms: C_12  and  C_30
REMARK    6  A    between atoms: C_13  and  C_15
REMARK    7  A    between atoms: C_20  and  O_21
REMARK    8  A    between atoms: O_21  and  C_22
REMARK    9  A    between atoms: C_22  and  C_23
REMARK                            x       y       z     vdW  Elec       q    Type
REMARK                         _______ _______ _______ _____ _____    ______ ____
ROOT
ATOM      1  C   UNL     1       0.762  -2.018   1.233  0.00  0.00    +0.071 A 
ATOM      2  C   UNL     1      -0.197  -2.849   1.795  0.00  0.00    +0.050 A 
ATOM      3  C   UNL     1       0.184  -4.144   1.577  0.00  0.00    +0.222 A 
ATOM      4  N   UNL     1       1.343  -4.117   0.899  0.00  0.00    -0.246 N 
ATOM      5  H   UNL     1       1.850  -4.889   0.605  0.00  0.00    +0.192 HD
ATOM      6  N   UNL     1       1.687  -2.773   0.689  0.00  0.00    -0.176 NA
ATOM      7  O   UNL     1      -0.544  -5.204   2.008  0.00  0.00    -0.423 OA
ATOM      8  C   UNL     1      -1.525  -4.966   2.902  0.00  0.00    +0.200 C 
ATOM      9  C   UNL     1      -1.994  -3.732   3.193  0.00  0.00    +0.098 C 
ATOM     10  C   UNL     1      -1.462  -2.486   2.530  0.00  0.00    +0.105 C 
ENDROOT
BRANCH  10  11
ATOM     11  C   UNL     1      -2.480  -1.952   1.556  0.00  0.00    +0.008 A 
ATOM     12  C   UNL     1      -2.925  -2.745   0.516  0.00  0.00    +0.028 A 
ATOM     13  C   UNL     1      -3.860  -2.255  -0.378  0.00  0.00    +0.041 A 
ATOM     14  C   UNL     1      -4.351  -0.970  -0.232  0.00  0.00    +0.023 A 
ATOM     15  C   UNL     1      -3.909  -0.174   0.807  0.00  0.00    +0.047 A 
ATOM     16  C   UNL     1      -2.976  -0.665   1.708  0.00  0.00    +0.125 A 
ATOM     17 CL   UNL     1      -4.416  -3.253  -1.685  0.00  0.00    -0.084 Cl
BRANCH  16  18
ATOM     18  O   UNL     1      -2.544   0.114   2.734  0.00  0.00    -0.487 OA
BRANCH  18  19
ATOM     19  C   UNL     1      -3.098   1.428   2.828  0.00  0.00    +0.264 C 
BRANCH  19  20
ATOM     20  C   UNL     1      -2.506   2.139   4.017  0.00  0.00    -0.010 A 
ATOM     21  C   UNL     1      -3.113   2.039   5.255  0.00  0.00    +0.007 A 
ATOM     22  C   UNL     1      -2.570   2.691   6.346  0.00  0.00    +0.000 A 
ATOM     23  C   UNL     1      -1.419   3.443   6.200  0.00  0.00    +0.000 A 
ATOM     24  C   UNL     1      -0.811   3.542   4.962  0.00  0.00    +0.000 A 
ATOM     25  C   UNL     1      -1.352   2.886   3.872  0.00  0.00    +0.007 A 
ENDBRANCH  19  20
ENDBRANCH  18  19
ENDBRANCH  16  18
ENDBRANCH  10  11
BRANCH   8  26
ATOM     26  N   UNL     1      -2.078  -6.039   3.556  0.00  0.00    -0.328 N 
ATOM     27  H   UNL     1      -1.762  -6.936   3.369  0.00  0.00    +0.145 HD
ATOM     28  H   UNL     1      -2.785  -5.899   4.205  0.00  0.00    +0.145 HD
ENDBRANCH   8  26
BRANCH   9  29
ATOM     29  C   UNL     1      -3.037  -3.603   4.167  0.00  0.00    +0.101 C 
ATOM     30  N   UNL     1      -3.864  -3.501   4.939  0.00  0.00    -0.191 NA
ENDBRANCH   9  29
BRANCH   1  31
ATOM     31  C   UNL     1       0.742  -0.511   1.242  0.00  0.00    +0.057 C 
BRANCH  31  33
ATOM     32  C   UNL     1      -0.019   1.526   0.010  0.00  0.00    +0.004 C 
ATOM     33  C   UNL     1       0.002  -0.004   0.002  0.00  0.00    +0.003 C 
ENDBRANCH  31  33
ENDBRANCH   1  31
TORSDOF 8
