REMARK  Name = ZINC23607641
REMARK  5 active torsions:
REMARK  status: ('A' for Active; 'I' for Inactive)
REMARK    1  A    between atoms: C_1  and  N_2
REMARK    2  A    between atoms: N_10  and  C_11
REMARK    3  A    between atoms: C_11  and  C_13
REMARK    4  A    between atoms: C_16  and  C_19
REMARK    5  A    between atoms: C_19  and  N_20
REMARK                            x       y       z     vdW  Elec       q    Type
REMARK                         _______ _______ _______ _____ _____    ______ ____
ROOT
ATOM      1  C   UNL     1      -5.613  -2.117   0.017  0.00  0.00    +0.269 C 
ATOM      2  O   UNL     1      -6.064  -2.523   1.070  0.00  0.00    -0.268 OA
ENDROOT
BRANCH   1  12
ATOM      3  C   UNL     1     -12.026  -7.472  -1.094  0.00  0.00    +0.105 C 
ATOM      4  N   UNL     1     -11.062  -6.414  -1.424  0.00  0.00    -0.300 NA
ATOM      5  C   UNL     1     -10.268  -6.776  -2.607  0.00  0.00    +0.090 C 
ATOM      6  C   UNL     1      -9.548  -5.543  -3.162  0.00  0.00    +0.069 C 
ATOM      7  C   UNL     1      -8.786  -4.883  -2.018  0.00  0.00    +0.030 A 
ATOM      8  C   UNL     1      -9.117  -5.186  -0.733  0.00  0.00    +0.026 A 
ATOM      9  S   UNL     1      -7.983  -4.199   0.203  0.00  0.00    -0.056 S 
ATOM     10  C   UNL     1      -7.168  -3.471  -1.150  0.00  0.00    +0.164 A 
ATOM     11  N   UNL     1      -7.799  -4.008  -2.175  0.00  0.00    -0.339 N 
ATOM     12  N   UNL     1      -6.125  -2.555  -1.150  0.00  0.00    -0.152 NA
ATOM     13  C   UNL     1     -10.182  -6.122  -0.275  0.00  0.00    +0.128 C 
ATOM     14  H   UNL     1      -7.485  -3.710  -3.187  0.00  0.00    +0.167 HD
ENDBRANCH   1  12
BRANCH   1  15
ATOM     15  C   UNL     1      -4.502  -1.141   0.017  0.00  0.00    +0.039 A 
ATOM     16  C   UNL     1      -3.970  -0.685   1.224  0.00  0.00    +0.013 A 
ATOM     17  C   UNL     1      -2.933   0.225   1.217  0.00  0.00    +0.006 A 
ATOM     18  C   UNL     1      -2.422   0.686   0.017  0.00  0.00    -0.030 A 
ATOM     19  C   UNL     1      -2.949   0.242  -1.183  0.00  0.00    +0.006 A 
ATOM     20  C   UNL     1      -3.982  -0.672  -1.190  0.00  0.00    +0.013 A 
BRANCH  18  21
ATOM     21  C   UNL     1      -1.290   1.681   0.017  0.00  0.00    +0.141 C 
BRANCH  21  22
ATOM     22  N   UNL     1      -0.011   0.966   0.007  0.00  0.00    -0.295 N 
ATOM     23  C   UNL     1       1.147   1.655   0.000  0.00  0.00    +0.297 C 
ATOM     24  O   UNL     1       1.130   2.871   0.007  0.00  0.00    -0.253 OA
ATOM     25  N   UNL     1       2.323   0.998  -0.015  0.00  0.00    -0.313 N 
ATOM     26  H   UNL     1       0.004  -0.134   0.006  0.00  0.00    +0.151 HD
ATOM     27  H   UNL     1       3.268   1.560  -0.021  0.00  0.00    +0.146 HD
ATOM     28  H   UNL     1       2.338  -0.102  -0.021  0.00  0.00    +0.146 HD
ENDBRANCH  21  22
ENDBRANCH  18  21
ENDBRANCH   1  15
TORSDOF 4
