REMARK  Name = ZINC03442070
REMARK  4 active torsions:
REMARK  status: ('A' for Active; 'I' for Inactive)
REMARK    1  A    between atoms: C_10  and  N_12
REMARK    2  A    between atoms: N_12  and  S_13
REMARK    3  A    between atoms: S_13  and  C_16
REMARK    4  A    between atoms: C_21  and  C_22
REMARK                            x       y       z     vdW  Elec       q    Type
REMARK                         _______ _______ _______ _____ _____    ______ ____
ROOT
ATOM      1  N   UNL     1      -2.391   5.114   1.095  0.00  0.00    -0.183 NA
ATOM      2  H   UNL     1      -2.195   4.922   2.025  0.00  0.00    +0.149 HD
ENDROOT
BRANCH   1  12
ATOM      3  C   UNL     1      -1.274   0.360   0.390  0.00  0.00    +0.000 A 
ATOM      4  C   UNL     1      -0.537   1.521   0.248  0.00  0.00    +0.000 A 
ATOM      5  C   UNL     1      -1.179   2.742   0.228  0.00  0.00    +0.005 A 
ATOM      6  C   UNL     1      -2.561   2.815   0.351  0.00  0.00    -0.026 A 
ATOM      7  C   UNL     1      -3.295   1.659   0.494  0.00  0.00    -0.043 A 
ATOM      8  C   UNL     1      -2.646   0.431   0.515  0.00  0.00    +0.004 A 
ATOM      9  C   UNL     1      -4.793   1.664   0.643  0.00  0.00    +0.035 C 
ATOM     10  C   UNL     1      -5.376   2.993   0.168  0.00  0.00    +0.007 C 
ATOM     11  C   UNL     1      -4.617   4.130   0.862  0.00  0.00    +0.025 C 
ATOM     12  C   UNL     1      -3.198   4.179   0.307  0.00  0.00    +0.107 C 
ENDBRANCH   1  12
BRANCH   1  13
ATOM     13  S   UNL     1      -1.814   6.501   0.398  0.00  0.00    +0.060 S 
ATOM     14  O   UNL     1      -1.098   7.197   1.409  0.00  0.00    -0.153 OA
ATOM     15  O   UNL     1      -1.215   6.118  -0.833  0.00  0.00    -0.153 OA
BRANCH  13  16
ATOM     16  C   UNL     1      -3.208   7.498  -0.010  0.00  0.00    +0.123 A 
ATOM     17  C   UNL     1      -3.486   7.791  -1.330  0.00  0.00    +0.030 A 
ATOM     18  C   UNL     1      -4.581   8.573  -1.652  0.00  0.00    +0.002 A 
ATOM     19  C   UNL     1      -5.402   9.069  -0.655  0.00  0.00    +0.001 A 
ATOM     20  C   UNL     1      -5.135   8.785   0.668  0.00  0.00    +0.021 A 
ATOM     21  C   UNL     1      -4.036   7.990   1.000  0.00  0.00    +0.078 A 
BRANCH  21  22
ATOM     22  C   UNL     1      -3.756   7.686   2.371  0.00  0.00    +0.101 C 
ATOM     23  N   UNL     1      -3.534   7.445   3.459  0.00  0.00    -0.191 NA
ENDBRANCH  21  22
ENDBRANCH  13  16
ENDBRANCH   1  13
TORSDOF 4
