REMARK  Name = ZINC37497194
REMARK  3 active torsions:
REMARK  status: ('A' for Active; 'I' for Inactive)
REMARK    1  A    between atoms: C_3  and  N_11
REMARK    2  A    between atoms: C_6  and  N_7
REMARK    3  A    between atoms: C_12  and  C_14
REMARK                            x       y       z     vdW  Elec       q    Type
REMARK                         _______ _______ _______ _____ _____    ______ ____
ROOT
ATOM      1  N   UNL     1       3.583   2.125  -0.021  0.00  0.00    -0.279 N 
ATOM      2  C   UNL     1       3.567   3.470  -0.116  0.00  0.00    +0.265 C 
ATOM      3  O   UNL     1       2.508   4.068  -0.103  0.00  0.00    -0.268 OA
ATOM      4  H   UNL     1       4.428   1.654   0.049  0.00  0.00    +0.155 HD
ENDROOT
BRANCH   1   7
ATOM      5  C   UNL     1       0.065   1.242  -0.620  0.00  0.00    +0.034 A 
ATOM      6  C   UNL     1       1.250   1.952  -0.619  0.00  0.00    +0.027 A 
ATOM      7  C   UNL     1       2.381   1.409  -0.024  0.00  0.00    +0.052 A 
ATOM      8  C   UNL     1       2.317   0.153   0.568  0.00  0.00    +0.064 A 
ATOM      9  C   UNL     1       1.128  -0.551   0.562  0.00  0.00    +0.054 A 
ATOM     10  C   UNL     1       0.004  -0.007  -0.031  0.00  0.00    +0.128 A 
ATOM     11 CL   UNL     1       3.729  -0.530   1.312  0.00  0.00    -0.082 Cl
BRANCH  10  12
ATOM     12  N   UNL     1      -1.268  -0.764  -0.035  0.00  0.00    +0.056 N 
ATOM     13  O   UNL     1      -2.252  -0.289  -0.553  0.00  0.00    -0.126 OA
ATOM     14  O   UNL     1      -1.323  -1.856   0.480  0.00  0.00    -0.126 OA
ENDBRANCH  10  12
ENDBRANCH   1   7
BRANCH   2  15
ATOM     15  C   UNL     1       4.827   4.211  -0.235  0.00  0.00    +0.103 A 
ATOM     16  C   UNL     1       4.960   5.580  -0.333  0.00  0.00    +0.047 A 
ATOM     17  C   UNL     1       6.329   5.854  -0.427  0.00  0.00    +0.036 A 
ATOM     18  C   UNL     1       6.993   4.674  -0.386  0.00  0.00    +0.098 A 
ATOM     19  N   UNL     1       6.091   3.668  -0.263  0.00  0.00    -0.356 N 
ATOM     20  H   UNL     1       6.302   2.723  -0.206  0.00  0.00    +0.165 HD
ATOM     21 BR   UNL     1       7.113   7.568  -0.586  0.00  0.00    -0.049 Br
ENDBRANCH   2  15
TORSDOF 3
