REMARK  Name = ZINC67578059
REMARK  1 active torsions:
REMARK  status: ('A' for Active; 'I' for Inactive)
REMARK    1  A    between atoms: C_22  and  C_25
REMARK                            x       y       z     vdW  Elec       q    Type
REMARK                         _______ _______ _______ _____ _____    ______ ____
ROOT
ATOM      1  C   UNL     1      -0.017   1.371   0.018  0.00  0.00    +0.078 A 
ATOM      2  C   UNL     1       1.186   2.115   0.008  0.00  0.00    +0.084 A 
ATOM      3  C   UNL     1       2.385   1.369  -0.008  0.00  0.00    +0.044 A 
ATOM      4  C   UNL     1       2.405  -0.004  -0.014  0.00  0.00    +0.067 A 
ATOM      5  C   UNL     1       1.211  -0.705  -0.004  0.00  0.00    +0.174 A 
ATOM      6  C   UNL     1       0.002  -0.004   0.012  0.00  0.00    +0.175 A 
ATOM      7  O   UNL     1      -1.020  -0.914   0.021  0.00  0.00    -0.395 OA
ATOM      8  C   UNL     1      -0.434  -2.158  -0.405  0.00  0.00    +0.589 C 
ATOM      9  O   UNL     1       0.945  -2.043  -0.007  0.00  0.00    -0.395 OA
ATOM     10  F   UNL     1      -1.044  -3.236   0.244  0.00  0.00    -0.125 F 
ATOM     11  F   UNL     1      -0.534  -2.298  -1.794  0.00  0.00    -0.125 F 
ATOM     12  S   UNL     1       3.624   2.643  -0.016  0.00  0.00    -0.052 S 
ATOM     13  C   UNL     1       2.510   4.040   0.003  0.00  0.00    +0.167 A 
ATOM     14  N   UNL     1       1.334   3.459   0.013  0.00  0.00    -0.224 NA
ATOM     15  N   UNL     1       2.813   5.393   0.006  0.00  0.00    -0.248 N 
ATOM     16  C   UNL     1       1.820   6.305   0.021  0.00  0.00    +0.308 C 
ATOM     17  O   UNL     1       0.662   5.944  -0.061  0.00  0.00    -0.252 OA
ATOM     18  N   UNL     1       2.112   7.616   0.129  0.00  0.00    -0.280 N 
ATOM     19  C   UNL     1       3.507   8.085   0.114  0.00  0.00    +0.137 C 
ATOM     20  C   UNL     1       3.718   9.011   1.318  0.00  0.00    +0.180 C 
ATOM     21  O   UNL     1       2.708  10.023   1.316  0.00  0.00    -0.364 OA
ATOM     22  C   UNL     1       1.377   9.521   1.459  0.00  0.00    +0.221 C 
ATOM     23  C   UNL     1       1.046   8.621   0.257  0.00  0.00    +0.150 C 
ATOM     24  H   UNL     1       3.738   5.683  -0.002  0.00  0.00    +0.158 HD
ENDROOT
BRANCH  22  25
ATOM     25  C   UNL     1       0.407  10.673   1.507  0.00  0.00    +0.241 C 
ATOM     26  O   UNL     1       0.803  11.806   1.337  0.00  0.00    -0.273 OA
ATOM     27  N   UNL     1      -0.901  10.444   1.740  0.00  0.00    -0.327 N 
ATOM     28  H   UNL     1      -1.218   9.537   1.876  0.00  0.00    +0.145 HD
ATOM     29  H   UNL     1      -1.525  11.185   1.771  0.00  0.00    +0.145 HD
ENDBRANCH  22  25
TORSDOF 1
