REMARK  Name = ZINC41006515
REMARK  12 active torsions:
REMARK  status: ('A' for Active; 'I' for Inactive)
REMARK    1  A    between atoms: C_1  and  C_2
REMARK    2  A    between atoms: C_2  and  O_3
REMARK    3  A    between atoms: O_3  and  C_4
REMARK    4  A    between atoms: C_9  and  C_10
REMARK    5  A    between atoms: C_12  and  C_32
REMARK    6  A    between atoms: C_17  and  C_30
REMARK    7  A    between atoms: C_17  and  O_31
REMARK    8  A    between atoms: C_18  and  C_20
REMARK    9  A    between atoms: N_22  and  C_23
REMARK   10  A    between atoms: C_28  and  C_29
REMARK   11  A    between atoms: N_34  and  C_35
REMARK   12  A    between atoms: C_40  and  C_41
REMARK                            x       y       z     vdW  Elec       q    Type
REMARK                         _______ _______ _______ _____ _____    ______ ____
ROOT
ATOM      1  C   UNL     1       2.074  -1.632   3.205  0.00  0.00    +0.056 C 
ATOM      2  C   UNL     1       3.500  -2.182   3.093  0.00  0.00    +0.150 C 
ATOM      3  C   UNL     1       4.378  -1.446   4.081  0.00  0.00    +0.148 C 
ATOM      4  O   UNL     1       5.416  -0.939   3.730  0.00  0.00    -0.296 OA
ATOM      5  C   UNL     1       3.921  -1.361   5.521  0.00  0.00    +0.110 C 
ATOM      6  C   UNL     1       2.480  -0.841   5.545  0.00  0.00    +0.082 C 
ATOM      7  C   UNL     1       1.605  -1.728   4.658  0.00  0.00    +0.116 C 
ATOM      8  C   UNL     1       1.950  -0.873   6.980  0.00  0.00    +0.042 C 
ENDROOT
BRANCH   1  14
ATOM      9  C   UNL     1       0.307  -1.798   1.434  0.00  0.00    +0.124 A 
ATOM     10  C   UNL     1      -0.535  -2.544   0.622  0.00  0.00    +0.046 A 
ATOM     11  C   UNL     1      -0.532  -3.923   0.707  0.00  0.00    +0.004 A 
ATOM     12  C   UNL     1       0.309  -4.559   1.601  0.00  0.00    +0.001 A 
ATOM     13  C   UNL     1       1.149  -3.818   2.412  0.00  0.00    +0.007 A 
ATOM     14  C   UNL     1       1.154  -2.439   2.326  0.00  0.00    -0.001 A 
BRANCH   9  15
ATOM     15  O   UNL     1       0.307  -0.442   1.351  0.00  0.00    -0.492 OA
BRANCH  15  17
ATOM     16  C   UNL     1      -0.451   1.673   0.460  0.00  0.00    +0.048 C 
ATOM     17  C   UNL     1      -0.591   0.151   0.410  0.00  0.00    +0.225 C 
ENDBRANCH  15  17
ENDBRANCH   9  15
ENDBRANCH   1  14
BRANCH   7  18
ATOM     18  C   UNL     1       1.707  -3.158   5.124  0.00  0.00    +0.224 C 
ATOM     19  O   UNL     1       2.784  -3.716   5.138  0.00  0.00    -0.275 OA
ATOM     20  N   UNL     1       0.602  -3.816   5.525  0.00  0.00    -0.285 N 
ATOM     21  H   UNL     1      -0.256  -3.364   5.534  0.00  0.00    +0.155 HD
BRANCH  20  22
ATOM     22  C   UNL     1       0.691  -5.153   5.929  0.00  0.00    +0.036 A 
ATOM     23  C   UNL     1       1.919  -5.688   6.297  0.00  0.00    +0.023 A 
ATOM     24  C   UNL     1       2.004  -7.008   6.695  0.00  0.00    +0.002 A 
ATOM     25  C   UNL     1       0.869  -7.796   6.727  0.00  0.00    +0.000 A 
ATOM     26  C   UNL     1      -0.355  -7.267   6.361  0.00  0.00    +0.005 A 
ATOM     27  C   UNL     1      -0.448  -5.946   5.968  0.00  0.00    -0.029 A 
ATOM     28  C   UNL     1      -1.783  -5.368   5.576  0.00  0.00    +0.045 C 
ENDBRANCH  20  22
ENDBRANCH   7  18
BRANCH   2  29
ATOM     29  C   UNL     1       4.016  -1.967   1.694  0.00  0.00    +0.228 C 
ATOM     30  O   UNL     1       3.315  -1.427   0.865  0.00  0.00    -0.275 OA
ATOM     31  N   UNL     1       5.258  -2.374   1.364  0.00  0.00    -0.285 N 
ATOM     32  H   UNL     1       5.787  -2.882   1.999  0.00  0.00    +0.155 HD
BRANCH  31  33
ATOM     33  C   UNL     1       5.784  -2.065   0.105  0.00  0.00    +0.036 A 
ATOM     34  C   UNL     1       4.936  -1.902  -0.983  0.00  0.00    +0.023 A 
ATOM     35  C   UNL     1       5.458  -1.598  -2.225  0.00  0.00    +0.002 A 
ATOM     36  C   UNL     1       6.824  -1.455  -2.386  0.00  0.00    +0.000 A 
ATOM     37  C   UNL     1       7.671  -1.617  -1.305  0.00  0.00    +0.005 A 
ATOM     38  C   UNL     1       7.155  -1.915  -0.059  0.00  0.00    -0.029 A 
ATOM     39  C   UNL     1       8.078  -2.085   1.120  0.00  0.00    +0.045 C 
ENDBRANCH  31  33
ENDBRANCH   2  29
BRANCH   6  40
ATOM     40  O   UNL     1       2.449   0.501   5.055  0.00  0.00    -0.388 OA
ATOM     41  H   UNL     1       2.984   1.120   5.571  0.00  0.00    +0.210 HD
ENDBRANCH   6  40
TORSDOF 8
