REMARK  Name = ZINC39653136
REMARK  9 active torsions:
REMARK  status: ('A' for Active; 'I' for Inactive)
REMARK    1  A    between atoms: C_1  and  O_2
REMARK    2  A    between atoms: O_2  and  C_3
REMARK    3  A    between atoms: C_5  and  C_11
REMARK    4  A    between atoms: C_7  and  O_9
REMARK    5  A    between atoms: O_9  and  C_10
REMARK    6  A    between atoms: C_11  and  C_12
REMARK    7  A    between atoms: C_12  and  N_13
REMARK    8  A    between atoms: C_14  and  C_16
REMARK    9  A    between atoms: C_27  and  C_29
REMARK                            x       y       z     vdW  Elec       q    Type
REMARK                         _______ _______ _______ _____ _____    ______ ____
ROOT
ATOM      1  C   UNL     1       3.597  -8.628   0.691  0.00  0.00    +0.100 C 
ATOM      2  C   UNL     1       3.830  -8.900   2.193  0.00  0.00    +0.121 C 
ATOM      3  N   UNL     1       4.854  -9.971   2.225  0.00  0.00    -0.296 N 
ATOM      4  C   UNL     1       5.793  -9.617   1.134  0.00  0.00    +0.115 C 
ATOM      5  C   UNL     1       4.887  -9.099  -0.001  0.00  0.00    -0.004 C 
ATOM      6  C   UNL     1       4.579 -10.223  -0.985  0.00  0.00    -0.010 C 
ATOM      7  C   UNL     1       5.868 -10.636  -1.701  0.00  0.00    -0.082 C 
ATOM      8  N   UNL     1       6.428  -9.479  -2.410  0.00  0.00    +0.379 N 
ATOM      9  C   UNL     1       6.808  -8.438  -1.447  0.00  0.00    -0.082 C 
ATOM     10  C   UNL     1       5.558  -7.932  -0.720  0.00  0.00    -0.010 C 
ATOM     11  C   UNL     1       4.917 -11.029   3.058  0.00  0.00    +0.248 C 
ATOM     12  O   UNL     1       5.877 -11.776   3.021  0.00  0.00    -0.270 OA
ATOM     13  H   UNL     1       7.243  -9.767  -2.930  0.00  0.00    -0.086 HD
ATOM     14  H   UNL     1       5.738  -9.110  -3.047  0.00  0.00    -0.086 HD
ENDROOT
BRANCH  11  15
ATOM     15  C   UNL     1       3.828 -11.279   4.011  0.00  0.00    +0.052 A 
ATOM     16  C   UNL     1       3.152 -10.252   4.587  0.00  0.00    +0.059 A 
ATOM     17  S   UNL     1       2.015 -10.972   5.588  0.00  0.00    -0.096 S 
ATOM     18  C   UNL     1       2.377 -12.681   5.295  0.00  0.00    +0.020 A 
ATOM     19  C   UNL     1       3.434 -12.645   4.365  0.00  0.00    +0.001 A 
ATOM     20  C   UNL     1       3.949 -13.879   3.925  0.00  0.00    +0.010 A 
ATOM     21  C   UNL     1       3.423 -15.057   4.392  0.00  0.00    +0.001 A 
ATOM     22  C   UNL     1       2.378 -15.066   5.304  0.00  0.00    +0.001 A 
ATOM     23  C   UNL     1       1.860 -13.870   5.763  0.00  0.00    +0.015 A 
ENDBRANCH  11  15
BRANCH   1  25
ATOM     24  N   UNL     1       2.621  -6.745  -0.583  0.00  0.00    -0.315 N 
ATOM     25  C   UNL     1       3.381  -7.155   0.452  0.00  0.00    +0.218 C 
ATOM     26  O   UNL     1       3.891  -6.340   1.190  0.00  0.00    -0.275 OA
ATOM     27  H   UNL     1       2.213  -7.397  -1.174  0.00  0.00    +0.149 HD
BRANCH  24  28
ATOM     28  C   UNL     1       2.411  -5.314  -0.816  0.00  0.00    +0.109 C 
BRANCH  28  29
ATOM     29  C   UNL     1       1.518  -5.122  -2.043  0.00  0.00    +0.054 C 
BRANCH  29  32
ATOM     30  C   UNL     1       1.977  -1.592  -3.314  0.00  0.00    +0.124 A 
ATOM     31  C   UNL     1       2.174  -2.948  -3.092  0.00  0.00    +0.049 A 
ATOM     32  C   UNL     1       1.302  -3.650  -2.282  0.00  0.00    -0.039 A 
ATOM     33  C   UNL     1       0.233  -3.005  -1.691  0.00  0.00    +0.049 A 
ATOM     34  C   UNL     1       0.032  -1.649  -1.909  0.00  0.00    +0.124 A 
ATOM     35  C   UNL     1       0.908  -0.941  -2.717  0.00  0.00    +0.091 A 
BRANCH  30  37
ATOM     36  C   UNL     1       2.574   0.492  -4.291  0.00  0.00    +0.277 C 
ATOM     37  O   UNL     1       2.834  -0.902  -4.112  0.00  0.00    -0.495 OA
ENDBRANCH  30  37
BRANCH  34  38
ATOM     38  O   UNL     1      -1.020  -1.015  -1.327  0.00  0.00    -0.495 OA
ATOM     39  C   UNL     1      -1.165   0.381  -1.596  0.00  0.00    +0.277 C 
ENDBRANCH  34  38
ENDBRANCH  29  32
ENDBRANCH  28  29
ENDBRANCH  24  28
ENDBRANCH   1  25
TORSDOF 7
