REMARK  Name = ZINC08253110
REMARK  8 active torsions:
REMARK  status: ('A' for Active; 'I' for Inactive)
REMARK    1  A    between atoms: C_1  and  C_2
REMARK    2  A    between atoms: C_2  and  O_3
REMARK    3  A    between atoms: O_3  and  C_4
REMARK    4  A    between atoms: C_4  and  C_6
REMARK    5  A    between atoms: C_10  and  N_11
REMARK    6  A    between atoms: C_14  and  C_21
REMARK    7  A    between atoms: C_24  and  C_28
REMARK    8  A    between atoms: C_25  and  C_27
REMARK                            x       y       z     vdW  Elec       q    Type
REMARK                         _______ _______ _______ _____ _____    ______ ____
ROOT
ATOM      1  C   UNL     1      -1.397   0.388   2.836  0.00  0.00    +0.118 A 
ATOM      2  C   UNL     1      -0.875   1.655   2.479  0.00  0.00    +0.151 A 
ATOM      3  N   UNL     1       0.387   1.513   2.190  0.00  0.00    -0.171 NA
ATOM      4  N   UNL     1       0.745   0.168   2.331  0.00  0.00    -0.199 N 
ATOM      5  C   UNL     1      -0.351  -0.527   2.732  0.00  0.00    +0.136 A 
ATOM      6  C   UNL     1       2.011  -0.366   2.105  0.00  0.00    +0.168 A 
ATOM      7  C   UNL     1       2.618  -0.257   0.827  0.00  0.00    +0.060 A 
ATOM      8  C   UNL     1       2.114   0.364  -0.393  0.00  0.00    +0.002 A 
ATOM      9  C   UNL     1       2.887   0.337  -1.505  0.00  0.00    +0.056 A 
ATOM     10  S   UNL     1       4.354  -0.524  -0.972  0.00  0.00    -0.076 S 
ATOM     11  C   UNL     1       3.901  -0.835   0.714  0.00  0.00    +0.114 A 
ATOM     12  N   UNL     1       4.478  -1.430   1.738  0.00  0.00    -0.228 NA
ATOM     13  C   UNL     1       3.863  -1.500   2.903  0.00  0.00    +0.224 A 
ATOM     14  N   UNL     1       2.661  -0.981   3.078  0.00  0.00    -0.216 NA
ENDROOT
BRANCH   8  15
ATOM     15  C   UNL     1       0.780   1.008  -0.417  0.00  0.00    -0.016 A 
ATOM     16  C   UNL     1      -0.359   0.271  -0.095  0.00  0.00    +0.009 A 
ATOM     17  C   UNL     1      -1.599   0.875  -0.124  0.00  0.00    +0.004 A 
ATOM     18  C   UNL     1      -1.713   2.212  -0.461  0.00  0.00    -0.048 A 
ATOM     19  C   UNL     1      -0.587   2.948  -0.781  0.00  0.00    -0.047 A 
ATOM     20  C   UNL     1       0.658   2.354  -0.761  0.00  0.00    +0.012 A 
ATOM     21  C   UNL     1      -0.720   4.403  -1.153  0.00  0.00    +0.044 C 
ATOM     22  C   UNL     1      -3.070   2.867  -0.484  0.00  0.00    +0.044 C 
ENDBRANCH   8  15
BRANCH   5  23
ATOM     23  N   UNL     1      -0.416  -1.879   2.989  0.00  0.00    -0.342 N 
ATOM     24  H   UNL     1       0.375  -2.431   2.887  0.00  0.00    +0.144 HD
ATOM     25  H   UNL     1      -1.254  -2.280   3.272  0.00  0.00    +0.144 HD
ENDBRANCH   5  23
BRANCH   1  26
ATOM     26  C   UNL     1      -2.776   0.095   3.237  0.00  0.00    +0.344 C 
ATOM     27  O   UNL     1      -3.098  -1.043   3.521  0.00  0.00    -0.245 OA
BRANCH  26  28
ATOM     28  O   UNL     1      -3.688   1.087   3.293  0.00  0.00    -0.461 OA
BRANCH  28  30
ATOM     29  C   UNL     1      -5.920   1.971   3.702  0.00  0.00    +0.048 C 
ATOM     30  C   UNL     1      -5.034   0.724   3.699  0.00  0.00    +0.229 C 
ENDBRANCH  28  30
ENDBRANCH  26  28
ENDBRANCH   1  26
TORSDOF 5
