REMARK  Name = ZINC41545959
REMARK  8 active torsions:
REMARK  status: ('A' for Active; 'I' for Inactive)
REMARK    1  A    between atoms: C_1  and  C_2
REMARK    2  A    between atoms: C_2  and  C_4
REMARK    3  A    between atoms: C_2  and  N_13
REMARK    4  A    between atoms: C_7  and  C_10
REMARK    5  A    between atoms: C_10  and  C_11
REMARK    6  A    between atoms: C_10  and  C_12
REMARK    7  A    between atoms: C_14  and  C_16
REMARK    8  A    between atoms: C_16  and  C_27
REMARK                            x       y       z     vdW  Elec       q    Type
REMARK                         _______ _______ _______ _____ _____    ______ ____
ROOT
ATOM      1  N   UNL     1       0.711  -0.489   1.189  0.00  0.00    -0.305 N 
ATOM      2  C   UNL     1       2.054  -0.600   1.174  0.00  0.00    +0.266 C 
ATOM      3  O   UNL     1       2.676  -0.297   0.177  0.00  0.00    -0.271 OA
ATOM      4  H   UNL     1       0.213  -0.731   1.986  0.00  0.00    +0.149 HD
ENDROOT
BRANCH   2   5
ATOM      5  C   UNL     1       2.783  -1.099   2.395  0.00  0.00    +0.257 C 
ATOM      6  C   UNL     1       4.102  -1.700   1.980  0.00  0.00    +0.270 C 
ATOM      7  O   UNL     1       4.653  -1.321   0.969  0.00  0.00    -0.271 OA
ATOM      8  N   UNL     1       4.667  -2.662   2.740  0.00  0.00    -0.279 N 
ATOM      9  C   UNL     1       3.957  -3.175   3.834  0.00  0.00    +0.076 A 
ATOM     10  C   UNL     1       4.585  -3.989   4.763  0.00  0.00    +0.027 A 
ATOM     11  C   UNL     1       3.873  -4.476   5.843  0.00  0.00    +0.002 A 
ATOM     12  C   UNL     1       2.538  -4.154   6.000  0.00  0.00    +0.004 A 
ATOM     13  C   UNL     1       1.904  -3.346   5.073  0.00  0.00    +0.047 A 
ATOM     14  C   UNL     1       2.608  -2.858   3.986  0.00  0.00    +0.144 A 
ATOM     15  O   UNL     1       1.988  -2.089   3.051  0.00  0.00    -0.466 OA
ATOM     16  C   UNL     1       3.034   0.069   3.351  0.00  0.00    +0.076 C 
ATOM     17  H   UNL     1       5.554  -2.994   2.532  0.00  0.00    +0.155 HD
ENDBRANCH   2   5
BRANCH   1  19
ATOM     18  C   UNL     1      -0.019   1.526   0.010  0.00  0.00    +0.033 C 
ATOM     19  C   UNL     1       0.002  -0.004   0.002  0.00  0.00    +0.100 C 
BRANCH  19  20
ATOM     20  C   UNL     1      -1.412  -0.526   0.013  0.00  0.00    -0.027 A 
ATOM     21  C   UNL     1      -2.123  -0.571   1.197  0.00  0.00    +0.006 A 
ATOM     22  C   UNL     1      -3.420  -1.049   1.207  0.00  0.00    +0.004 A 
ATOM     23  C   UNL     1      -4.006  -1.482   0.032  0.00  0.00    -0.045 A 
ATOM     24  C   UNL     1      -3.295  -1.436  -1.153  0.00  0.00    +0.004 A 
ATOM     25  C   UNL     1      -2.000  -0.954  -1.163  0.00  0.00    +0.006 A 
BRANCH  23  26
ATOM     26  C   UNL     1      -5.419  -2.005   0.043  0.00  0.00    +0.013 C 
ATOM     27  C   UNL     1      -6.288  -1.144  -0.876  0.00  0.00    +0.012 C 
ATOM     28  C   UNL     1      -5.431  -3.452  -0.452  0.00  0.00    +0.012 C 
ENDBRANCH  23  26
ENDBRANCH  19  20
ENDBRANCH   1  19
TORSDOF 4
