REMARK  Name = ZINC57042672
REMARK  7 active torsions:
REMARK  status: ('A' for Active; 'I' for Inactive)
REMARK    1  A    between atoms: C_1  and  C_2
REMARK    2  A    between atoms: C_2  and  C_4
REMARK    3  A    between atoms: C_2  and  C_19
REMARK    4  A    between atoms: C_4  and  N_5
REMARK    5  A    between atoms: N_8  and  N_9
REMARK    6  A    between atoms: C_10  and  C_12
REMARK    7  A    between atoms: C_19  and  N_20
REMARK                            x       y       z     vdW  Elec       q    Type
REMARK                         _______ _______ _______ _____ _____    ______ ____
ROOT
ATOM      1  N   UNL     1      -0.008  -0.140   2.444  0.00  0.00    -0.298 N 
ATOM      2  C   UNL     1       0.457  -0.484   3.661  0.00  0.00    +0.316 C 
ATOM      3  O   UNL     1       1.499  -1.102   3.762  0.00  0.00    -0.251 OA
ATOM      4  N   UNL     1      -0.234  -0.143   4.767  0.00  0.00    -0.218 N 
ATOM      5  H   UNL     1      -0.840   0.353   2.364  0.00  0.00    +0.150 HD
ATOM      6  H   UNL     1       0.101  -0.391   5.644  0.00  0.00    +0.174 HD
ENDROOT
BRANCH   4   7
ATOM      7  N   UNL     1      -1.435   0.569   4.652  0.00  0.00    -0.228 N 
ATOM      8  C   UNL     1      -2.125   0.910   5.758  0.00  0.00    +0.276 C 
ATOM      9  O   UNL     1      -1.705   0.600   6.857  0.00  0.00    -0.267 OA
ATOM     10  H   UNL     1      -1.769   0.817   3.776  0.00  0.00    +0.173 HD
BRANCH   8  11
ATOM     11  C   UNL     1      -3.382   1.656   5.637  0.00  0.00    +0.104 A 
ATOM     12  C   UNL     1      -4.185   2.074   6.677  0.00  0.00    +0.047 A 
ATOM     13  C   UNL     1      -5.274   2.745   6.112  0.00  0.00    +0.036 A 
ATOM     14  C   UNL     1      -5.121   2.725   4.765  0.00  0.00    +0.098 A 
ATOM     15  N   UNL     1      -3.972   2.071   4.465  0.00  0.00    -0.356 N 
ATOM     16  H   UNL     1      -3.625   1.919   3.572  0.00  0.00    +0.166 HD
ATOM     17 BR   UNL     1      -6.707   3.538   7.058  0.00  0.00    -0.049 Br
ENDBRANCH   8  11
ENDBRANCH   4   7
BRANCH   1  18
ATOM     18  C   UNL     1       0.742  -0.511   1.242  0.00  0.00    +0.107 C 
BRANCH  18  20
ATOM     19  C   UNL     1      -0.019   1.526   0.010  0.00  0.00    +0.007 C 
ATOM     20  C   UNL     1       0.002  -0.004   0.002  0.00  0.00    -0.014 C 
BRANCH  20  21
ATOM     21  C   UNL     1       0.718  -0.497  -1.257  0.00  0.00    -0.074 C 
BRANCH  21  22
ATOM     22  N   UNL     1      -0.057  -0.113  -2.444  0.00  0.00    +0.380 N 
ATOM     23  C   UNL     1      -1.351  -0.805  -2.427  0.00  0.00    -0.079 C 
ATOM     24  C   UNL     1      -2.195  -0.346  -3.618  0.00  0.00    -0.019 C 
ATOM     25  C   UNL     1      -1.456  -0.676  -4.918  0.00  0.00    -0.004 C 
ATOM     26  C   UNL     1      -0.077  -0.009  -4.892  0.00  0.00    -0.019 C 
ATOM     27  C   UNL     1       0.688  -0.480  -3.654  0.00  0.00    -0.079 C 
ATOM     28  H   UNL     1      -0.211   0.884  -2.435  0.00  0.00    -0.082 HD
ENDBRANCH  21  22
ENDBRANCH  20  21
ENDBRANCH  18  20
ENDBRANCH   1  18
TORSDOF 6
