REMARK  Name = ZINC48570085
REMARK  4 active torsions:
REMARK  status: ('A' for Active; 'I' for Inactive)
REMARK    1  A    between atoms: C_3  and  N_10
REMARK    2  A    between atoms: C_5  and  N_7
REMARK    3  A    between atoms: C_11  and  C_13
REMARK    4  A    between atoms: N_15  and  C_16
REMARK                            x       y       z     vdW  Elec       q    Type
REMARK                         _______ _______ _______ _____ _____    ______ ____
ROOT
ATOM      1  C   UNL     1       4.851   4.221  -0.237  0.00  0.00    +0.300 C 
ATOM      2  O   UNL     1       5.907   3.624  -0.250  0.00  0.00    -0.265 OA
ATOM      3  N   UNL     1       4.835   5.566  -0.332  0.00  0.00    -0.302 N 
ATOM      4  H   UNL     1       3.991   6.043  -0.322  0.00  0.00    +0.150 HD
ENDROOT
BRANCH   3   5
ATOM      5  C   UNL     1       6.094   6.306  -0.451  0.00  0.00    +0.036 C 
ATOM      6  C   UNL     1       6.965   6.032   0.777  0.00  0.00    +0.029 C 
ATOM      7  C   UNL     1       8.279   6.805   0.653  0.00  0.00    -0.008 C 
ATOM      8  C   UNL     1       7.983   8.303   0.562  0.00  0.00    +0.007 C 
ATOM      9  C   UNL     1       7.112   8.577  -0.666  0.00  0.00    -0.008 C 
ATOM     10  C   UNL     1       5.798   7.804  -0.542  0.00  0.00    +0.029 C 
ATOM     11  C   UNL     1       7.852   8.126  -1.927  0.00  0.00    +0.007 C 
ATOM     12  C   UNL     1       8.148   6.628  -1.836  0.00  0.00    -0.008 C 
ATOM     13  C   UNL     1       9.019   6.354  -0.608  0.00  0.00    +0.007 C 
ATOM     14  C   UNL     1       6.834   5.855  -1.712  0.00  0.00    +0.029 C 
ENDBRANCH   3   5
BRANCH   1  16
ATOM     15  N   UNL     1       3.583   2.122  -0.021  0.00  0.00    -0.278 N 
ATOM     16  C   UNL     1       3.567   3.466  -0.116  0.00  0.00    +0.303 C 
ATOM     17  O   UNL     1       2.511   4.064  -0.103  0.00  0.00    -0.265 OA
ATOM     18  H   UNL     1       4.427   1.650   0.045  0.00  0.00    +0.155 HD
BRANCH  15  21
ATOM     19  C   UNL     1       0.112   1.159  -0.753  0.00  0.00    +0.004 A 
ATOM     20  C   UNL     1       1.298   1.867  -0.757  0.00  0.00    +0.023 A 
ATOM     21  C   UNL     1       2.381   1.408  -0.019  0.00  0.00    +0.036 A 
ATOM     22  C   UNL     1       2.268   0.238   0.721  0.00  0.00    +0.056 A 
ATOM     23  C   UNL     1       1.080  -0.465   0.721  0.00  0.00    +0.128 A 
ATOM     24  C   UNL     1       0.003  -0.006  -0.015  0.00  0.00    +0.033 A 
BRANCH  23  25
ATOM     25  N   UNL     1       0.959  -1.712   1.509  0.00  0.00    +0.056 N 
ATOM     26  O   UNL     1       1.900  -2.115   2.152  0.00  0.00    -0.126 OA
ATOM     27  O   UNL     1      -0.081  -2.329   1.509  0.00  0.00    -0.126 OA
ENDBRANCH  23  25
ENDBRANCH  15  21
ENDBRANCH   1  16
TORSDOF 4
