REMARK  Name = ZINC49009484
REMARK  8 active torsions:
REMARK  status: ('A' for Active; 'I' for Inactive)
REMARK    1  A    between atoms: C_1  and  C_2
REMARK    2  A    between atoms: C_4  and  S_10
REMARK    3  A    between atoms: C_6  and  N_9
REMARK    4  A    between atoms: C_7  and  C_8
REMARK    5  A    between atoms: S_10  and  N_13
REMARK    6  A    between atoms: N_13  and  C_14
REMARK    7  A    between atoms: N_13  and  C_15
REMARK    8  A    between atoms: C_20  and  C_23
REMARK                            x       y       z     vdW  Elec       q    Type
REMARK                         _______ _______ _______ _____ _____    ______ ____
ROOT
ATOM      1  S   UNL     1      -0.004  -2.948  -2.873  0.00  0.00    +0.061 S 
ATOM      2  O   UNL     1      -0.535  -4.237  -2.600  0.00  0.00    -0.153 OA
ATOM      3  O   UNL     1      -0.510  -2.118  -3.909  0.00  0.00    -0.153 OA
ENDROOT
BRANCH   1   7
ATOM      4  C   UNL     1      -0.317   1.593  -0.305  0.00  0.00    +0.044 C 
ATOM      5  C   UNL     1      -0.275   0.088  -0.252  0.00  0.00    -0.044 A 
ATOM      6  C   UNL     1      -0.172  -0.642  -1.423  0.00  0.00    +0.032 A 
ATOM      7  C   UNL     1      -0.133  -2.023  -1.379  0.00  0.00    +0.107 A 
ATOM      8  C   UNL     1      -0.196  -2.679  -0.165  0.00  0.00    +0.051 A 
ATOM      9  C   UNL     1      -0.299  -1.950   1.012  0.00  0.00    +0.030 A 
ATOM     10  C   UNL     1      -0.333  -0.562   0.965  0.00  0.00    -0.027 A 
ATOM     11  C   UNL     1      -0.438   0.234   2.240  0.00  0.00    +0.046 C 
BRANCH   9  12
ATOM     12  N   UNL     1      -0.363  -2.610   2.242  0.00  0.00    -0.358 N 
ATOM     13  H   UNL     1      -0.336  -3.579   2.274  0.00  0.00    +0.142 HD
ATOM     14  H   UNL     1      -0.435  -2.099   3.063  0.00  0.00    +0.142 HD
ENDBRANCH   9  12
ENDBRANCH   1   7
BRANCH   1  15
ATOM     15  N   UNL     1       1.610  -3.157  -3.181  0.00  0.00    -0.177 NA
ATOM     16  C   UNL     1       2.311  -4.329  -2.650  0.00  0.00    +0.132 C 
BRANCH  15  17
ATOM     17  C   UNL     1       2.337  -2.170  -3.984  0.00  0.00    +0.080 C 
ATOM     18  C   UNL     1       3.805  -2.585  -4.095  0.00  0.00    +0.020 C 
ATOM     19  C   UNL     1       3.899  -3.957  -4.766  0.00  0.00    +0.002 C 
ATOM     20  C   UNL     1       3.282  -3.884  -6.164  0.00  0.00    +0.003 C 
ATOM     21  C   UNL     1       1.813  -3.469  -6.053  0.00  0.00    -0.013 C 
ATOM     22  C   UNL     1       1.720  -2.097  -5.382  0.00  0.00    +0.024 C 
ATOM     23  C   UNL     1       1.197  -3.396  -7.452  0.00  0.00    +0.007 C 
ENDBRANCH  15  17
ENDBRANCH   1  15
TORSDOF 4
