REMARK  Name = ZINC61882528
REMARK  4 active torsions:
REMARK  status: ('A' for Active; 'I' for Inactive)
REMARK    1  A    between atoms: C_4  and  S_9
REMARK    2  A    between atoms: C_6  and  N_7
REMARK    3  A    between atoms: S_9  and  N_12
REMARK    4  A    between atoms: N_12  and  C_13
REMARK                            x       y       z     vdW  Elec       q    Type
REMARK                         _______ _______ _______ _____ _____    ______ ____
ROOT
ATOM      1  S   UNL     1       4.126  -0.989  -0.120  0.00  0.00    +0.060 S 
ATOM      2  O   UNL     1       4.249  -2.132  -0.955  0.00  0.00    -0.153 OA
ATOM      3  O   UNL     1       5.050   0.090  -0.165  0.00  0.00    -0.153 OA
ENDROOT
BRANCH   1   7
ATOM      4  C   UNL     1       0.029   0.770  -0.936  0.00  0.00    +0.044 A 
ATOM      5  C   UNL     1       0.450  -0.356  -1.619  0.00  0.00    +0.045 A 
ATOM      6  C   UNL     1       1.701  -0.892  -1.369  0.00  0.00    +0.049 A 
ATOM      7  C   UNL     1       2.534  -0.303  -0.435  0.00  0.00    +0.122 A 
ATOM      8  C   UNL     1       2.120   0.822   0.252  0.00  0.00    +0.065 A 
ATOM      9  C   UNL     1       0.864   1.363   0.002  0.00  0.00    +0.042 A 
ATOM     10 BR   UNL     1       3.260   1.625   1.529  0.00  0.00    -0.046 Br
ATOM     11 CL   UNL     1      -0.592  -1.098  -2.792  0.00  0.00    -0.083 Cl
BRANCH   9  12
ATOM     12  N   UNL     1       0.442   2.501   0.694  0.00  0.00    -0.357 N 
ATOM     13  H   UNL     1      -0.435   2.878   0.520  0.00  0.00    +0.142 HD
ATOM     14  H   UNL     1       1.026   2.914   1.350  0.00  0.00    +0.142 HD
ENDBRANCH   9  12
ENDBRANCH   1   7
BRANCH   1  15
ATOM     15  N   UNL     1       4.121  -1.543   1.441  0.00  0.00    -0.178 NA
ATOM     16  H   UNL     1       4.681  -1.117   2.109  0.00  0.00    +0.149 HD
BRANCH  15  17
ATOM     17  C   UNL     1       3.270  -2.676   1.813  0.00  0.00    +0.162 C 
ATOM     18  C   UNL     1       4.036  -3.596   2.767  0.00  0.00    +0.031 C 
ATOM     19  C   UNL     1       3.051  -4.612   3.357  0.00  0.00    +0.021 C 
ATOM     20  C   UNL     1       2.069  -3.871   4.266  0.00  0.00    +0.104 C 
ATOM     21  N   UNL     1       1.492  -2.728   3.569  0.00  0.00    -0.314 N 
ATOM     22  C   UNL     1       2.027  -2.166   2.486  0.00  0.00    +0.232 C 
ATOM     23  O   UNL     1       1.480  -1.191   2.017  0.00  0.00    -0.274 OA
ATOM     24  H   UNL     1       0.668  -2.352   3.917  0.00  0.00    +0.149 HD
ENDBRANCH  15  17
ENDBRANCH   1  15
TORSDOF 4
