REMARK  Name = ZINC40729619
REMARK  6 active torsions:
REMARK  status: ('A' for Active; 'I' for Inactive)
REMARK    1  A    between atoms: C_1  and  C_2
REMARK    2  A    between atoms: C_11  and  N_12
REMARK    3  A    between atoms: C_14  and  N_32
REMARK    4  A    between atoms: C_15  and  N_19
REMARK    5  A    between atoms: C_22  and  C_25
REMARK    6  A    between atoms: C_25  and  C_26
REMARK                            x       y       z     vdW  Elec       q    Type
REMARK                         _______ _______ _______ _____ _____    ______ ____
ROOT
ATOM      1  N   UNL     1       0.063  -4.885  -1.143  0.00  0.00    -0.297 N 
ATOM      2  C   UNL     1       0.189  -6.269  -1.087  0.00  0.00    +0.149 A 
ATOM      3  C   UNL     1       0.305  -7.018  -2.260  0.00  0.00    +0.106 A 
ATOM      4  C   UNL     1       0.430  -8.404  -2.146  0.00  0.00    +0.147 A 
ATOM      5  N   UNL     1       0.432  -8.954  -0.934  0.00  0.00    -0.219 NA
ATOM      6  C   UNL     1       0.320  -8.210   0.147  0.00  0.00    +0.225 A 
ATOM      7  N   UNL     1       0.206  -6.899   0.085  0.00  0.00    -0.219 NA
ATOM      8  H   UNL     1      -0.031  -4.441  -2.000  0.00  0.00    +0.154 HD
ENDROOT
BRANCH   1  19
ATOM      9  C   UNL     1      -2.363   0.940   0.382  0.00  0.00    +0.063 C 
ATOM     10  C   UNL     1      -1.717  -0.417   0.275  0.00  0.00    +0.013 A 
ATOM     11  C   UNL     1      -1.771  -1.101  -0.938  0.00  0.00    +0.021 A 
ATOM     12  C   UNL     1      -1.190  -2.332  -1.053  0.00  0.00    +0.013 A 
ATOM     13  C   UNL     1      -0.549  -2.872   0.075  0.00  0.00    +0.020 A 
ATOM     14  C   UNL     1      -0.530  -2.124   1.279  0.00  0.00    +0.048 A 
ATOM     15  N   UNL     1      -1.113  -0.922   1.324  0.00  0.00    -0.358 N 
ATOM     16  C   UNL     1       0.111  -2.660   2.409  0.00  0.00    +0.026 A 
ATOM     17  C   UNL     1       0.704  -3.885   2.340  0.00  0.00    +0.004 A 
ATOM     18  C   UNL     1       0.691  -4.626   1.164  0.00  0.00    +0.024 A 
ATOM     19  C   UNL     1       0.073  -4.137   0.031  0.00  0.00    +0.042 A 
ATOM     20  H   UNL     1      -1.093  -0.414   2.150  0.00  0.00    +0.166 HD
ENDBRANCH   1  19
BRANCH   4  21
ATOM     21  N   UNL     1       0.548  -9.197  -3.282  0.00  0.00    -0.314 N 
ATOM     22  C   UNL     1       1.860  -9.423  -3.903  0.00  0.00    +0.107 C 
ATOM     23  C   UNL     1       2.088 -10.932  -4.040  0.00  0.00    +0.023 C 
ATOM     24  C   UNL     1       0.916 -11.553  -4.802  0.00  0.00    -0.004 C 
ATOM     25  C   UNL     1      -0.381 -11.329  -4.020  0.00  0.00    +0.023 C 
ATOM     26  C   UNL     1      -0.635  -9.830  -3.880  0.00  0.00    +0.107 C 
BRANCH  24  27
ATOM     27  C   UNL     1       1.156 -13.055  -4.971  0.00  0.00    +0.038 C 
BRANCH  27  28
ATOM     28  C   UNL     1       0.065 -13.646  -5.826  0.00  0.00    -0.047 A 
ATOM     29  C   UNL     1      -1.090 -14.126  -5.238  0.00  0.00    +0.003 A 
ATOM     30  C   UNL     1      -2.091 -14.668  -6.023  0.00  0.00    +0.000 A 
ATOM     31  C   UNL     1      -1.937 -14.729  -7.395  0.00  0.00    +0.000 A 
ATOM     32  C   UNL     1      -0.782 -14.248  -7.983  0.00  0.00    +0.000 A 
ATOM     33  C   UNL     1       0.217 -13.702  -7.199  0.00  0.00    +0.003 A 
ENDBRANCH  27  28
ENDBRANCH  24  27
ENDBRANCH   4  21
BRANCH   3  34
ATOM     34  N   UNL     1       0.297  -6.395  -3.518  0.00  0.00    -0.353 N 
ATOM     35  H   UNL     1       0.283  -5.427  -3.579  0.00  0.00    +0.143 HD
ATOM     36  H   UNL     1       0.306  -6.932  -4.325  0.00  0.00    +0.143 HD
ENDBRANCH   3  34
TORSDOF 5
