REMARK  Name = ZINC39661792
REMARK  8 active torsions:
REMARK  status: ('A' for Active; 'I' for Inactive)
REMARK    1  A    between atoms: C_1  and  C_2
REMARK    2  A    between atoms: C_4  and  C_9
REMARK    3  A    between atoms: C_13  and  C_22
REMARK    4  A    between atoms: N_24  and  C_25
REMARK    5  A    between atoms: C_25  and  C_26
REMARK    6  A    between atoms: C_26  and  C_27
REMARK    7  A    between atoms: C_30  and  O_34
REMARK    8  A    between atoms: C_31  and  O_33
REMARK                            x       y       z     vdW  Elec       q    Type
REMARK                         _______ _______ _______ _____ _____    ______ ____
ROOT
ATOM      1  C   UNL     1       0.027  -2.817  -2.482  0.00  0.00    +0.247 C 
ATOM      2  O   UNL     1      -0.094  -2.213  -3.530  0.00  0.00    -0.270 OA
ATOM      3  N   UNL     1       0.148  -4.160  -2.488  0.00  0.00    -0.296 N 
ATOM      4  C   UNL     1       0.177  -5.074  -1.322  0.00  0.00    +0.121 C 
ATOM      5  C   UNL     1      -0.645  -6.304  -1.770  0.00  0.00    +0.100 C 
ATOM      6  C   UNL     1      -0.571  -6.287  -3.306  0.00  0.00    -0.004 C 
ATOM      7  C   UNL     1       0.275  -5.056  -3.663  0.00  0.00    +0.115 C 
ATOM      8  C   UNL     1       0.102  -7.557  -3.817  0.00  0.00    -0.010 C 
ATOM      9  C   UNL     1       0.112  -7.544  -5.348  0.00  0.00    -0.082 C 
ATOM     10  N   UNL     1      -1.266  -7.461  -5.848  0.00  0.00    +0.379 N 
ATOM     11  C   UNL     1      -1.875  -6.193  -5.429  0.00  0.00    -0.082 C 
ATOM     12  C   UNL     1      -1.969  -6.149  -3.901  0.00  0.00    -0.010 C 
ATOM     13  H   UNL     1      -1.261  -7.514  -6.855  0.00  0.00    -0.086 HD
ATOM     14  H   UNL     1      -1.804  -8.230  -5.476  0.00  0.00    -0.086 HD
ENDROOT
BRANCH   1  18
ATOM     15  C   UNL     1      -1.211   1.206   0.197  0.00  0.00    +0.045 C 
ATOM     16  C   UNL     1      -0.551  -0.145   0.092  0.00  0.00    -0.036 A 
ATOM     17  C   UNL     1      -0.569  -0.829  -1.106  0.00  0.00    +0.017 A 
ATOM     18  C   UNL     1       0.043  -2.080  -1.202  0.00  0.00    +0.037 A 
ATOM     19  C   UNL     1       0.670  -2.631  -0.082  0.00  0.00    +0.014 A 
ATOM     20  C   UNL     1       0.681  -1.938   1.110  0.00  0.00    +0.016 A 
ATOM     21  C   UNL     1       0.077  -0.695   1.197  0.00  0.00    +0.021 A 
ATOM     22 BR   UNL     1       0.104   0.252   2.833  0.00  0.00    -0.050 Br
ENDBRANCH   1  18
BRANCH   5  23
ATOM     23  C   UNL     1      -0.034  -7.569  -1.227  0.00  0.00    +0.218 C 
ATOM     24  O   UNL     1       1.147  -7.603  -0.952  0.00  0.00    -0.275 OA
ATOM     25  N   UNL     1      -0.799  -8.664  -1.047  0.00  0.00    -0.315 N 
ATOM     26  H   UNL     1      -1.743  -8.637  -1.266  0.00  0.00    +0.149 HD
BRANCH  25  27
ATOM     27  C   UNL     1      -0.205  -9.895  -0.519  0.00  0.00    +0.109 C 
BRANCH  27  28
ATOM     28  C   UNL     1      -1.282 -10.976  -0.412  0.00  0.00    +0.054 C 
BRANCH  28  29
ATOM     29  C   UNL     1      -0.670 -12.242   0.131  0.00  0.00    -0.042 A 
ATOM     30  C   UNL     1      -0.136 -13.177  -0.736  0.00  0.00    +0.007 A 
ATOM     31  C   UNL     1       0.426 -14.340  -0.242  0.00  0.00    +0.049 A 
ATOM     32  C   UNL     1       0.455 -14.570   1.124  0.00  0.00    +0.158 A 
ATOM     33  C   UNL     1      -0.083 -13.629   1.996  0.00  0.00    +0.158 A 
ATOM     34  C   UNL     1      -0.640 -12.463   1.495  0.00  0.00    +0.052 A 
BRANCH  33  35
ATOM     35  O   UNL     1      -0.057 -13.850   3.338  0.00  0.00    -0.503 OA
ATOM     36  H   UNL     1       0.736 -13.513   3.777  0.00  0.00    +0.292 HD
ENDBRANCH  33  35
BRANCH  32  37
ATOM     37  O   UNL     1       1.007 -15.713   1.611  0.00  0.00    -0.503 OA
ATOM     38  H   UNL     1       1.952 -15.643   1.802  0.00  0.00    +0.292 HD
ENDBRANCH  32  37
ENDBRANCH  28  29
ENDBRANCH  27  28
ENDBRANCH  25  27
ENDBRANCH   5  23
TORSDOF 7
