REMARK  Name = ZINC66426957
REMARK  11 active torsions:
REMARK  status: ('A' for Active; 'I' for Inactive)
REMARK    1  A    between atoms: C_1  and  C_2
REMARK    2  A    between atoms: C_4  and  C_27
REMARK    3  A    between atoms: N_5  and  C_7
REMARK    4  A    between atoms: C_7  and  C_8
REMARK    5  A    between atoms: C_12  and  N_14
REMARK    6  A    between atoms: C_15  and  C_17
REMARK    7  A    between atoms: C_17  and  C_19
REMARK    8  A    between atoms: C_17  and  N_23
REMARK    9  A    between atoms: C_19  and  C_20
REMARK   10  A    between atoms: C_20  and  S_21
REMARK   11  A    between atoms: S_21  and  C_22
REMARK                            x       y       z     vdW  Elec       q    Type
REMARK                         _______ _______ _______ _____ _____    ______ ____
ROOT
ATOM      1  N   UNL     1       4.103  -2.991   4.258  0.00  0.00    -0.284 N 
ATOM      2  C   UNL     1       5.448  -2.902   4.268  0.00  0.00    +0.238 C 
ATOM      3  O   UNL     1       6.082  -3.192   3.276  0.00  0.00    -0.273 OA
ATOM      4  H   UNL     1       3.591  -2.687   5.024  0.00  0.00    +0.155 HD
ENDROOT
BRANCH   1   9
ATOM      5  C   UNL     1       1.549  -3.567   1.677  0.00  0.00    -0.024 A 
ATOM      6  C   UNL     1       2.145  -4.574   0.939  0.00  0.00    +0.005 A 
ATOM      7  C   UNL     1       3.389  -5.056   1.300  0.00  0.00    +0.002 A 
ATOM      8  C   UNL     1       4.041  -4.533   2.400  0.00  0.00    +0.023 A 
ATOM      9  C   UNL     1       3.445  -3.522   3.143  0.00  0.00    +0.034 A 
ATOM     10  C   UNL     1       2.198  -3.037   2.774  0.00  0.00    +0.028 A 
BRANCH   5  11
ATOM     11  C   UNL     1       0.193  -3.044   1.278  0.00  0.00    +0.179 C 
BRANCH  11  16
ATOM     12  C   UNL     1       0.756   1.605  -0.527  0.00  0.00    +0.067 C 
ATOM     13  C   UNL     1       0.601   0.110  -0.429  0.00  0.00    +0.060 A 
ATOM     14  C   UNL     1       0.569  -0.783  -1.505  0.00  0.00    +0.047 A 
ATOM     15  C   UNL     1       0.417  -2.032  -1.006  0.00  0.00    +0.037 A 
ATOM     16  N   UNL     1       0.355  -1.932   0.338  0.00  0.00    -0.264 N 
ATOM     17  N   UNL     1       0.477  -0.578   0.677  0.00  0.00    -0.176 NA
ATOM     18  C   UNL     1       0.332  -3.305  -1.807  0.00  0.00    +0.065 C 
ENDBRANCH  11  16
ENDBRANCH   5  11
ENDBRANCH   1   9
BRANCH   2  19
ATOM     19  C   UNL     1       6.163  -2.442   5.512  0.00  0.00    +0.161 C 
BRANCH  19  20
ATOM     20  N   UNL     1       7.563  -2.870   5.458  0.00  0.00    -0.288 N 
ATOM     21  C   UNL     1       8.357  -2.451   4.452  0.00  0.00    +0.298 C 
ATOM     22  O   UNL     1       7.911  -1.718   3.590  0.00  0.00    -0.253 OA
ATOM     23  N   UNL     1       9.645  -2.845   4.402  0.00  0.00    -0.313 N 
ATOM     24  H   UNL     1       7.918  -3.454   6.145  0.00  0.00    +0.151 HD
ATOM     25  H   UNL     1      10.000  -3.430   5.089  0.00  0.00    +0.146 HD
ATOM     26  H   UNL     1      10.216  -2.544   3.678  0.00  0.00    +0.146 HD
ENDBRANCH  19  20
BRANCH  19  27
ATOM     27  C   UNL     1       6.099  -0.915   5.602  0.00  0.00    +0.042 C 
BRANCH  27  28
ATOM     28  C   UNL     1       6.715  -0.456   6.925  0.00  0.00    +0.071 C 
BRANCH  28  29
ATOM     29  S   UNL     1       6.640   1.353   7.031  0.00  0.00    -0.164 S 
ATOM     30  C   UNL     1       7.399   1.731   8.635  0.00  0.00    +0.084 C 
ENDBRANCH  28  29
ENDBRANCH  27  28
ENDBRANCH  19  27
ENDBRANCH   2  19
TORSDOF 8
