REMARK  Name = ZINC05590460
REMARK  4 active torsions:
REMARK  status: ('A' for Active; 'I' for Inactive)
REMARK    1  A    between atoms: N_6  and  C_7
REMARK    2  A    between atoms: C_7  and  C_9
REMARK    3  A    between atoms: C_7  and  C_20
REMARK    4  A    between atoms: C_18  and  O_19
REMARK                            x       y       z     vdW  Elec       q    Type
REMARK                         _______ _______ _______ _____ _____    ______ ____
ROOT
ATOM      1  C   UNL     1       2.468   3.909  -0.000  0.00  0.00    +0.140 C 
ENDROOT
BRANCH   1   2
ATOM      2  C   UNL     1       1.153   3.173  -0.008  0.00  0.00    +0.021 A 
ATOM      3  C   UNL     1       1.147   1.781   0.013  0.00  0.00    +0.010 A 
ATOM      4  C   UNL     1      -0.024   1.085   0.007  0.00  0.00    +0.010 A 
ATOM      5  C   UNL     1      -1.245   1.778  -0.025  0.00  0.00    +0.004 A 
ATOM      6  C   UNL     1      -2.475   1.094  -0.038  0.00  0.00    +0.011 A 
ATOM      7  C   UNL     1      -3.623   1.834  -0.070  0.00  0.00    +0.020 A 
ATOM      8  C   UNL     1      -3.553   3.225  -0.089  0.00  0.00    +0.111 A 
ATOM      9  N   UNL     1      -2.406   3.858  -0.067  0.00  0.00    -0.251 NA
ATOM     10  C   UNL     1      -1.246   3.195  -0.041  0.00  0.00    +0.113 A 
ATOM     11  C   UNL     1      -0.014   3.881  -0.034  0.00  0.00    +0.148 A 
BRANCH  11  12
ATOM     12  O   UNL     1       0.011   5.239  -0.054  0.00  0.00    -0.504 OA
ATOM     13  H   UNL     1       0.031   5.620  -0.943  0.00  0.00    +0.292 HD
ENDBRANCH  11  12
ENDBRANCH   1   2
BRANCH   1  19
ATOM     14  C   UNL     1       6.070   5.458  -1.493  0.00  0.00    +0.005 A 
ATOM     15  C   UNL     1       7.045   4.577  -1.942  0.00  0.00    +0.018 A 
ATOM     16  C   UNL     1       6.806   3.219  -1.888  0.00  0.00    +0.084 A 
ATOM     17  C   UNL     1       4.713   3.558  -0.977  0.00  0.00    +0.097 A 
ATOM     18  C   UNL     1       4.886   4.939  -1.002  0.00  0.00    +0.041 A 
ATOM     19  N   UNL     1       3.528   3.022  -0.487  0.00  0.00    -0.319 N 
ATOM     20  H   UNL     1       3.402   2.060  -0.467  0.00  0.00    +0.148 HD
ATOM     21  N   UNL     1       5.657   2.673  -1.407  0.00  0.00    -0.350 N 
ATOM     22  H   UNL     1       5.510   1.657  -1.371  0.00  0.00    +0.166 HD
ENDBRANCH   1  19
BRANCH   1  23
ATOM     23  C   UNL     1       2.788   4.351   1.404  0.00  0.00    +0.031 A 
ATOM     24  C   UNL     1       2.642   5.681   1.763  0.00  0.00    +0.130 A 
ATOM     25  C   UNL     1       2.936   6.085   3.054  0.00  0.00    +0.039 A 
ATOM     26  C   UNL     1       3.376   5.162   3.984  0.00  0.00    +0.004 A 
ATOM     27  C   UNL     1       3.522   3.835   3.626  0.00  0.00    +0.020 A 
ATOM     28  C   UNL     1       3.224   3.428   2.338  0.00  0.00    +0.049 A 
ATOM     29 CL   UNL     1       3.401   1.760   1.891  0.00  0.00    -0.083 Cl
ATOM     30  F   UNL     1       2.212   6.582   0.853  0.00  0.00    -0.205 F 
ENDBRANCH   1  23
TORSDOF 4
