REMARK  Name = ZINC35360757
REMARK  8 active torsions:
REMARK  status: ('A' for Active; 'I' for Inactive)
REMARK    1  A    between atoms: C_1  and  C_2
REMARK    2  A    between atoms: C_3  and  S_9
REMARK    3  A    between atoms: C_4  and  C_8
REMARK    4  A    between atoms: S_9  and  N_12
REMARK    5  A    between atoms: N_12  and  C_13
REMARK    6  A    between atoms: N_12  and  C_14
REMARK    7  A    between atoms: C_14  and  C_15
REMARK    8  A    between atoms: C_20  and  N_21
REMARK                            x       y       z     vdW  Elec       q    Type
REMARK                         _______ _______ _______ _____ _____    ______ ____
ROOT
ATOM      1  N   UNL     1       1.772  -0.403  -2.682  0.00  0.00    -0.175 NA
ATOM      2  C   UNL     1       2.454  -1.277  -3.640  0.00  0.00    +0.132 C 
ENDROOT
BRANCH   1   3
ATOM      3  S   UNL     1       0.419  -0.939  -1.891  0.00  0.00    +0.064 S 
ATOM      4  O   UNL     1       0.244  -0.089  -0.765  0.00  0.00    -0.153 OA
ATOM      5  O   UNL     1       0.551  -2.348  -1.769  0.00  0.00    -0.153 OA
BRANCH   3   8
ATOM      6  C   UNL     1      -0.970  -2.931  -4.103  0.00  0.00    +0.067 C 
ATOM      7  C   UNL     1      -1.470  -1.533  -3.846  0.00  0.00    +0.060 A 
ATOM      8  C   UNL     1      -0.955  -0.652  -2.956  0.00  0.00    +0.148 A 
ATOM      9  C   UNL     1      -1.707   0.524  -3.031  0.00  0.00    +0.086 A 
ATOM     10  N   UNL     1      -2.640   0.357  -3.933  0.00  0.00    -0.177 NA
ATOM     11  N   UNL     1      -2.507  -0.932  -4.466  0.00  0.00    -0.280 N 
ATOM     12  H   UNL     1      -3.064  -1.324  -5.156  0.00  0.00    +0.189 HD
ATOM     13  C   UNL     1      -1.482   1.770  -2.213  0.00  0.00    +0.069 C 
ENDBRANCH   3   8
ENDBRANCH   1   3
BRANCH   1  14
ATOM     14  C   UNL     1       2.285   0.944  -2.425  0.00  0.00    +0.146 C 
BRANCH  14  15
ATOM     15  C   UNL     1       3.364   0.878  -1.374  0.00  0.00    -0.011 A 
ATOM     16  C   UNL     1       3.055   1.123  -0.051  0.00  0.00    +0.007 A 
ATOM     17  C   UNL     1       4.044   1.064   0.914  0.00  0.00    +0.000 A 
ATOM     18  C   UNL     1       5.345   0.758   0.557  0.00  0.00    +0.002 A 
ATOM     19  C   UNL     1       5.660   0.512  -0.764  0.00  0.00    +0.023 A 
ATOM     20  C   UNL     1       4.668   0.566  -1.735  0.00  0.00    +0.029 A 
BRANCH  20  21
ATOM     21  N   UNL     1       4.983   0.312  -3.072  0.00  0.00    -0.358 N 
ATOM     22  H   UNL     1       4.351   0.541  -3.771  0.00  0.00    +0.142 HD
ATOM     23  H   UNL     1       5.833  -0.094  -3.301  0.00  0.00    +0.142 HD
ENDBRANCH  20  21
ENDBRANCH  14  15
ENDBRANCH   1  14
TORSDOF 5
