REMARK  Name = ZINC08393021
REMARK  11 active torsions:
REMARK  status: ('A' for Active; 'I' for Inactive)
REMARK    1  A    between atoms: C_1  and  C_2
REMARK    2  A    between atoms: C_2  and  C_3
REMARK    3  A    between atoms: C_3  and  C_4
REMARK    4  A    between atoms: C_4  and  N_5
REMARK    5  A    between atoms: C_6  and  N_30
REMARK    6  A    between atoms: C_7  and  N_14
REMARK    7  A    between atoms: N_14  and  C_15
REMARK    8  A    between atoms: C_15  and  C_16
REMARK    9  A    between atoms: C_17  and  C_19
REMARK   10  A    between atoms: C_22  and  O_25
REMARK   11  A    between atoms: O_25  and  C_26
REMARK                            x       y       z     vdW  Elec       q    Type
REMARK                         _______ _______ _______ _____ _____    ______ ____
ROOT
ATOM      1  N   UNL     1      -3.762   3.788  -0.409  0.00  0.00    -0.280 N 
ATOM      2  C   UNL     1      -2.567   3.108  -0.359  0.00  0.00    +0.127 A 
ATOM      3  C   UNL     1      -1.387   3.807  -0.518  0.00  0.00    +0.140 A 
ATOM      4  C   UNL     1      -1.444   5.196  -0.737  0.00  0.00    +0.277 A 
ATOM      5  O   UNL     1      -0.418   5.837  -0.885  0.00  0.00    -0.266 OA
ATOM      6  N   UNL     1      -2.641   5.813  -0.782  0.00  0.00    -0.273 N 
ATOM      7  H   UNL     1      -2.683   6.800  -0.938  0.00  0.00    +0.173 HD
ATOM      8  C   UNL     1      -3.780   5.117  -0.621  0.00  0.00    +0.331 A 
ATOM      9  O   UNL     1      -4.847   5.699  -0.666  0.00  0.00    -0.246 OA
ENDROOT
BRANCH   3  10
ATOM     10  N   UNL     1      -0.146   3.139  -0.466  0.00  0.00    -0.260 N 
ATOM     11  C   UNL     1       0.177   2.243  -1.420  0.00  0.00    +0.251 C 
ATOM     12  O   UNL     1       1.282   1.735  -1.427  0.00  0.00    -0.270 OA
BRANCH  11  13
ATOM     13  C   UNL     1      -0.809   1.879  -2.455  0.00  0.00    +0.037 A 
ATOM     14  C   UNL     1      -1.773   2.806  -2.862  0.00  0.00    +0.016 A 
ATOM     15  C   UNL     1      -2.696   2.460  -3.823  0.00  0.00    +0.047 A 
ATOM     16  C   UNL     1      -2.669   1.191  -4.390  0.00  0.00    +0.130 A 
ATOM     17  C   UNL     1      -1.712   0.267  -3.989  0.00  0.00    +0.047 A 
ATOM     18  C   UNL     1      -0.786   0.604  -3.028  0.00  0.00    +0.016 A 
BRANCH  16  19
ATOM     19  O   UNL     1      -3.580   0.854  -5.338  0.00  0.00    -0.406 OA
BRANCH  19  20
ATOM     20  C   UNL     1      -4.488   1.875  -5.757  0.00  0.00    +0.575 C 
ATOM     21  F   UNL     1      -3.767   2.965  -6.256  0.00  0.00    -0.133 F 
ATOM     22  F   UNL     1      -5.326   1.372  -6.759  0.00  0.00    -0.133 F 
ATOM     23  F   UNL     1      -5.261   2.288  -4.667  0.00  0.00    -0.133 F 
ENDBRANCH  19  20
ENDBRANCH  16  19
ENDBRANCH  11  13
BRANCH  10  24
ATOM     24  C   UNL     1       0.792   3.420   0.623  0.00  0.00    +0.111 C 
ATOM     25  C   UNL     1       1.819   4.454   0.159  0.00  0.00    +0.025 C 
ENDBRANCH  10  24
ENDBRANCH   3  10
BRANCH   2  26
ATOM     26  N   UNL     1      -2.548   1.750  -0.149  0.00  0.00    -0.343 N 
ATOM     27  H   UNL     1      -1.707   1.268  -0.173  0.00  0.00    +0.144 HD
ATOM     28  H   UNL     1      -3.376   1.274   0.023  0.00  0.00    +0.144 HD
ENDBRANCH   2  26
BRANCH   1  29
ATOM     29  C   UNL     1      -5.021   3.061  -0.236  0.00  0.00    +0.128 C 
BRANCH  29  30
ATOM     30  C   UNL     1      -5.460   2.474  -1.579  0.00  0.00    +0.021 C 
BRANCH  30  32
ATOM     31  C   UNL     1      -7.212   1.118  -2.733  0.00  0.00    +0.004 C 
ATOM     32  C   UNL     1      -6.828   1.808  -1.423  0.00  0.00    -0.002 C 
ENDBRANCH  30  32
ENDBRANCH  29  30
ENDBRANCH   1  29
TORSDOF 9
