REMARK  Name = ZINC36502719
REMARK  15 active torsions:
REMARK  status: ('A' for Active; 'I' for Inactive)
REMARK    1  A    between atoms: C_1  and  C_2
REMARK    2  A    between atoms: C_2  and  C_3
REMARK    3  A    between atoms: C_3  and  C_4
REMARK    4  A    between atoms: C_4  and  N_5
REMARK    5  A    between atoms: C_6  and  C_8
REMARK    6  A    between atoms: C_8  and  C_10
REMARK    7  A    between atoms: C_8  and  N_19
REMARK    8  A    between atoms: C_11  and  O_18
REMARK    9  A    between atoms: C_13  and  O_17
REMARK   10  A    between atoms: C_15  and  O_16
REMARK   11  A    between atoms: N_19  and  C_20
REMARK   12  A    between atoms: C_20  and  C_21
REMARK   13  A    between atoms: C_26  and  C_28
REMARK   14  A    between atoms: C_29  and  C_30
REMARK   15  A    between atoms: C_29  and  C_31
REMARK                            x       y       z     vdW  Elec       q    Type
REMARK                         _______ _______ _______ _____ _____    ______ ____
ROOT
ATOM      1  C   UNL     1       1.546  -5.073   4.962  0.00  0.00    +0.200 C 
ENDROOT
BRANCH   1   2
ATOM      2  C   UNL     1       2.419  -4.649   6.114  0.00  0.00    +0.065 A 
ATOM      3  C   UNL     1       3.787  -4.508   5.933  0.00  0.00    +0.129 A 
ATOM      4  C   UNL     1       4.591  -4.118   6.993  0.00  0.00    +0.091 A 
ATOM      5  C   UNL     1       4.027  -3.867   8.235  0.00  0.00    +0.124 A 
ATOM      6  C   UNL     1       2.659  -4.006   8.416  0.00  0.00    +0.091 A 
ATOM      7  C   UNL     1       1.855  -4.392   7.355  0.00  0.00    +0.129 A 
BRANCH   7   8
ATOM      8  O   UNL     1       0.514  -4.524   7.532  0.00  0.00    -0.506 OA
ATOM      9  H   UNL     1       0.239  -5.409   7.809  0.00  0.00    +0.292 HD
ENDBRANCH   7   8
BRANCH   5  10
ATOM     10  O   UNL     1       4.815  -3.485   9.274  0.00  0.00    -0.507 OA
ATOM     11  H   UNL     1       4.928  -2.527   9.351  0.00  0.00    +0.292 HD
ENDBRANCH   5  10
BRANCH   3  12
ATOM     12  O   UNL     1       4.339  -4.755   4.716  0.00  0.00    -0.506 OA
ATOM     13  H   UNL     1       4.331  -3.994   4.119  0.00  0.00    +0.292 HD
ENDBRANCH   3  12
ENDBRANCH   1   2
BRANCH   1  15
ATOM     14  N   UNL     1       0.668  -2.889   4.201  0.00  0.00    -0.313 N 
ATOM     15  C   UNL     1       1.459  -3.953   3.958  0.00  0.00    +0.238 C 
ATOM     16  O   UNL     1       2.102  -4.009   2.931  0.00  0.00    -0.273 OA
ATOM     17  H   UNL     1       0.154  -2.845   5.022  0.00  0.00    +0.149 HD
BRANCH  14  18
ATOM     18  C   UNL     1       0.584  -1.800   3.224  0.00  0.00    +0.104 C 
BRANCH  18  19
ATOM     19  C   UNL     1      -0.375  -0.726   3.740  0.00  0.00    +0.018 C 
BRANCH  19  21
ATOM     20  C   UNL     1      -1.422   1.486   3.236  0.00  0.00    +0.004 C 
ATOM     21  C   UNL     1      -0.462   0.412   2.720  0.00  0.00    -0.002 C 
ENDBRANCH  19  21
ENDBRANCH  18  19
ENDBRANCH  14  18
ENDBRANCH   1  15
BRANCH   1  22
ATOM     22  N   UNL     1       2.122  -6.259   4.323  0.00  0.00    -0.275 N 
ATOM     23  C   UNL     1       2.753  -7.187   5.070  0.00  0.00    +0.241 C 
ATOM     24  O   UNL     1       2.844  -7.040   6.273  0.00  0.00    -0.271 OA
BRANCH  23  25
ATOM     25  C   UNL     1       3.332  -8.377   4.428  0.00  0.00    +0.066 C 
ATOM     26  C   UNL     1       4.057  -9.232   5.144  0.00  0.00    -0.071 C 
ATOM     27  C   UNL     1       4.460  -8.882   6.553  0.00  0.00    +0.039 C 
ATOM     28  C   UNL     1       4.474 -10.551   4.545  0.00  0.00    +0.039 C 
ENDBRANCH  23  25
BRANCH  22  29
ATOM     29  C   UNL     1       2.013  -6.435   2.873  0.00  0.00    +0.183 C 
BRANCH  29  30
ATOM     30  C   UNL     1       3.333  -6.107   2.226  0.00  0.00    +0.122 A 
ATOM     31  C   UNL     1       4.390  -6.934   2.131  0.00  0.00    +0.046 A 
ATOM     32  C   UNL     1       5.408  -6.223   1.455  0.00  0.00    +0.041 A 
ATOM     33  C   UNL     1       4.912  -5.004   1.177  0.00  0.00    +0.195 A 
ATOM     34  O   UNL     1       3.653  -4.941   1.641  0.00  0.00    -0.466 OA
ENDBRANCH  29  30
ENDBRANCH  22  29
ENDBRANCH   1  22
TORSDOF 12
