REMARK  Name = ZINC15730643
REMARK  4 active torsions:
REMARK  status: ('A' for Active; 'I' for Inactive)
REMARK    1  A    between atoms: C_1  and  C_2
REMARK    2  A    between atoms: C_9  and  S_15
REMARK    3  A    between atoms: S_15  and  N_18
REMARK    4  A    between atoms: N_18  and  C_19
REMARK                            x       y       z     vdW  Elec       q    Type
REMARK                         _______ _______ _______ _____ _____    ______ ____
ROOT
ATOM      1  C   UNL     1       0.620   3.597  -0.506  0.00  0.00    +0.018 C 
ATOM      2  C   UNL     1       1.119   2.244   0.003  0.00  0.00    +0.082 C 
ATOM      3  C   UNL     1       2.254   1.785  -0.867  0.00  0.00    +0.087 C 
ATOM      4  S   UNL     1       3.189   0.427  -0.180  0.00  0.00    -0.123 S 
ATOM      5  C   UNL     1       2.226  -1.025  -0.310  0.00  0.00    +0.029 A 
ATOM      6  C   UNL     1       2.927  -2.220  -0.530  0.00  0.00    +0.018 A 
ATOM      7  C   UNL     1       2.280  -3.427  -0.637  0.00  0.00    +0.030 A 
ATOM      8  C   UNL     1       0.902  -3.471  -0.524  0.00  0.00    +0.107 A 
ATOM      9  C   UNL     1       0.201  -2.309  -0.312  0.00  0.00    +0.053 A 
ATOM     10  C   UNL     1       0.844  -1.064  -0.208  0.00  0.00    +0.049 A 
ATOM     11  N   UNL     1       0.002  -0.004   0.002  0.00  0.00    -0.284 N 
ATOM     12  C   UNL     1      -0.015   1.282   0.009  0.00  0.00    +0.221 C 
ATOM     13  O   UNL     1      -1.119   1.785   0.017  0.00  0.00    -0.275 OA
ATOM     14  H   UNL     1      -0.883  -0.337   0.220  0.00  0.00    +0.155 HD
ENDROOT
BRANCH   8  15
ATOM     15  S   UNL     1       0.051  -5.009  -0.653  0.00  0.00    +0.059 S 
ATOM     16  O   UNL     1       0.987  -6.021  -0.308  0.00  0.00    -0.153 OA
ATOM     17  O   UNL     1      -1.184  -4.848   0.032  0.00  0.00    -0.153 OA
BRANCH  15  18
ATOM     18  N   UNL     1      -0.320  -5.231  -2.252  0.00  0.00    -0.187 NA
ATOM     19  H   UNL     1      -1.247  -5.247  -2.537  0.00  0.00    +0.148 HD
BRANCH  18  20
ATOM     20  C   UNL     1       0.752  -5.403  -3.235  0.00  0.00    +0.077 C 
ATOM     21  C   UNL     1       1.121  -4.024  -3.819  0.00  0.00    +0.020 C 
ATOM     22  C   UNL     1       2.502  -4.109  -4.410  0.00  0.00    +0.002 C 
ATOM     23  C   UNL     1       2.481  -4.423  -5.918  0.00  0.00    +0.000 C 
ATOM     24  C   UNL     1       1.438  -5.495  -6.290  0.00  0.00    +0.000 C 
ATOM     25  C   UNL     1       1.403  -6.631  -5.303  0.00  0.00    +0.002 C 
ATOM     26  C   UNL     1       0.308  -6.338  -4.258  0.00  0.00    +0.020 C 
ENDBRANCH  18  20
ENDBRANCH  15  18
ENDBRANCH   8  15
TORSDOF 3
