REMARK  Name = ZINC36806282
REMARK  13 active torsions:
REMARK  status: ('A' for Active; 'I' for Inactive)
REMARK    1  A    between atoms: C_1  and  C_2
REMARK    2  A    between atoms: C_3  and  C_7
REMARK    3  A    between atoms: C_10  and  S_13
REMARK    4  A    between atoms: N_11  and  N_12
REMARK    5  A    between atoms: S_13  and  C_14
REMARK    6  A    between atoms: C_14  and  C_16
REMARK    7  A    between atoms: C_14  and  C_17
REMARK    8  A    between atoms: N_19  and  C_20
REMARK    9  A    between atoms: C_20  and  C_21
REMARK   10  A    between atoms: C_20  and  C_22
REMARK   11  A    between atoms: C_20  and  C_24
REMARK   12  A    between atoms: C_24  and  C_25
REMARK   13  A    between atoms: C_24  and  C_26
REMARK                            x       y       z     vdW  Elec       q    Type
REMARK                         _______ _______ _______ _____ _____    ______ ____
ROOT
ATOM      1  C   UNL     1      -2.510  -0.400   0.013  0.00  0.00    +0.185 A 
ATOM      2  N   UNL     1      -2.963   0.832   0.017  0.00  0.00    -0.127 NA
ATOM      3  N   UNL     1      -4.248   0.828   0.025  0.00  0.00    -0.121 NA
ATOM      4  C   UNL     1      -4.695  -0.406   0.027  0.00  0.00    +0.209 A 
ATOM      5  N   UNL     1      -3.605  -1.232   0.013  0.00  0.00    -0.224 N 
ENDROOT
BRANCH   1   8
ATOM      6  C   UNL     1      -0.018   1.503   0.010  0.00  0.00    +0.087 C 
ATOM      7  C   UNL     1       0.002  -0.004   0.002  0.00  0.00    +0.112 A 
ATOM      8  C   UNL     1      -1.091  -0.815   0.003  0.00  0.00    +0.061 A 
ATOM      9  C   UNL     1      -0.568  -2.187  -0.008  0.00  0.00    +0.053 A 
ATOM     10  C   UNL     1       0.770  -2.074  -0.014  0.00  0.00    +0.196 A 
ATOM     11  O   UNL     1       1.100  -0.773  -0.013  0.00  0.00    -0.467 OA
ENDBRANCH   1   8
BRANCH   5  12
ATOM     12  N   UNL     1      -3.604  -2.598   0.004  0.00  0.00    -0.295 N 
ATOM     13  H   UNL     1      -3.598  -2.966   0.944  0.00  0.00    +0.163 HD
ATOM     14  H   UNL     1      -4.388  -2.957  -0.520  0.00  0.00    +0.163 HD
ENDBRANCH   5  12
BRANCH   4  15
ATOM     15  S   UNL     1      -6.385  -0.906   0.039  0.00  0.00    -0.072 S 
BRANCH  15  16
ATOM     16  C   UNL     1      -7.305   0.657   0.047  0.00  0.00    +0.137 C 
ATOM     17  C   UNL     1      -7.029   1.405   1.353  0.00  0.00    +0.029 C 
BRANCH  16  18
ATOM     18  C   UNL     1      -8.780   0.372  -0.067  0.00  0.00    +0.227 C 
ATOM     19  O   UNL     1      -9.221  -0.696   0.300  0.00  0.00    -0.275 OA
ATOM     20  N   UNL     1      -9.609   1.305  -0.576  0.00  0.00    -0.296 N 
ATOM     21  H   UNL     1      -9.256   2.159  -0.870  0.00  0.00    +0.150 HD
BRANCH  20  22
ATOM     22  C   UNL     1     -11.044   1.028  -0.686  0.00  0.00    +0.121 C 
ATOM     23  C   UNL     1     -11.617   0.743   0.704  0.00  0.00    +0.048 C 
BRANCH  22  24
ATOM     24  C   UNL     1     -11.752   2.241  -1.291  0.00  0.00    +0.020 C 
ATOM     25  C   UNL     1     -11.269   2.450  -2.728  0.00  0.00    +0.010 C 
ATOM     26  C   UNL     1     -13.263   2.002  -1.292  0.00  0.00    +0.010 C 
ENDBRANCH  22  24
BRANCH  22  27
ATOM     27  C   UNL     1     -11.252  -0.144  -1.552  0.00  0.00    +0.088 C 
ATOM     28  N   UNL     1     -11.413  -1.049  -2.220  0.00  0.00    -0.194 NA
ENDBRANCH  22  27
ENDBRANCH  20  22
ENDBRANCH  16  18
ENDBRANCH  15  16
ENDBRANCH   4  15
TORSDOF 8
