REMARK  Name = ZINC40558475
REMARK  7 active torsions:
REMARK  status: ('A' for Active; 'I' for Inactive)
REMARK    1  A    between atoms: C_1  and  C_2
REMARK    2  A    between atoms: C_2  and  C_3
REMARK    3  A    between atoms: C_3  and  C_4
REMARK    4  A    between atoms: C_4  and  C_5
REMARK    5  A    between atoms: C_4  and  C_6
REMARK    6  A    between atoms: C_4  and  N_9
REMARK    7  A    between atoms: C_16  and  C_18
REMARK                            x       y       z     vdW  Elec       q    Type
REMARK                         _______ _______ _______ _____ _____    ______ ____
ROOT
ATOM      1  N   UNL     1       1.425  -2.500  -2.470  0.00  0.00    -0.284 N 
ATOM      2  C   UNL     1       1.564  -3.822  -2.692  0.00  0.00    +0.304 C 
ATOM      3  O   UNL     1       1.120  -4.622  -1.892  0.00  0.00    -0.253 OA
ATOM      4  N   UNL     1       2.195  -4.256  -3.801  0.00  0.00    -0.274 N 
ATOM      5  C   UNL     1       2.783  -3.400  -4.846  0.00  0.00    +0.110 C 
ATOM      6  C   UNL     1       3.871  -4.279  -5.514  0.00  0.00    +0.021 C 
ATOM      7  C   UNL     1       3.196  -5.675  -5.497  0.00  0.00    +0.033 C 
ATOM      8  C   UNL     1       2.415  -5.664  -4.165  0.00  0.00    +0.163 C 
ATOM      9  H   UNL     1       1.779  -1.861  -3.109  0.00  0.00    +0.151 HD
ENDROOT
BRANCH   8  10
ATOM     10  C   UNL     1       1.091  -6.360  -4.345  0.00  0.00    +0.231 C 
ATOM     11  O   UNL     1       0.057  -5.747  -4.185  0.00  0.00    -0.274 OA
ATOM     12  N   UNL     1       1.056  -7.665  -4.683  0.00  0.00    -0.328 N 
ATOM     13  H   UNL     1       1.883  -8.155  -4.810  0.00  0.00    +0.145 HD
ATOM     14  H   UNL     1       0.203  -8.113  -4.798  0.00  0.00    +0.145 HD
ENDBRANCH   8  10
BRANCH   1  15
ATOM     15  C   UNL     1       0.739  -2.027  -1.265  0.00  0.00    +0.134 C 
ATOM     16  C   UNL     1      -0.696  -2.557  -1.254  0.00  0.00    +0.044 C 
BRANCH  15  17
ATOM     17  C   UNL     1       1.468  -2.526  -0.044  0.00  0.00    +0.379 C 
ATOM     18  O   UNL     1       1.058  -2.244   1.069  0.00  0.00    -0.244 OA
ATOM     19  O   UNL     1       2.467  -3.213  -0.169  0.00  0.00    -0.244 OA
ENDBRANCH  15  17
BRANCH  15  20
ATOM     20  C   UNL     1       0.718  -0.497  -1.257  0.00  0.00    +0.037 C 
BRANCH  20  22
ATOM     21  C   UNL     1      -0.019   1.526   0.010  0.00  0.00    +0.004 C 
ATOM     22  C   UNL     1       0.002  -0.004   0.002  0.00  0.00    -0.001 C 
ENDBRANCH  20  22
ENDBRANCH  15  20
ENDBRANCH   1  15
TORSDOF 5
