REMARK  Name = ZINC32736043
REMARK  6 active torsions:
REMARK  status: ('A' for Active; 'I' for Inactive)
REMARK    1  A    between atoms: C_1  and  C_2
REMARK    2  A    between atoms: C_4  and  N_15
REMARK    3  A    between atoms: N_5  and  C_7
REMARK    4  A    between atoms: C_16  and  C_18
REMARK    5  A    between atoms: C_18  and  O_19
REMARK    6  A    between atoms: O_19  and  C_20
REMARK                            x       y       z     vdW  Elec       q    Type
REMARK                         _______ _______ _______ _____ _____    ______ ____
ROOT
ATOM      1  N   UNL     1       1.391  -2.545   8.474  0.00  0.00    -0.268 N 
ATOM      2  C   UNL     1       1.409  -2.241   7.161  0.00  0.00    +0.256 C 
ATOM      3  O   UNL     1       2.134  -2.855   6.406  0.00  0.00    -0.272 OA
ATOM      4  H   UNL     1       0.734  -1.988   9.158  0.00  0.00    +0.156 HD
ENDROOT
BRANCH   1   8
ATOM      5  C   UNL     1       4.708  -6.265   8.729  0.00  0.00    +0.067 C 
ATOM      6  C   UNL     1       3.683  -5.228   9.110  0.00  0.00    +0.062 A 
ATOM      7  C   UNL     1       3.063  -4.330   8.236  0.00  0.00    +0.068 A 
ATOM      8  C   UNL     1       2.206  -3.564   8.965  0.00  0.00    +0.124 A 
ATOM      9  N   UNL     1       2.292  -3.968  10.253  0.00  0.00    -0.246 N 
ATOM     10  N   UNL     1       3.220  -5.016  10.315  0.00  0.00    -0.175 NA
BRANCH   9  11
ATOM     11  C   UNL     1       1.544  -3.411  11.383  0.00  0.00    +0.132 C 
ATOM     12  C   UNL     1       0.685  -4.510  12.030  0.00  0.00    +0.051 C 
ATOM     13  C   UNL     1       0.148  -4.024  13.398  0.00  0.00    +0.168 C 
ATOM     14  S   UNL     1       1.435  -2.825  13.934  0.00  0.00    -0.029 S 
ATOM     15  O   UNL     1       0.852  -1.533  14.032  0.00  0.00    -0.174 OA
ATOM     16  O   UNL     1       2.133  -3.363  15.049  0.00  0.00    -0.174 OA
ATOM     17  C   UNL     1       2.534  -2.876  12.456  0.00  0.00    +0.192 C 
ENDBRANCH   9  11
ENDBRANCH   1   8
BRANCH   2  18
ATOM     18  C   UNL     1       0.529  -1.139   6.630  0.00  0.00    +0.324 C 
BRANCH  18  19
ATOM     19  O   UNL     1       0.726  -1.009   5.220  0.00  0.00    -0.483 OA
BRANCH  19  20
ATOM     20  C   UNL     1       0.001  -0.053   4.581  0.00  0.00    +0.122 A 
ATOM     21  C   UNL     1      -0.876   0.735   5.315  0.00  0.00    +0.049 A 
ATOM     22  C   UNL     1      -1.644   1.727   4.730  0.00  0.00    +0.050 A 
ATOM     23  C   UNL     1      -1.506   1.912   3.357  0.00  0.00    +0.136 A 
ATOM     24  C   UNL     1      -0.611   1.109   2.607  0.00  0.00    +0.027 A 
ATOM     25  C   UNL     1       0.158   0.112   3.212  0.00  0.00    +0.057 A 
ATOM     26  C   UNL     1      -0.725   1.575   1.242  0.00  0.00    +0.001 A 
ATOM     27  C   UNL     1      -1.635   2.573   1.253  0.00  0.00    +0.109 A 
ATOM     28  O   UNL     1      -2.088   2.764   2.507  0.00  0.00    -0.459 OA
ATOM     29  C   UNL     1      -2.053   3.339   0.019  0.00  0.00    +0.075 C 
ATOM     30  C   UNL     1      -1.013   3.101  -1.081  0.00  0.00    +0.008 C 
ATOM     31  C   UNL     1      -0.762   1.597  -1.228  0.00  0.00    +0.005 C 
ATOM     32  C   UNL     1      -0.013   1.086   0.008  0.00  0.00    +0.039 C 
ENDBRANCH  19  20
ENDBRANCH  18  19
ENDBRANCH   2  18
TORSDOF 5
