REMARK  Name = ZINC14237851
REMARK  9 active torsions:
REMARK  status: ('A' for Active; 'I' for Inactive)
REMARK    1  A    between atoms: C_10  and  O_12
REMARK    2  A    between atoms: O_12  and  C_13
REMARK    3  A    between atoms: C_13  and  C_14
REMARK    4  A    between atoms: C_14  and  C_16
REMARK    5  A    between atoms: C_14  and  O_31
REMARK    6  A    between atoms: C_16  and  N_54
REMARK    7  A    between atoms: C_17  and  C_19
REMARK    8  A    between atoms: C_17  and  C_26
REMARK    9  A    between atoms: C_17  and  N_54
REMARK                            x       y       z     vdW  Elec       q    Type
REMARK                         _______ _______ _______ _____ _____    ______ ____
ROOT
ATOM      1  C   UNL     1       2.129   1.247  -1.259  0.00  0.00    -0.047 C 
ENDROOT
BRANCH   1   2
ATOM      2  N   UNL     1       1.440   1.789  -2.445  0.00  0.00    +0.388 N 
ATOM      3  H   UNL     1       1.376   2.810  -2.363  0.00  0.00    -0.084 HD
ATOM      4  H   UNL     1       0.495   1.390  -2.500  0.00  0.00    -0.084 HD
BRANCH   2   5
ATOM      5  C   UNL     1       2.185   1.445  -3.671  0.00  0.00    -0.003 C 
BRANCH   5   6
ATOM      6  C   UNL     1       1.866   2.454  -4.743  0.00  0.00    -0.056 A 
ATOM      7  C   UNL     1       0.573   2.920  -4.892  0.00  0.00    +0.005 A 
ATOM      8  C   UNL     1       0.280   3.849  -5.871  0.00  0.00    +0.038 A 
ATOM      9  C   UNL     1       1.281   4.307  -6.712  0.00  0.00    +0.123 A 
ATOM     10  C   UNL     1       2.575   3.837  -6.566  0.00  0.00    +0.038 A 
ATOM     11  C   UNL     1       2.866   2.911  -5.582  0.00  0.00    +0.005 A 
ATOM     12  F   UNL     1       0.995   5.212  -7.673  0.00  0.00    -0.205 F 
ENDBRANCH   5   6
BRANCH   5  13
ATOM     13  C   UNL     1       1.778   0.071  -4.138  0.00  0.00    -0.020 A 
ATOM     14  C   UNL     1       2.547  -0.915  -4.661  0.00  0.00    +0.010 A 
ATOM     15  C   UNL     1       1.952  -2.110  -5.020  0.00  0.00    +0.008 A 
ATOM     16  C   UNL     1       0.615  -2.256  -4.849  0.00  0.00    +0.045 A 
ATOM     17  S   UNL     1       0.157  -0.677  -4.154  0.00  0.00    -0.103 S 
ENDBRANCH   5  13
ENDBRANCH   2   5
ENDBRANCH   1   2
BRANCH   1  18
ATOM     18  C   UNL     1       1.335   1.619  -0.005  0.00  0.00    +0.123 C 
BRANCH  18  19
ATOM     19  O   UNL     1       0.062   0.970  -0.037  0.00  0.00    -0.391 OA
ATOM     20  H   UNL     1       0.114   0.005  -0.066  0.00  0.00    +0.210 HD
ENDBRANCH  18  19
BRANCH  18  21
ATOM     21  C   UNL     1       2.106   1.170   1.238  0.00  0.00    +0.190 C 
BRANCH  21  22
ATOM     22  O   UNL     1       1.422   1.619   2.410  0.00  0.00    -0.369 OA
BRANCH  22  32
ATOM     23  C   UNL     1       1.273   4.126   6.631  0.00  0.00    +0.000 A 
ATOM     24  C   UNL     1       1.640   4.492   5.349  0.00  0.00    +0.000 A 
ATOM     25  C   UNL     1       1.869   3.519   4.398  0.00  0.00    +0.006 A 
ATOM     26  C   UNL     1       1.734   2.174   4.718  0.00  0.00    -0.016 A 
ATOM     27  C   UNL     1       1.365   1.810   5.994  0.00  0.00    -0.042 A 
ATOM     28  C   UNL     1       1.137   2.791   6.950  0.00  0.00    +0.004 A 
ATOM     29  C   UNL     1       1.192   0.372   6.409  0.00  0.00    +0.035 C 
ATOM     30  C   UNL     1       1.879  -0.561   5.413  0.00  0.00    +0.007 C 
ATOM     31  C   UNL     1       1.408  -0.193   4.001  0.00  0.00    +0.037 C 
ATOM     32  C   UNL     1       2.005   1.164   3.633  0.00  0.00    +0.149 C 
ENDBRANCH  22  32
ENDBRANCH  21  22
ENDBRANCH  18  21
ENDBRANCH   1  18
TORSDOF 9
