REMARK  Name = ZINC58244947
REMARK  5 active torsions:
REMARK  status: ('A' for Active; 'I' for Inactive)
REMARK    1  A    between atoms: C_1  and  N_2
REMARK    2  A    between atoms: C_6  and  C_8
REMARK    3  A    between atoms: C_8  and  N_9
REMARK    4  A    between atoms: N_9  and  C_10
REMARK    5  A    between atoms: C_13  and  C_16
REMARK                            x       y       z     vdW  Elec       q    Type
REMARK                         _______ _______ _______ _____ _____    ______ ____
ROOT
ATOM      1  C   UNL     1      -3.882  -6.116   0.038  0.00  0.00    +0.028 A 
ATOM      2  C   UNL     1      -2.812  -7.006   0.083  0.00  0.00    +0.023 A 
ATOM      3  C   UNL     1      -3.043  -8.363   0.068  0.00  0.00    +0.015 A 
ATOM      4  C   UNL     1      -4.353  -8.847   0.007  0.00  0.00    +0.037 A 
ATOM      5  C   UNL     1      -5.425  -7.950  -0.038  0.00  0.00    +0.015 A 
ATOM      6  C   UNL     1      -5.188  -6.595  -0.017  0.00  0.00    +0.023 A 
ENDROOT
BRANCH   4   7
ATOM      7  C   UNL     1      -4.604 -10.300  -0.010  0.00  0.00    +0.251 C 
ATOM      8  O   UNL     1      -3.674 -11.076  -0.119  0.00  0.00    -0.270 OA
ATOM      9  N   UNL     1      -5.864 -10.768   0.096  0.00  0.00    -0.267 N 
ATOM     10  C   UNL     1      -7.070  -9.936   0.111  0.00  0.00    +0.118 C 
ATOM     11  C   UNL     1      -8.240 -10.925   0.246  0.00  0.00    +0.056 C 
ATOM     12  C   UNL     1      -7.583 -12.286   0.299  0.00  0.00    -0.024 A 
ATOM     13  C   UNL     1      -6.211 -12.118   0.201  0.00  0.00    +0.040 A 
ATOM     14  C   UNL     1      -5.387 -13.244   0.221  0.00  0.00    +0.024 A 
ATOM     15  C   UNL     1      -5.935 -14.505   0.333  0.00  0.00    +0.002 A 
ATOM     16  C   UNL     1      -7.305 -14.662   0.425  0.00  0.00    +0.000 A 
ATOM     17  C   UNL     1      -8.127 -13.550   0.417  0.00  0.00    +0.005 A 
ENDBRANCH   4   7
BRANCH   1  18
ATOM     18  N   UNL     1      -3.645  -4.746   0.054  0.00  0.00    -0.335 N 
ATOM     19  H   UNL     1      -4.390  -4.125   0.027  0.00  0.00    +0.147 HD
BRANCH  18  20
ATOM     20  C   UNL     1      -2.272  -4.240   0.112  0.00  0.00    +0.198 C 
BRANCH  20  26
ATOM     21  C   UNL     1      -0.011   1.456   0.228  0.00  0.00    +0.129 C 
ATOM     22  N   UNL     1       0.007  -0.009   0.222  0.00  0.00    -0.302 N 
ATOM     23  C   UNL     1      -1.150  -0.698   0.172  0.00  0.00    +0.306 C 
ATOM     24  O   UNL     1      -2.210  -0.103   0.132  0.00  0.00    -0.252 OA
ATOM     25  N   UNL     1      -1.133  -2.045   0.167  0.00  0.00    -0.239 N 
ATOM     26  C   UNL     1      -2.291  -2.734   0.117  0.00  0.00    +0.237 C 
ATOM     27  O   UNL     1      -3.347  -2.141   0.077  0.00  0.00    -0.274 OA
ATOM     28  H   UNL     1       0.853  -0.483   0.254  0.00  0.00    +0.150 HD
ATOM     29  H   UNL     1      -0.288  -2.520   0.199  0.00  0.00    +0.159 HD
ENDBRANCH  20  26
ENDBRANCH  18  20
ENDBRANCH   1  18
TORSDOF 4
