REMARK  Name = ZINC00206909
REMARK  4 active torsions:
REMARK  status: ('A' for Active; 'I' for Inactive)
REMARK    1  A    between atoms: C_1  and  C_2
REMARK    2  A    between atoms: C_7  and  N_8
REMARK    3  A    between atoms: N_18  and  N_19
REMARK    4  A    between atoms: C_23  and  N_43
REMARK                            x       y       z     vdW  Elec       q    Type
REMARK                         _______ _______ _______ _____ _____    ______ ____
ROOT
ATOM      1  N   UNL     1      -2.429   1.040   0.019  0.00  0.00    -0.247 N 
ATOM      2  C   UNL     1      -2.991   0.696   1.193  0.00  0.00    +0.268 A 
ATOM      3  O   UNL     1      -2.459   1.004   2.246  0.00  0.00    -0.266 OA
ATOM      4  C   UNL     1      -4.222  -0.034   1.188  0.00  0.00    +0.076 A 
ATOM      5  C   UNL     1      -5.003  -0.506   2.330  0.00  0.00    -0.026 A 
ATOM      6  C   UNL     1      -6.141  -1.180   2.061  0.00  0.00    -0.021 A 
ATOM      7  S   UNL     1      -6.240  -1.224   0.293  0.00  0.00    -0.075 S 
ATOM      8  C   UNL     1      -4.749  -0.336  -0.080  0.00  0.00    +0.117 A 
ATOM      9  N   UNL     1      -4.143   0.033  -1.203  0.00  0.00    -0.207 NA
ATOM     10  C   UNL     1      -3.014   0.709  -1.170  0.00  0.00    +0.218 A 
ATOM     11  N   UNL     1      -2.413   1.082  -2.347  0.00  0.00    -0.253 N 
ATOM     12  C   UNL     1      -7.095  -1.758   3.059  0.00  0.00    -0.036 C 
ATOM     13  C   UNL     1      -5.810  -0.488   4.672  0.00  0.00    -0.074 C 
ATOM     14  C   UNL     1      -4.586  -0.268   3.780  0.00  0.00    +0.018 C 
ATOM     15  C   UNL     1      -7.363  -2.184   5.433  0.00  0.00    -0.096 C 
ATOM     16  H   UNL     1      -1.579   1.577  -2.330  0.00  0.00    +0.169 HD
ATOM     17  N   UNL     1      -6.405  -1.806   4.371  0.00  0.00    +0.381 N 
ATOM     18  H   UNL     1      -5.658  -2.509   4.330  0.00  0.00    -0.082 HD
ENDROOT
BRANCH   1  25
ATOM     19  C   UNL     1      -2.551   3.883   0.048  0.00  0.00    +0.046 C 
ATOM     20  C   UNL     1      -1.239   3.143   0.031  0.00  0.00    -0.026 A 
ATOM     21  C   UNL     1      -0.049   3.845   0.023  0.00  0.00    +0.005 A 
ATOM     22  C   UNL     1       1.155   3.166   0.008  0.00  0.00    +0.000 A 
ATOM     23  C   UNL     1       1.173   1.783   0.000  0.00  0.00    +0.002 A 
ATOM     24  C   UNL     1      -0.013   1.076   0.008  0.00  0.00    +0.026 A 
ATOM     25  C   UNL     1      -1.224   1.754   0.017  0.00  0.00    +0.056 A 
ENDBRANCH   1  25
BRANCH  11  26
ATOM     26  N   UNL     1      -2.990   0.756  -3.542  0.00  0.00    -0.254 NA
ATOM     27  H   UNL     1      -3.936   1.104  -3.593  0.00  0.00    +0.140 HD
ATOM     28  H   UNL     1      -2.437   1.095  -4.314  0.00  0.00    +0.140 HD
ENDBRANCH  11  26
TORSDOF 2
