REMARK  Name = ZINC36539970
REMARK  13 active torsions:
REMARK  status: ('A' for Active; 'I' for Inactive)
REMARK    1  A    between atoms: C_1  and  C_2
REMARK    2  A    between atoms: C_2  and  C_3
REMARK    3  A    between atoms: N_5  and  C_6
REMARK    4  A    between atoms: N_5  and  C_7
REMARK    5  A    between atoms: C_7  and  C_9
REMARK    6  A    between atoms: C_7  and  C_18
REMARK    7  A    between atoms: C_10  and  O_17
REMARK    8  A    between atoms: C_12  and  O_16
REMARK    9  A    between atoms: C_14  and  O_15
REMARK   10  A    between atoms: N_20  and  C_21
REMARK   11  A    between atoms: C_21  and  S_22
REMARK   12  A    between atoms: S_22  and  C_25
REMARK   13  A    between atoms: C_28  and  C_31
REMARK                            x       y       z     vdW  Elec       q    Type
REMARK                         _______ _______ _______ _____ _____    ______ ____
ROOT
ATOM      1  C   UNL     1      -0.511  -2.717   0.022  0.00  0.00    +0.199 C 
ENDROOT
BRANCH   1   2
ATOM      2  C   UNL     1       0.236  -2.235   1.239  0.00  0.00    +0.065 A 
ATOM      3  C   UNL     1       0.197  -0.894   1.590  0.00  0.00    +0.129 A 
ATOM      4  C   UNL     1       0.885  -0.450   2.709  0.00  0.00    +0.091 A 
ATOM      5  C   UNL     1       1.610  -1.347   3.478  0.00  0.00    +0.124 A 
ATOM      6  C   UNL     1       1.648  -2.688   3.128  0.00  0.00    +0.091 A 
ATOM      7  C   UNL     1       0.957  -3.133   2.011  0.00  0.00    +0.129 A 
BRANCH   7   8
ATOM      8  O   UNL     1       0.990  -4.448   1.671  0.00  0.00    -0.506 OA
ATOM      9  H   UNL     1       1.715  -4.682   1.075  0.00  0.00    +0.292 HD
ENDBRANCH   7   8
BRANCH   5  10
ATOM     10  O   UNL     1       2.285  -0.912   4.575  0.00  0.00    -0.507 OA
ATOM     11  H   UNL     1       1.766  -0.936   5.391  0.00  0.00    +0.292 HD
ENDBRANCH   5  10
BRANCH   3  12
ATOM     12  O   UNL     1      -0.513  -0.015   0.836  0.00  0.00    -0.506 OA
ATOM     13  H   UNL     1      -1.408   0.152   1.165  0.00  0.00    +0.292 HD
ENDBRANCH   3  12
ENDBRANCH   1   2
BRANCH   1  16
ATOM     14  C   UNL     1      -2.733  -2.467   0.991  0.00  0.00    +0.216 C 
ATOM     15  O   UNL     1      -3.877  -2.069   0.935  0.00  0.00    -0.276 OA
ATOM     16  N   UNL     1      -1.859  -2.143   0.018  0.00  0.00    -0.289 N 
ATOM     17  C   UNL     1      -2.257  -1.217  -1.046  0.00  0.00    +0.133 C 
BRANCH  14  19
ATOM     18  C   UNL     1      -3.447  -3.492   3.133  0.00  0.00    +0.013 C 
ATOM     19  C   UNL     1      -2.288  -3.324   2.148  0.00  0.00    +0.092 C 
ENDBRANCH  14  19
ENDBRANCH   1  16
BRANCH   1  20
ATOM     20  C   UNL     1       0.223  -2.287  -1.221  0.00  0.00    +0.240 C 
ATOM     21  O   UNL     1       0.101  -1.153  -1.635  0.00  0.00    -0.273 OA
ATOM     22  N   UNL     1       1.014  -3.161  -1.873  0.00  0.00    -0.294 N 
ATOM     23  H   UNL     1       1.111  -4.068  -1.542  0.00  0.00    +0.150 HD
BRANCH  22  24
ATOM     24  C   UNL     1       1.728  -2.742  -3.083  0.00  0.00    +0.278 C 
BRANCH  24  25
ATOM     25  S   UNL     1       3.407  -2.216  -2.642  0.00  0.00    +0.013 S 
ATOM     26  O   UNL     1       4.133  -1.867  -3.812  0.00  0.00    -0.168 OA
ATOM     27  O   UNL     1       3.368  -1.339  -1.525  0.00  0.00    -0.168 OA
BRANCH  25  28
ATOM     28  C   UNL     1       4.195  -3.673  -2.042  0.00  0.00    +0.090 A 
ATOM     29  C   UNL     1       4.129  -3.992  -0.699  0.00  0.00    +0.027 A 
ATOM     30  C   UNL     1       4.747  -5.135  -0.228  0.00  0.00    +0.005 A 
ATOM     31  C   UNL     1       5.432  -5.960  -1.101  0.00  0.00    -0.050 A 
ATOM     32  C   UNL     1       5.498  -5.642  -2.444  0.00  0.00    +0.005 A 
ATOM     33  C   UNL     1       4.876  -4.501  -2.916  0.00  0.00    +0.027 A 
ATOM     34  C   UNL     1       6.107  -7.206  -0.588  0.00  0.00    +0.044 C 
ENDBRANCH  25  28
ENDBRANCH  24  25
ENDBRANCH  22  24
ENDBRANCH   1  20
TORSDOF 10
