REMARK  Name = ZINC29336470
REMARK  6 active torsions:
REMARK  status: ('A' for Active; 'I' for Inactive)
REMARK    1  A    between atoms: C_1  and  C_2
REMARK    2  A    between atoms: C_9  and  C_11
REMARK    3  A    between atoms: N_13  and  N_14
REMARK    4  A    between atoms: N_17  and  C_18
REMARK    5  A    between atoms: C_18  and  C_20
REMARK    6  A    between atoms: C_18  and  C_21
REMARK                            x       y       z     vdW  Elec       q    Type
REMARK                         _______ _______ _______ _____ _____    ______ ____
ROOT
ATOM      1  C   UNL     1       1.612  -5.258   2.944  0.00  0.00    +0.267 C 
ATOM      2  O   UNL     1       1.775  -5.003   4.123  0.00  0.00    -0.268 OA
ATOM      3  N   UNL     1       1.699  -6.531   2.511  0.00  0.00    -0.229 N 
ATOM      4  H   UNL     1       1.569  -6.734   1.571  0.00  0.00    +0.173 HD
ENDROOT
BRANCH   1  12
ATOM      5  C   UNL     1      -0.019   1.526   0.010  0.00  0.00    +0.008 C 
ATOM      6  C   UNL     1       0.002  -0.004   0.002  0.00  0.00    -0.009 C 
ATOM      7  C   UNL     1       0.716  -0.496  -1.260  0.00  0.00    +0.009 C 
ATOM      8  C   UNL     1       0.494  -2.009  -1.394  0.00  0.00    +0.043 C 
ATOM      9  C   UNL     1       0.790  -2.651  -0.071  0.00  0.00    -0.006 A 
ATOM     10  C   UNL     1       0.909  -2.022   1.133  0.00  0.00    -0.036 A 
ATOM     11  C   UNL     1       1.190  -2.823   2.230  0.00  0.00    +0.024 A 
ATOM     12  C   UNL     1       1.320  -4.179   1.995  0.00  0.00    +0.076 A 
ATOM     13  S   UNL     1       1.042  -4.273   0.236  0.00  0.00    -0.088 S 
ATOM     14  C   UNL     1       0.739  -0.509   1.243  0.00  0.00    +0.039 C 
ENDBRANCH   1  12
BRANCH   3  15
ATOM     15  N   UNL     1       1.978  -7.562   3.418  0.00  0.00    -0.218 N 
ATOM     16  C   UNL     1       2.065  -8.835   2.985  0.00  0.00    +0.316 C 
ATOM     17  O   UNL     1       2.307  -9.730   3.772  0.00  0.00    -0.251 OA
ATOM     18  N   UNL     1       1.885  -9.117   1.679  0.00  0.00    -0.290 N 
ATOM     19  H   UNL     1       2.108  -7.359   4.357  0.00  0.00    +0.174 HD
ATOM     20  H   UNL     1       1.692  -8.403   1.051  0.00  0.00    +0.151 HD
BRANCH  18  21
ATOM     21  C   UNL     1       1.980 -10.501   1.208  0.00  0.00    +0.120 C 
ATOM     22  C   UNL     1       3.444 -10.845   0.929  0.00  0.00    +0.034 C 
BRANCH  21  23
ATOM     23  C   UNL     1       1.177 -10.657  -0.057  0.00  0.00    +0.061 A 
ATOM     24  C   UNL     1       0.678 -11.900  -0.401  0.00  0.00    +0.025 A 
ATOM     25  C   UNL     1      -0.059 -12.033  -1.567  0.00  0.00    +0.003 A 
ATOM     26  C   UNL     1      -0.269 -10.906  -2.348  0.00  0.00    +0.020 A 
ATOM     27  C   UNL     1       0.261  -9.696  -1.940  0.00  0.00    +0.111 A 
ATOM     28  N   UNL     1       0.953  -9.606  -0.821  0.00  0.00    -0.258 NA
ENDBRANCH  21  23
ENDBRANCH  18  21
ENDBRANCH   3  15
TORSDOF 4
