REMARK  Name = ZINC59057761
REMARK  10 active torsions:
REMARK  status: ('A' for Active; 'I' for Inactive)
REMARK    1  A    between atoms: C_1  and  C_2
REMARK    2  A    between atoms: C_5  and  C_33
REMARK    3  A    between atoms: N_8  and  C_10
REMARK    4  A    between atoms: C_10  and  C_11
REMARK    5  A    between atoms: C_14  and  C_17
REMARK    6  A    between atoms: C_17  and  N_18
REMARK    7  A    between atoms: C_19  and  C_21
REMARK    8  A    between atoms: C_21  and  S_22
REMARK    9  A    between atoms: S_22  and  C_23
REMARK   10  A    between atoms: N_27  and  C_28
REMARK                            x       y       z     vdW  Elec       q    Type
REMARK                         _______ _______ _______ _____ _____    ______ ____
ROOT
ATOM      1  C   UNL     1       0.272   2.030   7.030  0.00  0.00    +0.139 C 
ENDROOT
BRANCH   1   5
ATOM      2  C   UNL     1       2.146   0.211   3.650  0.00  0.00    -0.064 A 
ATOM      3  C   UNL     1       2.582   1.442   4.103  0.00  0.00    +0.002 A 
ATOM      4  C   UNL     1       1.975   2.031   5.197  0.00  0.00    +0.005 A 
ATOM      5  C   UNL     1       0.932   1.388   5.838  0.00  0.00    -0.030 A 
ATOM      6  C   UNL     1       0.496   0.158   5.384  0.00  0.00    +0.005 A 
ATOM      7  C   UNL     1       1.100  -0.429   4.288  0.00  0.00    +0.002 A 
BRANCH   2   8
ATOM      8  C   UNL     1       2.808  -0.431   2.458  0.00  0.00    -0.043 C 
BRANCH   8  14
ATOM      9  C   UNL     1      -0.019   1.526   0.010  0.00  0.00    +0.005 C 
ATOM     10  C   UNL     1       0.002  -0.004   0.002  0.00  0.00    -0.031 C 
ATOM     11  C   UNL     1       0.721  -0.499  -1.257  0.00  0.00    +0.003 C 
ATOM     12  C   UNL     1       2.177  -0.027  -1.220  0.00  0.00    -0.031 C 
ATOM     13  C   UNL     1       2.839  -0.534   0.063  0.00  0.00    -0.075 C 
ATOM     14  N   UNL     1       2.123  -0.005   1.230  0.00  0.00    +0.383 N 
ATOM     15  C   UNL     1       0.744  -0.512   1.240  0.00  0.00    -0.075 C 
ATOM     16  C   UNL     1       2.924  -0.581  -2.434  0.00  0.00    +0.005 C 
ATOM     17  H   UNL     1       2.109   1.003   1.187  0.00  0.00    -0.081 HD
ENDBRANCH   8  14
ENDBRANCH   2   8
ENDBRANCH   1   5
BRANCH   1  18
ATOM     18  N   UNL     1      -0.844   2.866   6.580  0.00  0.00    -0.311 N 
ATOM     19  C   UNL     1      -1.586   3.542   7.480  0.00  0.00    +0.224 C 
ATOM     20  O   UNL     1      -1.330   3.458   8.662  0.00  0.00    -0.275 OA
ATOM     21  H   UNL     1      -1.049   2.933   5.634  0.00  0.00    +0.149 HD
BRANCH  19  22
ATOM     22  C   UNL     1      -2.733   4.401   7.016  0.00  0.00    +0.173 C 
BRANCH  22  23
ATOM     23  S   UNL     1      -3.529   5.173   8.453  0.00  0.00    -0.075 S 
BRANCH  23  24
ATOM     24  C   UNL     1      -4.831   6.132   7.754  0.00  0.00    +0.210 A 
ATOM     25  N   UNL     1      -5.130   6.233   6.477  0.00  0.00    -0.101 NA
ATOM     26  N   UNL     1      -6.136   7.013   6.310  0.00  0.00    -0.022 NA
ATOM     27  N   UNL     1      -6.548   7.462   7.446  0.00  0.00    -0.043 NA
ATOM     28  N   UNL     1      -5.717   6.900   8.431  0.00  0.00    -0.217 N 
BRANCH  28  29
ATOM     29  C   UNL     1      -5.793   7.104   9.880  0.00  0.00    +0.112 C 
ATOM     30  C   UNL     1      -7.189   6.702  10.398  0.00  0.00    +0.027 C 
ATOM     31  C   UNL     1      -7.497   7.740  11.506  0.00  0.00    +0.002 C 
ATOM     32  C   UNL     1      -6.906   9.048  10.921  0.00  0.00    +0.002 C 
ATOM     33  C   UNL     1      -5.613   8.595  10.213  0.00  0.00    +0.027 C 
ENDBRANCH  28  29
ENDBRANCH  23  24
ENDBRANCH  22  23
ENDBRANCH  19  22
ENDBRANCH   1  18
TORSDOF 8
