REMARK  Name = ZINC04643559
REMARK  10 active torsions:
REMARK  status: ('A' for Active; 'I' for Inactive)
REMARK    1  A    between atoms: C_1  and  C_2
REMARK    2  A    between atoms: C_2  and  O_3
REMARK    3  A    between atoms: O_3  and  C_4
REMARK    4  A    between atoms: C_6  and  C_11
REMARK    5  A    between atoms: C_9  and  O_10
REMARK    6  A    between atoms: C_14  and  C_28
REMARK    7  A    between atoms: N_21  and  C_22
REMARK    8  A    between atoms: C_22  and  C_23
REMARK    9  A    between atoms: C_31  and  C_35
REMARK   10  A    between atoms: C_33  and  O_34
REMARK                            x       y       z     vdW  Elec       q    Type
REMARK                         _______ _______ _______ _____ _____    ______ ____
ROOT
ATOM      1  C   UNL     1       0.654  -4.954  -0.018  0.00  0.00    +0.142 C 
ATOM      2  C   UNL     1       0.916  -5.482   1.366  0.00  0.00    +0.035 A 
ATOM      3  C   UNL     1       1.210  -5.205   2.663  0.00  0.00    +0.075 A 
ATOM      4  N   UNL     1       1.274  -6.404   3.314  0.00  0.00    -0.276 N 
ATOM      5  H   UNL     1       1.469  -6.516   4.258  0.00  0.00    +0.189 HD
ATOM      6  N   UNL     1       1.040  -7.363   2.490  0.00  0.00    -0.168 NA
ATOM      7  C   UNL     1       0.811  -6.888   1.282  0.00  0.00    +0.153 A 
ATOM      8  C   UNL     1       0.492  -7.236  -0.115  0.00  0.00    +0.268 C 
ATOM      9  O   UNL     1       0.334  -8.368  -0.529  0.00  0.00    -0.268 OA
ATOM     10  N   UNL     1       0.402  -6.124  -0.867  0.00  0.00    -0.278 N 
ENDROOT
BRANCH   3  11
ATOM     11  C   UNL     1       1.419  -3.866   3.256  0.00  0.00    +0.043 A 
ATOM     12  C   UNL     1       2.670  -3.510   3.758  0.00  0.00    +0.034 A 
ATOM     13  C   UNL     1       2.860  -2.259   4.309  0.00  0.00    +0.045 A 
ATOM     14  C   UNL     1       1.812  -1.355   4.366  0.00  0.00    -0.029 A 
ATOM     15  C   UNL     1       0.568  -1.698   3.870  0.00  0.00    +0.050 A 
ATOM     16  C   UNL     1       0.364  -2.948   3.309  0.00  0.00    +0.126 A 
ATOM     17  C   UNL     1       2.028   0.008   4.970  0.00  0.00    +0.045 C 
ATOM     18 CL   UNL     1       4.418  -1.816   4.935  0.00  0.00    -0.083 Cl
BRANCH  16  19
ATOM     19  O   UNL     1      -0.857  -3.284   2.817  0.00  0.00    -0.506 OA
ATOM     20  H   UNL     1      -1.443  -3.695   3.466  0.00  0.00    +0.292 HD
ENDBRANCH  16  19
ENDBRANCH   3  11
BRANCH   1  23
ATOM     21  C   UNL     1      -1.498  -1.849   0.006  0.00  0.00    +0.162 A 
ATOM     22  C   UNL     1      -0.389  -2.680  -0.003  0.00  0.00    +0.055 A 
ATOM     23  C   UNL     1      -0.553  -4.052  -0.008  0.00  0.00    -0.019 A 
ATOM     24  C   UNL     1      -1.823  -4.600  -0.005  0.00  0.00    +0.009 A 
ATOM     25  C   UNL     1      -2.934  -3.777   0.004  0.00  0.00    +0.049 A 
ATOM     26  C   UNL     1      -2.776  -2.400   0.016  0.00  0.00    +0.158 A 
BRANCH  26  27
ATOM     27  O   UNL     1      -3.868  -1.589   0.030  0.00  0.00    -0.503 OA
ATOM     28  H   UNL     1      -4.192  -1.350  -0.849  0.00  0.00    +0.292 HD
ENDBRANCH  26  27
BRANCH  21  29
ATOM     29  O   UNL     1      -1.339  -0.499   0.012  0.00  0.00    -0.489 OA
BRANCH  29  31
ATOM     30  C   UNL     1      -0.019   1.526   0.010  0.00  0.00    +0.048 C 
ATOM     31  C   UNL     1       0.002  -0.004   0.002  0.00  0.00    +0.226 C 
ENDBRANCH  29  31
ENDBRANCH  21  29
ENDBRANCH   1  23
BRANCH  10  32
ATOM     32  C   UNL     1       0.099  -6.087  -2.300  0.00  0.00    +0.183 C 
BRANCH  32  33
ATOM     33  C   UNL     1       1.382  -6.160  -3.086  0.00  0.00    +0.122 A 
ATOM     34  C   UNL     1       1.980  -7.286  -3.515  0.00  0.00    +0.046 A 
ATOM     35  C   UNL     1       3.149  -6.892  -4.205  0.00  0.00    +0.041 A 
ATOM     36  C   UNL     1       3.196  -5.548  -4.157  0.00  0.00    +0.195 A 
ATOM     37  O   UNL     1       2.120  -5.110  -3.483  0.00  0.00    -0.466 OA
ENDBRANCH  32  33
ENDBRANCH  10  32
TORSDOF 8
