REMARK  Name = ZINC13695870
REMARK  5 active torsions:
REMARK  status: ('A' for Active; 'I' for Inactive)
REMARK    1  A    between atoms: C_1  and  C_2
REMARK    2  A    between atoms: C_3  and  C_11
REMARK    3  A    between atoms: C_7  and  N_8
REMARK    4  A    between atoms: N_13  and  C_14
REMARK    5  A    between atoms: C_23  and  C_25
REMARK                            x       y       z     vdW  Elec       q    Type
REMARK                         _______ _______ _______ _____ _____    ______ ____
ROOT
ATOM      1  C   UNL     1      -1.804   2.177  -0.974  0.00  0.00    +0.249 C 
ATOM      2  O   UNL     1      -2.846   1.899  -1.534  0.00  0.00    -0.270 OA
ATOM      3  N   UNL     1      -1.037   1.199  -0.453  0.00  0.00    -0.281 N 
ATOM      4  H   UNL     1      -0.246   1.424   0.062  0.00  0.00    +0.155 HD
ENDROOT
BRANCH   3   5
ATOM      5  C   UNL     1      -1.379  -0.142  -0.659  0.00  0.00    +0.035 A 
ATOM      6  C   UNL     1      -2.715  -0.522  -0.680  0.00  0.00    +0.024 A 
ATOM      7  C   UNL     1      -3.047  -1.847  -0.884  0.00  0.00    +0.007 A 
ATOM      8  C   UNL     1      -2.056  -2.793  -1.067  0.00  0.00    -0.024 A 
ATOM      9  C   UNL     1      -0.719  -2.427  -1.048  0.00  0.00    +0.041 A 
ATOM     10  C   UNL     1      -0.385  -1.088  -0.847  0.00  0.00    +0.047 A 
ATOM     11  N   UNL     1       0.119  -3.528  -1.250  0.00  0.00    -0.271 N 
ATOM     12  C   UNL     1      -0.681  -4.744  -1.422  0.00  0.00    +0.118 C 
ATOM     13  C   UNL     1      -2.143  -4.284  -1.304  0.00  0.00    +0.056 C 
ATOM     14  C   UNL     1       1.465  -3.478  -1.282  0.00  0.00    +0.223 C 
ATOM     15  O   UNL     1       2.037  -2.420  -1.128  0.00  0.00    -0.275 OA
BRANCH  14  16
ATOM     16  C   UNL     1       2.261  -4.738  -1.508  0.00  0.00    +0.076 C 
ATOM     17  C   UNL     1       3.088  -5.272  -0.337  0.00  0.00    +0.013 C 
ATOM     18  C   UNL     1       3.786  -4.616  -1.531  0.00  0.00    +0.013 C 
ENDBRANCH  14  16
ENDBRANCH   3   5
BRANCH   1  21
ATOM     19  C   UNL     1      -3.300   4.236  -2.351  0.00  0.00    +0.047 C 
ATOM     20  C   UNL     1      -2.091   4.590  -1.525  0.00  0.00    -0.008 A 
ATOM     21  C   UNL     1      -1.376   3.588  -0.865  0.00  0.00    +0.042 A 
ATOM     22  C   UNL     1      -0.254   3.924  -0.107  0.00  0.00    +0.013 A 
ATOM     23  C   UNL     1       0.140   5.242  -0.010  0.00  0.00    +0.003 A 
ATOM     24  C   UNL     1      -0.575   6.231  -0.662  0.00  0.00    +0.033 A 
ATOM     25  C   UNL     1      -1.689   5.905  -1.415  0.00  0.00    +0.130 A 
BRANCH  25  26
ATOM     26  N   UNL     1      -2.448   6.969  -2.110  0.00  0.00    +0.057 N 
ATOM     27  O   UNL     1      -2.025   8.111  -2.121  0.00  0.00    -0.126 OA
ATOM     28  O   UNL     1      -3.497   6.703  -2.670  0.00  0.00    -0.126 OA
ENDBRANCH  25  26
ENDBRANCH   1  21
TORSDOF 4
