REMARK  Name = ZINC62976035
REMARK  2 active torsions:
REMARK  status: ('A' for Active; 'I' for Inactive)
REMARK    1  A    between atoms: C_6  and  N_7
REMARK    2  A    between atoms: C_11  and  N_14
REMARK                            x       y       z     vdW  Elec       q    Type
REMARK                         _______ _______ _______ _____ _____    ______ ____
ROOT
ATOM      1  C   UNL     1       1.260   1.413   1.190  0.00  0.00    +0.043 A 
ATOM      2  C   UNL     1       1.179   2.062  -0.036  0.00  0.00    +0.038 A 
ATOM      3  C   UNL     1       1.118   1.314  -1.195  0.00  0.00    +0.128 A 
ATOM      4  N   UNL     1       1.136  -0.006  -1.154  0.00  0.00    -0.237 NA
ATOM      5  C   UNL     1       1.212  -0.665  -0.010  0.00  0.00    +0.142 A 
ATOM      6  C   UNL     1       1.277   0.025   1.204  0.00  0.00    +0.066 A 
ATOM      7  N   UNL     1       1.228  -2.058  -0.014  0.00  0.00    -0.315 N 
ATOM      8  C   UNL     1       0.050  -2.929   0.103  0.00  0.00    +0.105 C 
ATOM      9  C   UNL     1       0.547  -4.387   0.021  0.00  0.00    +0.005 C 
ATOM     10  C   UNL     1       1.912  -4.249  -0.704  0.00  0.00    -0.049 C 
ATOM     11  C   UNL     1       2.429  -2.903  -0.143  0.00  0.00    +0.091 C 
ATOM     12 BR   UNL     1       1.152   3.951  -0.117  0.00  0.00    -0.049 Br
ENDROOT
BRANCH  10  13
ATOM     13  N   UNL     1       2.813  -5.353  -0.347  0.00  0.00    +0.383 N 
ATOM     14  C   UNL     1       4.105  -5.164  -1.016  0.00  0.00    -0.078 C 
ATOM     15  C   UNL     1       5.074  -6.268  -0.584  0.00  0.00    -0.019 C 
ATOM     16  C   UNL     1       4.491  -7.630  -0.970  0.00  0.00    -0.004 C 
ATOM     17  C   UNL     1       3.110  -7.785  -0.326  0.00  0.00    -0.019 C 
ATOM     18  C   UNL     1       2.215  -6.626  -0.767  0.00  0.00    -0.078 C 
ATOM     19  H   UNL     1       2.952  -5.362   0.653  0.00  0.00    -0.081 HD
ENDBRANCH  10  13
BRANCH   6  20
ATOM     20  N   UNL     1       1.358  -0.673   2.415  0.00  0.00    -0.355 N 
ATOM     21  H   UNL     1       1.315  -0.191   3.256  0.00  0.00    +0.142 HD
ATOM     22  H   UNL     1       1.457  -1.637   2.413  0.00  0.00    +0.142 HD
ENDBRANCH   6  20
TORSDOF 2
