REMARK  Name = ZINC37556366
REMARK  10 active torsions:
REMARK  status: ('A' for Active; 'I' for Inactive)
REMARK    1  A    between atoms: C_1  and  C_2
REMARK    2  A    between atoms: C_2  and  C_4
REMARK    3  A    between atoms: C_2  and  N_7
REMARK    4  A    between atoms: C_4  and  C_5
REMARK    5  A    between atoms: C_4  and  C_6
REMARK    6  A    between atoms: N_7  and  C_8
REMARK    7  A    between atoms: N_7  and  S_9
REMARK    8  A    between atoms: S_9  and  C_12
REMARK    9  A    between atoms: C_13  and  N_20
REMARK   10  A    between atoms: N_20  and  N_21
REMARK                            x       y       z     vdW  Elec       q    Type
REMARK                         _______ _______ _______ _____ _____    ______ ____
ROOT
ATOM      1  C   UNL     1       0.180  -3.126   1.771  0.00  0.00    +0.222 A 
ATOM      2  C   UNL     1      -0.608  -3.830   0.932  0.00  0.00    +0.179 A 
ATOM      3  N   UNL     1      -0.083  -5.059   0.793  0.00  0.00    -0.203 NA
ATOM      4  C   UNL     1       0.999  -5.143   1.514  0.00  0.00    +0.181 A 
ATOM      5  N   UNL     1       1.234  -3.958   2.158  0.00  0.00    -0.276 N 
ATOM      6  C   UNL     1       2.354  -3.893   2.957  0.00  0.00    +0.102 A 
ATOM      7  C   UNL     1       3.163  -4.944   3.084  0.00  0.00    +0.067 A 
ATOM      8  S   UNL     1       2.360  -6.156   2.047  0.00  0.00    -0.058 S 
ENDROOT
BRANCH   1   9
ATOM      9  S   UNL     1      -0.071  -1.458   2.281  0.00  0.00    +0.080 S 
ATOM     10  O   UNL     1       0.610  -1.305   3.519  0.00  0.00    -0.151 OA
ATOM     11  O   UNL     1      -1.460  -1.194   2.138  0.00  0.00    -0.151 OA
BRANCH   9  12
ATOM     12  N   UNL     1       0.711  -0.489   1.189  0.00  0.00    -0.175 NA
ATOM     13  C   UNL     1       2.110  -0.118   1.409  0.00  0.00    +0.132 C 
BRANCH  12  15
ATOM     14  C   UNL     1      -0.019   1.526   0.010  0.00  0.00    +0.026 C 
ATOM     15  C   UNL     1       0.002  -0.004   0.002  0.00  0.00    +0.079 C 
BRANCH  15  16
ATOM     16  C   UNL     1       0.718  -0.497  -1.257  0.00  0.00    +0.001 C 
ATOM     17  C   UNL     1       0.739  -2.027  -1.265  0.00  0.00    +0.009 C 
ATOM     18  C   UNL     1      -0.022   0.009  -2.496  0.00  0.00    +0.009 C 
ENDBRANCH  15  16
ENDBRANCH  12  15
ENDBRANCH   9  12
ENDBRANCH   1   9
BRANCH   2  19
ATOM     19  N   UNL     1      -1.775  -3.359   0.311  0.00  0.00    -0.265 N 
ATOM     20  H   UNL     1      -2.078  -2.451   0.473  0.00  0.00    +0.168 HD
BRANCH  19  21
ATOM     21  N   UNL     1      -2.485  -4.178  -0.520  0.00  0.00    -0.255 NA
ATOM     22  H   UNL     1      -2.748  -5.030  -0.049  0.00  0.00    +0.140 HD
ATOM     23  H   UNL     1      -3.295  -3.704  -0.890  0.00  0.00    +0.140 HD
ENDBRANCH  19  21
ENDBRANCH   2  19
TORSDOF 6
