REMARK  Name = ZINC09520352
REMARK  4 active torsions:
REMARK  status: ('A' for Active; 'I' for Inactive)
REMARK    1  A    between atoms: C_1  and  C_2
REMARK    2  A    between atoms: C_8  and  C_10
REMARK    3  A    between atoms: C_10  and  S_11
REMARK    4  A    between atoms: S_11  and  C_12
REMARK                            x       y       z     vdW  Elec       q    Type
REMARK                         _______ _______ _______ _____ _____    ______ ____
ROOT
ATOM      1  C   UNL     1       3.631   6.215   2.878  0.00  0.00    +0.198 A 
ATOM      2  N   UNL     1       2.985   6.775   1.884  0.00  0.00    -0.120 NA
ATOM      3  N   UNL     1       3.139   8.164   1.992  0.00  0.00    -0.109 NA
ATOM      4  C   UNL     1       3.874   8.409   3.049  0.00  0.00    +0.237 A 
ATOM      5  N   UNL     1       4.196   7.212   3.629  0.00  0.00    -0.260 N 
ATOM      6  C   UNL     1       4.969   7.164   4.775  0.00  0.00    +0.037 A 
ATOM      7  C   UNL     1       5.410   8.301   5.327  0.00  0.00    +0.037 A 
ATOM      8  C   UNL     1       5.072   9.550   4.731  0.00  0.00    +0.256 A 
ATOM      9  O   UNL     1       5.466  10.587   5.233  0.00  0.00    -0.267 OA
ATOM     10  N   UNL     1       4.325   9.591   3.612  0.00  0.00    -0.291 N 
ATOM     11  H   UNL     1       4.096  10.443   3.209  0.00  0.00    +0.172 HD
ATOM     12  C   UNL     1       6.265   8.334   6.567  0.00  0.00    +0.042 C 
ATOM     13  C   UNL     1       6.178   7.007   7.319  0.00  0.00    +0.005 C 
ATOM     14  C   UNL     1       6.445   5.873   6.321  0.00  0.00    +0.006 C 
ATOM     15  C   UNL     1       5.266   5.804   5.352  0.00  0.00    +0.054 C 
ENDROOT
BRANCH   1  16
ATOM     16  S   UNL     1       3.746   4.486   3.196  0.00  0.00    -0.076 S 
BRANCH  16  17
ATOM     17  C   UNL     1       2.786   3.728   1.856  0.00  0.00    +0.173 C 
BRANCH  17  25
ATOM     18  C   UNL     1      -1.433  -0.533  -0.022  0.00  0.00    +0.007 C 
ATOM     19  C   UNL     1       0.002  -0.004   0.002  0.00  0.00    -0.011 C 
ATOM     20  C   UNL     1      -0.019   1.526   0.010  0.00  0.00    +0.022 C 
ATOM     21  C   UNL     1       1.420   2.052  -0.001  0.00  0.00    +0.108 C 
ATOM     22  N   UNL     1       2.151   1.453   1.124  0.00  0.00    -0.301 N 
ATOM     23  C   UNL     1       2.159  -0.010   1.262  0.00  0.00    +0.108 C 
ATOM     24  C   UNL     1       0.712  -0.513   1.258  0.00  0.00    +0.022 C 
ATOM     25  C   UNL     1       2.803   2.229   2.011  0.00  0.00    +0.226 C 
ATOM     26  O   UNL     1       3.404   1.722   2.935  0.00  0.00    -0.275 OA
ENDBRANCH  17  25
ENDBRANCH  16  17
ENDBRANCH   1  16
TORSDOF 3
