REMARK  Name = ZINC44935339
REMARK  3 active torsions:
REMARK  status: ('A' for Active; 'I' for Inactive)
REMARK    1  A    between atoms: C_1  and  C_2
REMARK    2  A    between atoms: N_14  and  C_15
REMARK    3  A    between atoms: C_15  and  C_16
REMARK                            x       y       z     vdW  Elec       q    Type
REMARK                         _______ _______ _______ _____ _____    ______ ____
ROOT
ATOM      1  C   UNL     1       1.763  -2.757   1.179  0.00  0.00    +0.029 C 
ATOM      2  C   UNL     1       1.893  -1.316   0.682  0.00  0.00    +0.084 C 
ATOM      3  C   UNL     1       1.817  -1.273  -0.853  0.00  0.00    +0.059 C 
ATOM      4  C   UNL     1       0.604  -0.421  -1.150  0.00  0.00    -0.024 A 
ATOM      5  C   UNL     1       0.042  -0.032  -2.351  0.00  0.00    +0.005 A 
ATOM      6  C   UNL     1      -1.088   0.763  -2.364  0.00  0.00    +0.000 A 
ATOM      7  C   UNL     1      -1.656   1.171  -1.170  0.00  0.00    +0.002 A 
ATOM      8  C   UNL     1      -1.098   0.786   0.030  0.00  0.00    +0.024 A 
ATOM      9  C   UNL     1       0.043  -0.018   0.051  0.00  0.00    +0.041 A 
ATOM     10  N   UNL     1       0.759  -0.514   1.148  0.00  0.00    -0.252 N 
ATOM     11  C   UNL     1       0.452  -0.287   2.440  0.00  0.00    +0.307 C 
ATOM     12  O   UNL     1      -0.468   0.455   2.726  0.00  0.00    -0.252 OA
ATOM     13  N   UNL     1       1.165  -0.883   3.417  0.00  0.00    -0.292 N 
ATOM     14  H   UNL     1       1.946  -1.412   3.193  0.00  0.00    +0.151 HD
ENDROOT
BRANCH  13  15
ATOM     15  C   UNL     1       0.760  -0.730   4.816  0.00  0.00    +0.182 C 
BRANCH  15  16
ATOM     16  C   UNL     1       1.716  -1.488   5.701  0.00  0.00    +0.151 A 
ATOM     17  N   UNL     1       1.607  -2.737   6.071  0.00  0.00    -0.133 NA
ATOM     18  N   UNL     1       2.605  -3.057   6.818  0.00  0.00    -0.134 NA
ATOM     19  C   UNL     1       3.394  -2.030   6.955  0.00  0.00    +0.133 A 
ATOM     20  N   UNL     1       2.850  -1.006   6.257  0.00  0.00    -0.314 N 
ATOM     21  C   UNL     1       3.381   0.352   6.146  0.00  0.00    +0.125 C 
ATOM     22  C   UNL     1       4.904   0.317   6.301  0.00  0.00    +0.022 C 
ATOM     23  C   UNL     1       5.275   0.456   7.777  0.00  0.00    +0.002 C 
ATOM     24  C   UNL     1       4.700  -0.704   8.584  0.00  0.00    +0.008 C 
ATOM     25  C   UNL     1       4.685  -1.970   7.730  0.00  0.00    +0.076 C 
ENDBRANCH  15  16
ENDBRANCH  13  15
TORSDOF 2
