REMARK  Name = ZINC35642684
REMARK  9 active torsions:
REMARK  status: ('A' for Active; 'I' for Inactive)
REMARK    1  A    between atoms: C_1  and  C_2
REMARK    2  A    between atoms: C_2  and  O_3
REMARK    3  A    between atoms: O_3  and  C_4
REMARK    4  A    between atoms: C_4  and  C_6
REMARK    5  A    between atoms: C_7  and  C_22
REMARK    6  A    between atoms: N_8  and  C_21
REMARK    7  A    between atoms: C_12  and  C_14
REMARK    8  A    between atoms: C_22  and  N_23
REMARK    9  A    between atoms: C_30  and  C_32
REMARK                            x       y       z     vdW  Elec       q    Type
REMARK                         _______ _______ _______ _____ _____    ______ ____
ROOT
ATOM      1  C   UNL     1       2.060  -3.178   1.196  0.00  0.00    +0.076 C 
ATOM      2  C   UNL     1       1.840  -4.148   2.110  0.00  0.00    +0.010 C 
ATOM      3  N   UNL     1       2.312  -4.033   3.386  0.00  0.00    -0.264 N 
ATOM      4  C   UNL     1       3.012  -2.981   3.827  0.00  0.00    +0.307 C 
ATOM      5  O   UNL     1       3.390  -2.968   4.982  0.00  0.00    -0.252 OA
ATOM      6  N   UNL     1       3.311  -1.934   3.032  0.00  0.00    -0.288 N 
ATOM      7  C   UNL     1       2.852  -1.963   1.633  0.00  0.00    +0.143 C 
ATOM      8  C   UNL     1       2.037  -5.123   4.325  0.00  0.00    +0.139 C 
ATOM      9  H   UNL     1       3.818  -1.181   3.373  0.00  0.00    +0.151 HD
ENDROOT
BRANCH   7  10
ATOM     10  C   UNL     1       1.996  -0.744   1.404  0.00  0.00    -0.022 A 
ATOM     11  C   UNL     1       1.015  -0.407   2.318  0.00  0.00    +0.008 A 
ATOM     12  C   UNL     1       0.230   0.711   2.109  0.00  0.00    +0.038 A 
ATOM     13  C   UNL     1       0.427   1.494   0.985  0.00  0.00    +0.123 A 
ATOM     14  C   UNL     1       1.411   1.157   0.071  0.00  0.00    +0.038 A 
ATOM     15  C   UNL     1       2.198   0.041   0.284  0.00  0.00    +0.008 A 
ATOM     16  F   UNL     1      -0.340   2.587   0.780  0.00  0.00    -0.205 F 
ENDBRANCH   7  10
BRANCH   1  17
ATOM     17  C   UNL     1       1.572  -3.296  -0.127  0.00  0.00    +0.339 C 
ATOM     18  O   UNL     1       1.042  -4.329  -0.490  0.00  0.00    -0.245 OA
BRANCH  17  19
ATOM     19  O   UNL     1       1.694  -2.262  -0.986  0.00  0.00    -0.462 OA
BRANCH  19  21
ATOM     20  C   UNL     1       1.408  -1.181  -3.128  0.00  0.00    +0.048 C 
ATOM     21  C   UNL     1       1.180  -2.450  -2.305  0.00  0.00    +0.229 C 
ENDBRANCH  19  21
ENDBRANCH  17  19
ENDBRANCH   1  17
BRANCH   2  22
ATOM     22  C   UNL     1       1.061  -5.376   1.715  0.00  0.00    -0.026 C 
BRANCH  22  23
ATOM     23  N   UNL     1       1.963  -6.343   1.075  0.00  0.00    +0.384 N 
ATOM     24  C   UNL     1       1.154  -7.401   0.473  0.00  0.00    -0.077 C 
ATOM     25  C   UNL     1       1.879  -7.962  -0.729  0.00  0.00    +0.000 C 
ATOM     26  C   UNL     1       2.707  -9.188  -0.301  0.00  0.00    +0.106 C 
ATOM     27  N   UNL     1       3.344  -8.966   1.013  0.00  0.00    -0.297 N 
ATOM     28  C   UNL     1       3.952  -7.703   1.376  0.00  0.00    +0.089 C 
ATOM     29  C   UNL     1       2.899  -6.784   2.037  0.00  0.00    -0.059 C 
ATOM     30  C   UNL     1       3.359  -9.975   1.906  0.00  0.00    +0.282 C 
ATOM     31  O   UNL     1       2.957 -11.078   1.585  0.00  0.00    -0.267 OA
ATOM     32  H   UNL     1       2.463  -5.870   0.337  0.00  0.00    -0.081 HD
BRANCH  30  33
ATOM     33  C   UNL     1       3.860  -9.745   3.265  0.00  0.00    +0.189 A 
ATOM     34  C   UNL     1       4.040 -10.697   4.226  0.00  0.00    +0.054 A 
ATOM     35  C   UNL     1       4.533 -10.036   5.362  0.00  0.00    +0.042 A 
ATOM     36  C   UNL     1       4.631  -8.726   5.048  0.00  0.00    +0.196 A 
ATOM     37  O   UNL     1       4.230  -8.555   3.782  0.00  0.00    -0.458 OA
ENDBRANCH  30  33
ENDBRANCH  22  23
ENDBRANCH   2  22
TORSDOF 7
