REMARK  Name = ZINC66162458
REMARK  12 active torsions:
REMARK  status: ('A' for Active; 'I' for Inactive)
REMARK    1  A    between atoms: C_1  and  C_2
REMARK    2  A    between atoms: C_2  and  C_3
REMARK    3  A    between atoms: C_2  and  N_4
REMARK    4  A    between atoms: C_5  and  C_7
REMARK    5  A    between atoms: C_7  and  C_8
REMARK    6  A    between atoms: C_8  and  N_9
REMARK    7  A    between atoms: N_12  and  C_13
REMARK    8  A    between atoms: C_15  and  C_20
REMARK    9  A    between atoms: C_20  and  O_22
REMARK   10  A    between atoms: O_22  and  C_23
REMARK   11  A    between atoms: C_23  and  C_24
REMARK   12  A    between atoms: C_23  and  C_25
REMARK                            x       y       z     vdW  Elec       q    Type
REMARK                         _______ _______ _______ _____ _____    ______ ____
ROOT
ATOM      1  N   UNL     1      -4.460  -4.170  -1.067  0.00  0.00    -0.299 N 
ATOM      2  C   UNL     1      -4.733  -5.388  -1.573  0.00  0.00    +0.304 C 
ATOM      3  O   UNL     1      -3.838  -6.069  -2.034  0.00  0.00    -0.253 OA
ATOM      4  N   UNL     1      -5.998  -5.852  -1.568  0.00  0.00    -0.268 N 
ATOM      5  H   UNL     1      -5.175  -3.626  -0.699  0.00  0.00    +0.150 HD
ATOM      6  H   UNL     1      -6.702  -5.338  -1.142  0.00  0.00    +0.156 HD
ENDROOT
BRANCH   4   7
ATOM      7  C   UNL     1      -6.298  -7.077  -2.179  0.00  0.00    +0.054 A 
ATOM      8  C   UNL     1      -5.378  -8.112  -2.143  0.00  0.00    +0.039 A 
ATOM      9  C   UNL     1      -5.680  -9.330  -2.752  0.00  0.00    +0.061 A 
ATOM     10  C   UNL     1      -6.909  -9.498  -3.395  0.00  0.00    +0.016 A 
ATOM     11  C   UNL     1      -7.819  -8.462  -3.425  0.00  0.00    +0.022 A 
ATOM     12  C   UNL     1      -7.521  -7.256  -2.816  0.00  0.00    +0.062 A 
ATOM     13 CL   UNL     1      -8.675  -5.959  -2.853  0.00  0.00    -0.082 Cl
BRANCH   9  14
ATOM     14  C   UNL     1      -4.704 -10.438  -2.719  0.00  0.00    +0.339 C 
ATOM     15  O   UNL     1      -3.636 -10.290  -2.159  0.00  0.00    -0.245 OA
BRANCH  14  16
ATOM     16  O   UNL     1      -4.999 -11.613  -3.308  0.00  0.00    -0.458 OA
BRANCH  16  17
ATOM     17  C   UNL     1      -4.008 -12.641  -3.236  0.00  0.00    +0.171 C 
ATOM     18  C   UNL     1      -4.234 -13.480  -1.977  0.00  0.00    +0.052 C 
ATOM     19  C   UNL     1      -4.113 -13.536  -4.472  0.00  0.00    +0.052 C 
ENDBRANCH  16  17
ENDBRANCH  14  16
ENDBRANCH   9  14
ENDBRANCH   4   7
BRANCH   1  20
ATOM     20  C   UNL     1      -3.085  -3.665  -1.072  0.00  0.00    +0.115 C 
BRANCH  20  21
ATOM     21  C   UNL     1      -3.051  -2.270  -0.445  0.00  0.00    +0.114 C 
BRANCH  21  23
ATOM     22  N   UNL     1      -1.363  -0.533   0.056  0.00  0.00    -0.313 N 
ATOM     23  C   UNL     1      -1.636  -1.751  -0.450  0.00  0.00    +0.215 C 
ATOM     24  O   UNL     1      -0.743  -2.431  -0.910  0.00  0.00    -0.276 OA
ATOM     25  H   UNL     1      -2.077   0.011   0.424  0.00  0.00    +0.149 HD
BRANCH  22  27
ATOM     26  C   UNL     1      -0.005   1.501   0.070  0.00  0.00    +0.027 C 
ATOM     27  C   UNL     1       0.013  -0.028   0.051  0.00  0.00    +0.067 C 
ATOM     28  C   UNL     1       0.750  -0.546   1.288  0.00  0.00    +0.027 C 
ENDBRANCH  22  27
ENDBRANCH  21  23
ENDBRANCH  20  21
ENDBRANCH   1  20
TORSDOF 8
