REMARK  Name = ZINC13114072
REMARK  4 active torsions:
REMARK  status: ('A' for Active; 'I' for Inactive)
REMARK    1  A    between atoms: C_6  and  C_7
REMARK    2  A    between atoms: C_7  and  C_9
REMARK    3  A    between atoms: C_9  and  S_10
REMARK    4  A    between atoms: S_10  and  C_11
REMARK                            x       y       z     vdW  Elec       q    Type
REMARK                         _______ _______ _______ _____ _____    ______ ____
ROOT
ATOM      1  S   UNL     1      -2.935  -2.900   0.016  0.00  0.00    -0.078 S 
ENDROOT
BRANCH   1   2
ATOM      2  C   UNL     1      -2.739  -4.651   0.004  0.00  0.00    +0.193 A 
ATOM      3  N   UNL     1      -1.597  -5.300  -0.005  0.00  0.00    -0.121 NA
ATOM      4  N   UNL     1      -1.879  -6.676  -0.010  0.00  0.00    -0.113 NA
ATOM      5  C   UNL     1      -3.171  -6.817  -0.003  0.00  0.00    +0.218 A 
ATOM      6  N   UNL     1      -3.742  -5.569   0.009  0.00  0.00    -0.290 N 
ATOM      7  C   UNL     1      -5.189  -5.337   0.020  0.00  0.00    +0.128 C 
ATOM      8  C   UNL     1      -5.898  -6.609  -0.458  0.00  0.00    +0.040 C 
ATOM      9  C   UNL     1      -5.368  -7.823   0.313  0.00  0.00    +0.106 C 
ATOM     10  N   UNL     1      -3.933  -7.985  -0.002  0.00  0.00    -0.313 N 
ATOM     11  H   UNL     1      -3.542  -8.854  -0.187  0.00  0.00    +0.149 HD
ENDBRANCH   1   2
BRANCH   1  12
ATOM     12  C   UNL     1      -1.235  -2.267   0.002  0.00  0.00    +0.157 C 
BRANCH  12  13
ATOM     13  C   UNL     1      -1.260  -0.760   0.011  0.00  0.00    +0.173 C 
ATOM     14  O   UNL     1      -2.319  -0.171   0.024  0.00  0.00    -0.291 OA
BRANCH  13  20
ATOM     15  C   UNL     1      -0.017   1.395   0.010  0.00  0.00    +0.013 A 
ATOM     16  C   UNL     1       1.169   2.097   0.002  0.00  0.00    +0.020 A 
ATOM     17  C   UNL     1       2.378   1.420  -0.013  0.00  0.00    +0.041 A 
ATOM     18  C   UNL     1       2.405   0.035  -0.021  0.00  0.00    +0.020 A 
ATOM     19  C   UNL     1       1.227  -0.680  -0.013  0.00  0.00    +0.013 A 
ATOM     20  C   UNL     1       0.002  -0.004   0.002  0.00  0.00    +0.018 A 
ATOM     21 CL   UNL     1       3.867   2.313  -0.023  0.00  0.00    -0.084 Cl
ENDBRANCH  13  20
ENDBRANCH  12  13
ENDBRANCH   1  12
TORSDOF 4
