REMARK  Name = ZINC16926044
REMARK  6 active torsions:
REMARK  status: ('A' for Active; 'I' for Inactive)
REMARK    1  A    between atoms: C_3  and  N_8
REMARK    2  A    between atoms: C_5  and  O_7
REMARK    3  A    between atoms: C_11  and  C_16
REMARK    4  A    between atoms: C_16  and  C_17
REMARK    5  A    between atoms: N_19  and  C_20
REMARK    6  A    between atoms: C_25  and  O_26
REMARK                            x       y       z     vdW  Elec       q    Type
REMARK                         _______ _______ _______ _____ _____    ______ ____
ROOT
ATOM      1  N   UNL     1      -1.233  -0.653   0.069  0.00  0.00    -0.200 N 
ATOM      2  C   UNL     1      -2.373   0.010   0.172  0.00  0.00    +0.241 C 
ATOM      3  O   UNL     1      -2.413   1.218   0.266  0.00  0.00    -0.274 OA
ATOM      4  C   UNL     1      -3.630  -0.848   0.160  0.00  0.00    +0.151 C 
ATOM      5  S   UNL     1      -2.872  -2.514   0.007  0.00  0.00    -0.054 S 
ATOM      6  C   UNL     1      -1.163  -1.993  -0.030  0.00  0.00    +0.286 C 
ATOM      7  O   UNL     1      -0.170  -2.688  -0.124  0.00  0.00    -0.262 OA
ENDROOT
BRANCH   1  10
ATOM      8  C   UNL     1       1.431   1.661  -0.978  0.00  0.00    +0.005 A 
ATOM      9  C   UNL     1       0.251   0.941  -0.978  0.00  0.00    +0.024 A 
ATOM     10  C   UNL     1      -0.036   0.077   0.070  0.00  0.00    +0.048 A 
ATOM     11  C   UNL     1       0.862  -0.062   1.118  0.00  0.00    +0.069 A 
ATOM     12  C   UNL     1       2.044   0.661   1.116  0.00  0.00    +0.119 A 
ATOM     13  C   UNL     1       2.327   1.524   0.065  0.00  0.00    +0.045 A 
BRANCH  12  14
ATOM     14  O   UNL     1       2.926   0.527   2.141  0.00  0.00    -0.507 OA
ATOM     15  H   UNL     1       3.583  -0.170   2.006  0.00  0.00    +0.292 HD
ENDBRANCH  12  14
ENDBRANCH   1  10
BRANCH   4  16
ATOM     16  C   UNL     1      -4.517  -0.527  -1.044  0.00  0.00    +0.120 C 
BRANCH  16  17
ATOM     17  C   UNL     1      -5.709  -1.450  -1.050  0.00  0.00    +0.219 C 
ATOM     18  O   UNL     1      -5.836  -2.282  -0.177  0.00  0.00    -0.275 OA
ATOM     19  N   UNL     1      -6.633  -1.350  -2.025  0.00  0.00    -0.283 N 
ATOM     20  H   UNL     1      -6.491  -0.743  -2.768  0.00  0.00    +0.155 HD
BRANCH  19  21
ATOM     21  C   UNL     1      -7.800  -2.124  -1.966  0.00  0.00    +0.077 A 
ATOM     22  C   UNL     1      -8.375  -2.423  -0.740  0.00  0.00    +0.047 A 
ATOM     23  C   UNL     1      -9.529  -3.182  -0.684  0.00  0.00    +0.043 A 
ATOM     24  C   UNL     1     -10.107  -3.655  -1.850  0.00  0.00    +0.023 A 
ATOM     25  C   UNL     1      -9.536  -3.365  -3.075  0.00  0.00    +0.049 A 
ATOM     26  C   UNL     1      -8.382  -2.600  -3.139  0.00  0.00    +0.138 A 
ATOM     27 CL   UNL     1     -10.252  -3.550   0.851  0.00  0.00    -0.083 Cl
BRANCH  26  28
ATOM     28  O   UNL     1      -7.820  -2.314  -4.343  0.00  0.00    -0.505 OA
ATOM     29  H   UNL     1      -7.168  -2.965  -4.637  0.00  0.00    +0.292 HD
ENDBRANCH  26  28
ENDBRANCH  19  21
ENDBRANCH  16  17
ENDBRANCH   4  16
TORSDOF 6
