REMARK  Name = ZINC39167348
REMARK  6 active torsions:
REMARK  status: ('A' for Active; 'I' for Inactive)
REMARK    1  A    between atoms: C_1  and  C_2
REMARK    2  A    between atoms: C_2  and  O_3
REMARK    3  A    between atoms: O_3  and  C_4
REMARK    4  A    between atoms: C_6  and  C_11
REMARK    5  A    between atoms: C_9  and  O_10
REMARK    6  A    between atoms: N_36  and  N_39
REMARK                            x       y       z     vdW  Elec       q    Type
REMARK                         _______ _______ _______ _____ _____    ______ ____
ROOT
ATOM      1  C   UNL     1      -0.229  -4.969   0.477  0.00  0.00    +0.043 C 
ATOM      2  C   UNL     1       0.870  -5.854   0.990  0.00  0.00    +0.015 C 
ATOM      3  C   UNL     1       1.533  -6.678  -0.187  0.00  0.00    +0.007 C 
ATOM      4  C   UNL     1       2.571  -7.381   0.798  0.00  0.00    +0.010 C 
ATOM      5  C   UNL     1       1.467  -8.150   1.654  0.00  0.00    +0.016 C 
ATOM      6  C   UNL     1       0.492  -6.979   1.964  0.00  0.00    +0.060 C 
ATOM      7  S   UNL     1      -1.198  -7.577   1.891  0.00  0.00    -0.107 S 
ATOM      8  C   UNL     1      -2.061  -6.551   0.912  0.00  0.00    +0.082 C 
ATOM      9  N   UNL     1      -3.352  -6.395   0.954  0.00  0.00    -0.168 NA
ATOM     10  C   UNL     1      -4.048  -5.531   0.190  0.00  0.00    +0.296 C 
ATOM     11  O   UNL     1      -5.254  -5.430   0.060  0.00  0.00    -0.261 OA
ATOM     12  S   UNL     1      -2.752  -4.565  -0.587  0.00  0.00    -0.055 S 
ATOM     13  C   UNL     1      -1.383  -5.700  -0.139  0.00  0.00    +0.116 C 
ATOM     14  C   UNL     1       0.982  -8.974   0.461  0.00  0.00    +0.093 C 
ATOM     15  C   UNL     1       0.533  -7.742  -0.466  0.00  0.00    +0.092 C 
ATOM     16  C   UNL     1      -0.136  -8.408  -1.554  0.00  0.00    +0.240 C 
ATOM     17  O   UNL     1      -0.137  -8.100  -2.726  0.00  0.00    -0.274 OA
ATOM     18  N   UNL     1      -0.773  -9.476  -0.960  0.00  0.00    -0.175 N 
ATOM     19  C   UNL     1      -0.308  -9.718   0.387  0.00  0.00    +0.240 C 
ATOM     20  O   UNL     1      -0.850 -10.350   1.268  0.00  0.00    -0.274 OA
ENDROOT
BRANCH   1  23
ATOM     21  C   UNL     1       1.200  -1.878  -1.158  0.00  0.00    +0.162 A 
ATOM     22  C   UNL     1       0.666  -2.736  -0.210  0.00  0.00    +0.053 A 
ATOM     23  C   UNL     1       0.352  -4.037  -0.555  0.00  0.00    -0.039 A 
ATOM     24  C   UNL     1       0.569  -4.486  -1.845  0.00  0.00    +0.008 A 
ATOM     25  C   UNL     1       1.101  -3.635  -2.795  0.00  0.00    +0.049 A 
ATOM     26  C   UNL     1       1.413  -2.328  -2.458  0.00  0.00    +0.158 A 
BRANCH  26  27
ATOM     27  O   UNL     1       1.932  -1.488  -3.393  0.00  0.00    -0.503 OA
ATOM     28  H   UNL     1       2.898  -1.501  -3.442  0.00  0.00    +0.292 HD
ENDBRANCH  26  27
BRANCH  21  29
ATOM     29  O   UNL     1       1.510  -0.597  -0.821  0.00  0.00    -0.489 OA
BRANCH  29  31
ATOM     30  C   UNL     1       1.672   1.258   0.720  0.00  0.00    +0.048 C 
ATOM     31  C   UNL     1       1.265  -0.205   0.531  0.00  0.00    +0.226 C 
ENDBRANCH  29  31
ENDBRANCH  21  29
ENDBRANCH   1  23
BRANCH  18  32
ATOM     32  N   UNL     1      -1.708 -10.247  -1.591  0.00  0.00    -0.245 NA
ATOM     33  H   UNL     1      -2.049 -10.974  -0.980  0.00  0.00    +0.141 HD
ATOM     34  H   UNL     1      -2.467  -9.682  -1.940  0.00  0.00    +0.141 HD
ENDBRANCH  18  32
TORSDOF 5
