REMARK  Name = ZINC58385671
REMARK  7 active torsions:
REMARK  status: ('A' for Active; 'I' for Inactive)
REMARK    1  A    between atoms: C_1  and  C_2
REMARK    2  A    between atoms: C_4  and  C_29
REMARK    3  A    between atoms: C_8  and  C_28
REMARK    4  A    between atoms: C_9  and  C_11
REMARK    5  A    between atoms: N_13  and  C_14
REMARK    6  A    between atoms: C_14  and  C_15
REMARK    7  A    between atoms: C_14  and  C_16
REMARK                            x       y       z     vdW  Elec       q    Type
REMARK                         _______ _______ _______ _____ _____    ______ ____
ROOT
ATOM      1  C   UNL     1       1.001  -0.765   4.900  0.00  0.00    +0.251 C 
ATOM      2  O   UNL     1       1.057   0.394   5.265  0.00  0.00    -0.270 OA
ATOM      3  N   UNL     1       1.311  -1.758   5.757  0.00  0.00    -0.304 N 
ATOM      4  H   UNL     1       1.267  -2.682   5.466  0.00  0.00    +0.150 HD
ENDROOT
BRANCH   1  13
ATOM      5  C   UNL     1      -0.567   1.486   0.119  0.00  0.00    +0.044 C 
ATOM      6  C   UNL     1      -0.500  -0.019   0.102  0.00  0.00    -0.039 A 
ATOM      7  C   UNL     1      -0.807  -0.712  -1.033  0.00  0.00    +0.027 A 
ATOM      8  C   UNL     1      -0.747  -2.098  -1.054  0.00  0.00    +0.040 A 
ATOM      9  N   UNL     1      -0.391  -2.767   0.026  0.00  0.00    -0.245 NA
ATOM     10  C   UNL     1      -0.085  -2.147   1.142  0.00  0.00    +0.110 A 
ATOM     11  C   UNL     1      -0.111  -0.736   1.264  0.00  0.00    +0.014 A 
ATOM     12  C   UNL     1       0.249  -0.229   2.524  0.00  0.00    -0.022 A 
ATOM     13  C   UNL     1       0.596  -1.083   3.523  0.00  0.00    +0.079 A 
ATOM     14  S   UNL     1       0.426  -2.685   2.757  0.00  0.00    -0.064 S 
ATOM     15  C   UNL     1       0.252   1.258   2.767  0.00  0.00    +0.046 C 
ATOM     16  C   UNL     1      -1.091  -2.843  -2.318  0.00  0.00    +0.065 C 
ENDBRANCH   1  13
BRANCH   3  17
ATOM     17  C   UNL     1       1.715  -1.441   7.130  0.00  0.00    +0.100 C 
ATOM     18  C   UNL     1       0.470  -1.274   8.002  0.00  0.00    +0.033 C 
BRANCH  17  19
ATOM     19  C   UNL     1       2.564  -2.560   7.674  0.00  0.00    -0.025 A 
ATOM     20  C   UNL     1       2.236  -3.875   7.390  0.00  0.00    +0.007 A 
ATOM     21  C   UNL     1       3.008  -4.908   7.885  0.00  0.00    +0.028 A 
ATOM     22  C   UNL     1       4.116  -4.627   8.669  0.00  0.00    +0.067 A 
ATOM     23  C   UNL     1       4.447  -3.301   8.956  0.00  0.00    +0.067 A 
ATOM     24  C   UNL     1       3.669  -2.270   8.450  0.00  0.00    +0.033 A 
ATOM     25  N   UNL     1       5.590  -3.334   9.751  0.00  0.00    -0.306 N 
ATOM     26  H   UNL     1       6.056  -2.561  10.109  0.00  0.00    +0.170 HD
ATOM     27  C   UNL     1       5.939  -4.620   9.940  0.00  0.00    +0.325 A 
ATOM     28  O   UNL     1       6.895  -4.999  10.590  0.00  0.00    -0.247 OA
ATOM     29  N   UNL     1       5.069  -5.424   9.299  0.00  0.00    -0.306 N 
ATOM     30  H   UNL     1       5.100  -6.393   9.280  0.00  0.00    +0.170 HD
ENDBRANCH  17  19
ENDBRANCH   3  17
TORSDOF 3
