REMARK  Name = ZINC38620038
REMARK  12 active torsions:
REMARK  status: ('A' for Active; 'I' for Inactive)
REMARK    1  A    between atoms: C_1  and  C_2
REMARK    2  A    between atoms: C_4  and  O_10
REMARK    3  A    between atoms: C_6  and  C_9
REMARK    4  A    between atoms: O_10  and  C_11
REMARK    5  A    between atoms: C_11  and  C_13
REMARK    6  A    between atoms: C_11  and  C_14
REMARK    7  A    between atoms: C_14  and  C_16
REMARK    8  A    between atoms: C_17  and  C_34
REMARK    9  A    between atoms: C_18  and  C_32
REMARK   10  A    between atoms: N_21  and  C_24
REMARK   11  A    between atoms: C_24  and  C_25
REMARK   12  A    between atoms: C_25  and  C_26
REMARK                            x       y       z     vdW  Elec       q    Type
REMARK                         _______ _______ _______ _____ _____    ______ ____
ROOT
ATOM      1  C   UNL     1      -1.665  -5.891  -3.324  0.00  0.00    +0.090 A 
ATOM      2  C   UNL     1      -1.438  -6.693  -2.189  0.00  0.00    -0.012 A 
ATOM      3  C   UNL     1      -1.862  -8.016  -2.207  0.00  0.00    +0.120 A 
ATOM      4  C   UNL     1      -2.528  -8.528  -3.405  0.00  0.00    +0.272 A 
ATOM      5  O   UNL     1      -2.909  -9.685  -3.445  0.00  0.00    -0.266 OA
ATOM      6  N   UNL     1      -2.720  -7.719  -4.464  0.00  0.00    -0.274 N 
ATOM      7  C   UNL     1      -2.312  -6.428  -4.442  0.00  0.00    +0.265 A 
ATOM      8  O   UNL     1      -2.527  -5.649  -5.518  0.00  0.00    -0.267 OA
ATOM      9  C   UNL     1      -0.748  -6.125  -0.975  0.00  0.00    +0.046 C 
ENDROOT
BRANCH   1  10
ATOM     10  C   UNL     1      -1.230  -4.495  -3.331  0.00  0.00    +0.208 C 
ATOM     11  O   UNL     1      -0.620  -4.044  -2.384  0.00  0.00    -0.288 OA
BRANCH  10  12
ATOM     12  C   UNL     1      -1.539  -3.616  -4.516  0.00  0.00    +0.241 C 
ATOM     13  C   UNL     1      -3.022  -3.242  -4.500  0.00  0.00    +0.060 C 
BRANCH  12  14
ATOM     14  O   UNL     1      -0.748  -2.428  -4.447  0.00  0.00    -0.481 OA
BRANCH  14  18
ATOM     15  C   UNL     1      -1.265  -2.191  -9.294  0.00  0.00    +0.045 C 
ATOM     16  C   UNL     1      -0.759  -1.620  -7.994  0.00  0.00    -0.028 A 
ATOM     17  C   UNL     1      -0.989  -2.293  -6.809  0.00  0.00    +0.050 A 
ATOM     18  C   UNL     1      -0.522  -1.768  -5.613  0.00  0.00    +0.122 A 
ATOM     19  C   UNL     1       0.173  -0.568  -5.609  0.00  0.00    +0.050 A 
ATOM     20  C   UNL     1       0.400   0.102  -6.795  0.00  0.00    -0.028 A 
ATOM     21  C   UNL     1      -0.061  -0.426  -7.988  0.00  0.00    +0.047 A 
ATOM     22 CL   UNL     1       0.232   0.414  -9.479  0.00  0.00    -0.083 Cl
ATOM     23  C   UNL     1       1.156   1.406  -6.791  0.00  0.00    +0.045 C 
ENDBRANCH  14  18
ENDBRANCH  12  14
ENDBRANCH  10  12
ENDBRANCH   1  10
BRANCH   3  24
ATOM     24  C   UNL     1      -1.650  -8.865  -1.073  0.00  0.00    +0.105 C 
ATOM     25  N   UNL     1      -1.482  -9.537  -0.173  0.00  0.00    -0.191 NA
ENDBRANCH   3  24
BRANCH   6  26
ATOM     26  C   UNL     1      -3.388  -8.242  -5.658  0.00  0.00    +0.133 C 
BRANCH  26  27
ATOM     27  C   UNL     1      -4.897  -8.023  -5.535  0.00  0.00    +0.057 C 
BRANCH  27  28
ATOM     28  C   UNL     1      -5.585  -8.562  -6.764  0.00  0.00    -0.046 A 
ATOM     29  C   UNL     1      -5.783  -7.743  -7.860  0.00  0.00    +0.004 A 
ATOM     30  C   UNL     1      -6.413  -8.236  -8.986  0.00  0.00    +0.000 A 
ATOM     31  C   UNL     1      -6.845  -9.549  -9.018  0.00  0.00    +0.000 A 
ATOM     32  C   UNL     1      -6.646 -10.368  -7.922  0.00  0.00    +0.000 A 
ATOM     33  C   UNL     1      -6.011  -9.876  -6.797  0.00  0.00    +0.004 A 
ENDBRANCH  27  28
ENDBRANCH  26  27
ENDBRANCH   6  26
TORSDOF 8
