REMARK  Name = ZINC37756576
REMARK  3 active torsions:
REMARK  status: ('A' for Active; 'I' for Inactive)
REMARK    1  A    between atoms: C_4  and  N_17
REMARK    2  A    between atoms: C_6  and  C_7
REMARK    3  A    between atoms: C_9  and  C_12
REMARK                            x       y       z     vdW  Elec       q    Type
REMARK                         _______ _______ _______ _____ _____    ______ ____
ROOT
ATOM      1  C   UNL     1      -0.017   1.392   0.010  0.00  0.00    +0.015 A 
ATOM      2  C   UNL     1       1.169   2.098   0.002  0.00  0.00    +0.022 A 
ATOM      3  C   UNL     1       2.378   1.428  -0.013  0.00  0.00    +0.062 A 
ATOM      4  C   UNL     1       2.408   0.036  -0.021  0.00  0.00    +0.044 A 
ATOM      5  C   UNL     1       1.222  -0.681  -0.013  0.00  0.00    +0.037 A 
ATOM      6  C   UNL     1       0.002  -0.004   0.002  0.00  0.00    +0.041 A 
ATOM      7 CL   UNL     1       3.865   2.325  -0.023  0.00  0.00    -0.082 Cl
ENDROOT
BRANCH   6   8
ATOM      8  C   UNL     1      -1.266  -0.763   0.011  0.00  0.00    +0.259 A 
ATOM      9  N   UNL     1      -2.475  -0.246   0.020  0.00  0.00    -0.192 NA
ATOM     10  C   UNL     1      -3.387  -1.221   0.026  0.00  0.00    +0.175 A 
ATOM     11  N   UNL     1      -2.780  -2.374   0.020  0.00  0.00    -0.061 NA
ATOM     12  O   UNL     1      -1.386  -2.102   0.004  0.00  0.00    -0.333 OA
BRANCH  10  13
ATOM     13  C   UNL     1      -4.880  -1.020   0.037  0.00  0.00    +0.060 C 
ATOM     14  C   UNL     1      -5.500  -1.730   1.259  0.00  0.00    +0.011 C 
ATOM     15  C   UNL     1      -6.846  -2.288   0.732  0.00  0.00    +0.001 C 
ATOM     16  C   UNL     1      -6.488  -2.744  -0.704  0.00  0.00    +0.001 C 
ATOM     17  C   UNL     1      -5.509  -1.665  -1.211  0.00  0.00    +0.011 C 
ENDBRANCH  10  13
ENDBRANCH   6   8
BRANCH   4  18
ATOM     18  N   UNL     1       3.632  -0.637  -0.037  0.00  0.00    -0.357 N 
ATOM     19  H   UNL     1       4.462  -0.135  -0.042  0.00  0.00    +0.142 HD
ATOM     20  H   UNL     1       3.652  -1.607  -0.042  0.00  0.00    +0.142 HD
ENDBRANCH   4  18
TORSDOF 3
