REMARK  Name = ZINC33171912
REMARK  8 active torsions:
REMARK  status: ('A' for Active; 'I' for Inactive)
REMARK    1  A    between atoms: C_1  and  C_2
REMARK    2  A    between atoms: C_5  and  C_8
REMARK    3  A    between atoms: C_8  and  N_9
REMARK    4  A    between atoms: C_10  and  C_12
REMARK    5  A    between atoms: C_13  and  N_29
REMARK    6  A    between atoms: C_14  and  C_17
REMARK    7  A    between atoms: N_19  and  C_20
REMARK    8  A    between atoms: C_26  and  C_28
REMARK                            x       y       z     vdW  Elec       q    Type
REMARK                         _______ _______ _______ _____ _____    ______ ____
ROOT
ATOM      1  C   UNL     1      -2.454   0.869   0.018  0.00  0.00    +0.156 A 
ATOM      2  C   UNL     1      -3.676   1.543   0.028  0.00  0.00    +0.076 A 
ATOM      3  C   UNL     1      -4.766   0.672   0.028  0.00  0.00    +0.115 A 
ATOM      4  S   UNL     1      -3.950  -0.911   0.016  0.00  0.00    +0.019 S 
ATOM      5  N   UNL     1      -2.444  -0.445   0.006  0.00  0.00    -0.203 NA
ENDROOT
BRANCH   1   7
ATOM      6  N   UNL     1      -0.011   0.966   0.007  0.00  0.00    -0.306 N 
ATOM      7  C   UNL     1      -1.187   1.624   0.017  0.00  0.00    +0.265 C 
ATOM      8  O   UNL     1      -1.204   2.840   0.023  0.00  0.00    -0.268 OA
ATOM      9  H   UNL     1       0.004  -0.134   0.006  0.00  0.00    +0.149 HD
BRANCH   6  10
ATOM     10  C   UNL     1       1.248   1.716  -0.001  0.00  0.00    +0.140 C 
BRANCH  10  15
ATOM     11  C   UNL     1       5.690  -1.980  -0.063  0.00  0.00    +0.044 C 
ATOM     12  C   UNL     1       4.532  -1.016  -0.047  0.00  0.00    -0.050 A 
ATOM     13  C   UNL     1       3.989  -0.568  -1.236  0.00  0.00    +0.003 A 
ATOM     14  C   UNL     1       2.926   0.316  -1.221  0.00  0.00    +0.005 A 
ATOM     15  C   UNL     1       2.406   0.752  -0.017  0.00  0.00    -0.030 A 
ATOM     16  C   UNL     1       2.953   0.308   1.173  0.00  0.00    +0.005 A 
ATOM     17  C   UNL     1       4.012  -0.579   1.158  0.00  0.00    +0.003 A 
ENDBRANCH  10  15
ENDBRANCH   6  10
ENDBRANCH   1   7
BRANCH   3  18
ATOM     18  C   UNL     1      -6.198   0.977   0.037  0.00  0.00    +0.254 C 
ATOM     19  O   UNL     1      -6.574   2.135   0.045  0.00  0.00    -0.270 OA
ATOM     20  N   UNL     1      -7.101  -0.024   0.036  0.00  0.00    -0.308 N 
ATOM     21  H   UNL     1      -6.762  -1.070   0.028  0.00  0.00    +0.149 HD
BRANCH  20  22
ATOM     22  C   UNL     1      -8.534   0.282   0.044  0.00  0.00    +0.076 C 
ATOM     23  C   UNL     1      -9.013   0.519  -1.389  0.00  0.00    +0.022 C 
ATOM     24  C   UNL     1      -8.765  -0.738  -2.225  0.00  0.00    +0.002 C 
ATOM     25  C   UNL     1      -9.534  -1.914  -1.618  0.00  0.00    +0.000 C 
ATOM     26  C   UNL     1      -9.054  -2.151  -0.184  0.00  0.00    +0.005 C 
ATOM     27  C   UNL     1      -9.303  -0.893   0.651  0.00  0.00    +0.006 C 
ATOM     28  C   UNL     1      -8.823  -1.130   2.085  0.00  0.00    +0.009 C 
ENDBRANCH  20  22
ENDBRANCH   3  18
BRANCH   2  29
ATOM     29  N   UNL     1      -3.793   2.926   0.035  0.00  0.00    -0.355 N 
ATOM     30  H   UNL     1      -4.789   3.393   0.043  0.00  0.00    +0.142 HD
ATOM     31  H   UNL     1      -2.891   3.555   0.034  0.00  0.00    +0.142 HD
ENDBRANCH   2  29
TORSDOF 6
