REMARK  Name = ZINC63373913
REMARK  4 active torsions:
REMARK  status: ('A' for Active; 'I' for Inactive)
REMARK    1  A    between atoms: C_4  and  N_7
REMARK    2  A    between atoms: C_8  and  O_38
REMARK    3  A    between atoms: C_10  and  C_23
REMARK    4  A    between atoms: N_14  and  C_17
REMARK                            x       y       z     vdW  Elec       q    Type
REMARK                         _______ _______ _______ _____ _____    ______ ____
ROOT
ATOM      1  N   UNL     1       3.683  -0.670  -0.117  0.00  0.00    -0.228 N 
ATOM      2  C   UNL     1       3.604  -2.112   0.128  0.00  0.00    +0.224 C 
ATOM      3  C   UNL     1       4.758  -2.816  -0.590  0.00  0.00    +0.142 C 
ATOM      4  C   UNL     1       6.040  -2.073  -0.314  0.00  0.00    +0.236 C 
ATOM      5  O   UNL     1       7.084  -2.681  -0.212  0.00  0.00    -0.274 OA
ATOM      6  N   UNL     1       6.026  -0.734  -0.181  0.00  0.00    -0.193 N 
ATOM      7  C   UNL     1       4.871  -0.050  -0.207  0.00  0.00    +0.322 C 
ATOM      8  O   UNL     1       4.901   1.161  -0.311  0.00  0.00    -0.251 OA
ENDROOT
BRANCH   3   9
ATOM      9  C   UNL     1       4.489  -2.833  -2.096  0.00  0.00    +0.096 C 
ATOM     10  C   UNL     1       5.584  -3.632  -2.806  0.00  0.00    +0.124 C 
ATOM     11  C   UNL     1       5.339  -3.456  -4.300  0.00  0.00    -0.036 C 
ATOM     12  C   UNL     1       5.264  -4.675  -4.815  0.00  0.00    -0.001 A 
ATOM     13  C   UNL     1       5.126  -5.149  -6.202  0.00  0.00    +0.010 A 
ATOM     14  C   UNL     1       5.065  -6.496  -6.372  0.00  0.00    +0.001 A 
ATOM     15  C   UNL     1       5.125  -7.409  -5.314  0.00  0.00    +0.002 A 
ATOM     16  C   UNL     1       5.257  -7.062  -4.009  0.00  0.00    +0.026 A 
ATOM     17  C   UNL     1       5.338  -5.673  -3.703  0.00  0.00    +0.043 A 
ATOM     18  N   UNL     1       5.494  -5.067  -2.542  0.00  0.00    -0.376 N 
ATOM     19  C   UNL     1       5.139  -2.091  -4.914  0.00  0.00    +0.048 C 
ATOM     20  C   UNL     1       4.111  -1.367  -4.026  0.00  0.00    +0.085 C 
ATOM     21  N   UNL     1       4.507  -1.457  -2.618  0.00  0.00    -0.310 NA
ATOM     22  H   UNL     1       3.946  -0.845  -2.044  0.00  0.00    +0.122 HD
ATOM     23  H   UNL     1       5.537  -5.487  -1.668  0.00  0.00    +0.160 HD
ENDBRANCH   3   9
BRANCH   1  27
ATOM     24  C   UNL     1       0.176   1.536  -0.553  0.00  0.00    +0.000 A 
ATOM     25  C   UNL     1       0.486   0.967   0.668  0.00  0.00    +0.002 A 
ATOM     26  C   UNL     1       1.647   0.235   0.816  0.00  0.00    +0.023 A 
ATOM     27  C   UNL     1       2.505   0.070  -0.263  0.00  0.00    +0.040 A 
ATOM     28  C   UNL     1       2.191   0.643  -1.489  0.00  0.00    +0.023 A 
ATOM     29  C   UNL     1       1.028   1.374  -1.630  0.00  0.00    +0.002 A 
ENDBRANCH   1  27
BRANCH   6  30
ATOM     30  C   UNL     1       7.235  -0.043  -0.018  0.00  0.00    +0.045 A 
ATOM     31  C   UNL     1       7.517   0.592   1.185  0.00  0.00    +0.024 A 
ATOM     32  C   UNL     1       8.709   1.271   1.343  0.00  0.00    +0.002 A 
ATOM     33  C   UNL     1       9.621   1.320   0.304  0.00  0.00    +0.000 A 
ATOM     34  C   UNL     1       9.343   0.689  -0.894  0.00  0.00    +0.002 A 
ATOM     35  C   UNL     1       8.156   0.003  -1.056  0.00  0.00    +0.024 A 
ENDBRANCH   6  30
BRANCH   2  36
ATOM     36  O   UNL     1       2.360  -2.611  -0.367  0.00  0.00    -0.373 OA
ATOM     37  H   UNL     1       1.583  -2.218   0.053  0.00  0.00    +0.212 HD
ENDBRANCH   2  36
TORSDOF 4
