REMARK  Name = ZINC15956946
REMARK  8 active torsions:
REMARK  status: ('A' for Active; 'I' for Inactive)
REMARK    1  A    between atoms: C_1  and  C_2
REMARK    2  A    between atoms: C_2  and  O_3
REMARK    3  A    between atoms: O_3  and  C_4
REMARK    4  A    between atoms: C_4  and  C_6
REMARK    5  A    between atoms: C_9  and  N_12
REMARK    6  A    between atoms: C_17  and  C_36
REMARK    7  A    between atoms: C_27  and  C_35
REMARK    8  A    between atoms: C_36  and  C_37
REMARK                            x       y       z     vdW  Elec       q    Type
REMARK                         _______ _______ _______ _____ _____    ______ ____
ROOT
ATOM      1  N   UNL     1       3.481  -3.958   5.784  0.00  0.00    -0.210 N 
ATOM      2  C   UNL     1       4.104  -3.195   6.689  0.00  0.00    +0.232 C 
ATOM      3  O   UNL     1       4.167  -1.984   6.660  0.00  0.00    -0.274 OA
ATOM      4  C   UNL     1       4.718  -4.076   7.753  0.00  0.00    +0.108 C 
ATOM      5  C   UNL     1       6.256  -4.011   7.637  0.00  0.00    +0.076 C 
ATOM      6  N   UNL     1       6.705  -5.427   7.723  0.00  0.00    -0.295 NA
ATOM      7  C   UNL     1       5.686  -6.176   6.963  0.00  0.00    +0.136 C 
ATOM      8  C   UNL     1       4.329  -5.510   7.299  0.00  0.00    +0.123 C 
ATOM      9  C   UNL     1       3.541  -5.272   6.030  0.00  0.00    +0.233 C 
ATOM     10  O   UNL     1       3.044  -6.137   5.342  0.00  0.00    -0.274 OA
ATOM     11  C   UNL     1       5.686  -7.632   7.332  0.00  0.00    +0.005 A 
ATOM     12  C   UNL     1       5.491  -8.310   8.515  0.00  0.00    +0.011 A 
ATOM     13  C   UNL     1       5.555  -9.692   8.540  0.00  0.00    -0.049 A 
ATOM     14  C   UNL     1       5.815 -10.390   7.375  0.00  0.00    +0.025 A 
ATOM     15  C   UNL     1       6.011  -9.715   6.187  0.00  0.00    +0.063 A 
ATOM     16  C   UNL     1       5.948  -8.323   6.153  0.00  0.00    +0.057 A 
ATOM     17  N   UNL     1       6.109  -7.427   5.093  0.00  0.00    -0.282 N 
ATOM     18  C   UNL     1       5.971  -6.146   5.487  0.00  0.00    +0.243 C 
ATOM     19  O   UNL     1       6.059  -5.160   4.785  0.00  0.00    -0.273 OA
ATOM     20 CL   UNL     1       6.338 -10.602   4.731  0.00  0.00    -0.082 Cl
ATOM     21  C   UNL     1       5.342 -10.434   9.834  0.00  0.00    +0.044 C 
ATOM     22  H   UNL     1       7.619  -5.542   7.312  0.00  0.00    +0.124 HD
ATOM     23  H   UNL     1       6.298  -7.696   4.181  0.00  0.00    +0.155 HD
ENDROOT
BRANCH   1  27
ATOM     24  C   UNL     1       1.501  -2.373   2.476  0.00  0.00    +0.059 A 
ATOM     25  C   UNL     1       0.775  -3.003   3.492  0.00  0.00    +0.017 A 
ATOM     26  C   UNL     1       1.433  -3.525   4.582  0.00  0.00    +0.025 A 
ATOM     27  C   UNL     1       2.817  -3.427   4.675  0.00  0.00    +0.044 A 
ATOM     28  C   UNL     1       3.542  -2.801   3.667  0.00  0.00    +0.025 A 
ATOM     29  C   UNL     1       2.892  -2.281   2.570  0.00  0.00    +0.017 A 
BRANCH  24  30
ATOM     30  C   UNL     1       0.800  -1.812   1.306  0.00  0.00    +0.339 C 
ATOM     31  O   UNL     1       1.432  -1.269   0.422  0.00  0.00    -0.245 OA
BRANCH  30  32
ATOM     32  O   UNL     1      -0.542  -1.901   1.217  0.00  0.00    -0.461 OA
BRANCH  32  34
ATOM     33  C   UNL     1      -2.670  -1.532   0.133  0.00  0.00    +0.048 C 
ATOM     34  C   UNL     1      -1.155  -1.336   0.057  0.00  0.00    +0.229 C 
ENDBRANCH  32  34
ENDBRANCH  30  32
ENDBRANCH  24  30
ENDBRANCH   1  27
BRANCH   5  35
ATOM     35  C   UNL     1       6.844  -3.194   8.789  0.00  0.00    +0.115 C 
BRANCH  35  36
ATOM     36  C   UNL     1       8.330  -3.041   8.590  0.00  0.00    +0.212 C 
ATOM     37  O   UNL     1       8.866  -3.536   7.622  0.00  0.00    -0.276 OA
ATOM     38  N   UNL     1       9.062  -2.352   9.488  0.00  0.00    -0.329 N 
ATOM     39  H   UNL     1       8.633  -1.956  10.262  0.00  0.00    +0.145 HD
ATOM     40  H   UNL     1      10.019  -2.253   9.359  0.00  0.00    +0.145 HD
ENDBRANCH  35  36
ENDBRANCH   5  35
TORSDOF 6
