REMARK  Name = ZINC11061775
REMARK  6 active torsions:
REMARK  status: ('A' for Active; 'I' for Inactive)
REMARK    1  A    between atoms: C_1  and  C_2
REMARK    2  A    between atoms: N_10  and  N_14
REMARK    3  A    between atoms: C_15  and  C_17
REMARK    4  A    between atoms: C_17  and  N_18
REMARK    5  A    between atoms: C_21  and  C_25
REMARK    6  A    between atoms: C_21  and  C_26
REMARK                            x       y       z     vdW  Elec       q    Type
REMARK                         _______ _______ _______ _____ _____    ______ ____
ROOT
ATOM      1  N   UNL     1       0.665  -1.247   1.801  0.00  0.00    -0.215 N 
ATOM      2  C   UNL     1       1.188  -0.526   0.789  0.00  0.00    +0.251 C 
ATOM      3  O   UNL     1       2.362  -0.335   0.556  0.00  0.00    -0.272 OA
ATOM      4  C   UNL     1       0.002  -0.004   0.002  0.00  0.00    +0.135 C 
ATOM      5  N   UNL     1      -1.160  -0.542   0.730  0.00  0.00    -0.281 N 
ATOM      6  C   UNL     1      -0.672  -1.253   1.762  0.00  0.00    +0.310 C 
ATOM      7  O   UNL     1      -1.368  -1.836   2.571  0.00  0.00    -0.252 OA
ATOM      8  C   UNL     1       0.030  -0.532  -1.433  0.00  0.00    +0.047 C 
ATOM      9  H   UNL     1      -2.095  -0.410   0.507  0.00  0.00    +0.152 HD
ENDROOT
BRANCH   4  10
ATOM     10  C   UNL     1      -0.018   1.503   0.010  0.00  0.00    -0.012 A 
ATOM     11  C   UNL     1       1.171   2.208   0.003  0.00  0.00    +0.010 A 
ATOM     12  C   UNL     1       1.160   3.591   0.010  0.00  0.00    +0.050 A 
ATOM     13  C   UNL     1      -0.048   4.268   0.024  0.00  0.00    +0.162 A 
ATOM     14  C   UNL     1      -1.241   3.560   0.032  0.00  0.00    +0.162 A 
ATOM     15  C   UNL     1      -1.227   2.176   0.020  0.00  0.00    +0.055 A 
ATOM     16  O   UNL     1      -2.426   4.237   0.046  0.00  0.00    -0.488 OA
ATOM     17  C   UNL     1      -2.722   4.954   1.246  0.00  0.00    +0.232 C 
ATOM     18  C   UNL     1      -2.067   6.327   1.229  0.00  0.00    +0.082 C 
ATOM     19  C   UNL     1      -0.548   6.244   1.231  0.00  0.00    +0.232 C 
ATOM     20  O   UNL     1      -0.073   5.633   0.029  0.00  0.00    -0.488 OA
ENDBRANCH   4  10
BRANCH   1  21
ATOM     21  C   UNL     1       1.463  -1.939   2.816  0.00  0.00    +0.215 C 
BRANCH  21  23
ATOM     22  N   UNL     1       2.491  -4.167   3.126  0.00  0.00    -0.222 N 
ATOM     23  C   UNL     1       1.765  -3.339   2.349  0.00  0.00    +0.248 C 
ATOM     24  O   UNL     1       1.354  -3.722   1.274  0.00  0.00    -0.273 OA
ATOM     25  H   UNL     1       2.820  -3.861   3.986  0.00  0.00    +0.174 HD
BRANCH  22  35
ATOM     26  C   UNL     1       3.699 -11.723   1.034  0.00  0.00    +0.007 C 
ATOM     27  C   UNL     1       3.056 -10.574   1.813  0.00  0.00    -0.014 C 
ATOM     28  C   UNL     1       2.370  -9.617   0.836  0.00  0.00    +0.006 C 
ATOM     29  C   UNL     1       1.718  -8.473   1.618  0.00  0.00    +0.035 C 
ATOM     30  C   UNL     1       2.782  -7.731   2.419  0.00  0.00    +0.114 C 
ATOM     31  C   UNL     1       3.490  -8.678   3.382  0.00  0.00    +0.035 C 
ATOM     32  C   UNL     1       4.135  -9.821   2.594  0.00  0.00    +0.006 C 
ATOM     33  C   UNL     1       2.170  -6.576   3.176  0.00  0.00    +0.263 C 
ATOM     34  O   UNL     1       1.316  -6.631   4.034  0.00  0.00    -0.271 OA
ATOM     35  N   UNL     1       2.772  -5.469   2.692  0.00  0.00    -0.137 N 
ATOM     36  C   UNL     1       3.674  -5.770   1.751  0.00  0.00    +0.326 C 
ATOM     37  O   UNL     1       4.347  -4.942   1.170  0.00  0.00    -0.251 OA
ATOM     38  N   UNL     1       3.752  -7.095   1.519  0.00  0.00    -0.284 N 
ATOM     39  H   UNL     1       4.333  -7.540   0.882  0.00  0.00    +0.151 HD
ENDBRANCH  22  35
ENDBRANCH  21  23
ENDBRANCH   1  21
TORSDOF 4
