REMARK  Name = ZINC58937347
REMARK  11 active torsions:
REMARK  status: ('A' for Active; 'I' for Inactive)
REMARK    1  A    between atoms: C_1  and  C_2
REMARK    2  A    between atoms: C_2  and  C_3
REMARK    3  A    between atoms: C_3  and  C_4
REMARK    4  A    between atoms: C_3  and  C_5
REMARK    5  A    between atoms: C_5  and  C_6
REMARK    6  A    between atoms: C_5  and  N_24
REMARK    7  A    between atoms: N_8  and  C_9
REMARK    8  A    between atoms: C_12  and  O_15
REMARK    9  A    between atoms: O_15  and  C_16
REMARK   10  A    between atoms: C_19  and  C_23
REMARK   11  A    between atoms: C_20  and  C_22
REMARK                            x       y       z     vdW  Elec       q    Type
REMARK                         _______ _______ _______ _____ _____    ______ ____
ROOT
ATOM      1  C   UNL     1      -0.691  -2.546  -3.691  0.00  0.00    +0.238 C 
ATOM      2  O   UNL     1      -1.410  -2.978  -4.567  0.00  0.00    -0.273 OA
ATOM      3  N   UNL     1       0.648  -2.582  -3.838  0.00  0.00    -0.283 N 
ATOM      4  H   UNL     1       1.221  -2.173  -3.171  0.00  0.00    +0.155 HD
ENDROOT
BRANCH   3   5
ATOM      5  C   UNL     1       1.213  -3.212  -4.955  0.00  0.00    +0.052 A 
ATOM      6  C   UNL     1       0.574  -3.159  -6.193  0.00  0.00    +0.030 A 
ATOM      7  C   UNL     1       1.169  -3.794  -7.269  0.00  0.00    +0.069 A 
ATOM      8  C   UNL     1       2.374  -4.459  -7.081  0.00  0.00    +0.221 A 
ATOM      9  N   UNL     1       2.952  -4.489  -5.892  0.00  0.00    -0.219 NA
ATOM     10  C   UNL     1       2.417  -3.890  -4.845  0.00  0.00    +0.138 A 
BRANCH   8  11
ATOM     11  O   UNL     1       2.965  -5.085  -8.130  0.00  0.00    -0.438 OA
BRANCH  11  12
ATOM     12  C   UNL     1       4.085  -5.816  -7.888  0.00  0.00    +0.131 A 
ATOM     13  C   UNL     1       3.986  -7.062  -7.285  0.00  0.00    +0.046 A 
ATOM     14  C   UNL     1       5.126  -7.802  -7.041  0.00  0.00    +0.007 A 
ATOM     15  C   UNL     1       6.366  -7.303  -7.397  0.00  0.00    -0.047 A 
ATOM     16  C   UNL     1       6.467  -6.062  -7.998  0.00  0.00    -0.044 A 
ATOM     17  C   UNL     1       5.329  -5.319  -8.250  0.00  0.00    +0.050 A 
ATOM     18  C   UNL     1       7.819  -5.521  -8.385  0.00  0.00    +0.044 C 
ATOM     19  C   UNL     1       7.608  -8.113  -7.130  0.00  0.00    +0.044 C 
ENDBRANCH  11  12
ENDBRANCH   8  11
ENDBRANCH   3   5
BRANCH   1  20
ATOM     20  C   UNL     1      -1.296  -1.967  -2.438  0.00  0.00    +0.163 C 
BRANCH  20  21
ATOM     21  N   UNL     1      -2.691  -1.599  -2.693  0.00  0.00    -0.288 N 
ATOM     22  C   UNL     1      -2.980  -0.431  -3.300  0.00  0.00    +0.298 C 
ATOM     23  O   UNL     1      -2.082   0.275  -3.718  0.00  0.00    -0.253 OA
ATOM     24  N   UNL     1      -4.263  -0.046  -3.445  0.00  0.00    -0.313 N 
ATOM     25  H   UNL     1      -3.406  -2.196  -2.425  0.00  0.00    +0.151 HD
ATOM     26  H   UNL     1      -4.979  -0.610  -3.112  0.00  0.00    +0.146 HD
ATOM     27  H   UNL     1      -4.471   0.794  -3.882  0.00  0.00    +0.146 HD
ENDBRANCH  20  21
BRANCH  20  28
ATOM     28  C   UNL     1      -1.239  -3.007  -1.317  0.00  0.00    +0.015 C 
ATOM     29  C   UNL     1      -2.053  -4.238  -1.722  0.00  0.00    +0.010 C 
BRANCH  28  31
ATOM     30  C   UNL     1      -1.654  -3.402   1.115  0.00  0.00    +0.004 C 
ATOM     31  C   UNL     1      -1.824  -2.408  -0.036  0.00  0.00    +0.002 C 
ENDBRANCH  28  31
ENDBRANCH  20  28
ENDBRANCH   1  20
TORSDOF 7
