REMARK  Name = ZINC39465045
REMARK  4 active torsions:
REMARK  status: ('A' for Active; 'I' for Inactive)
REMARK    1  A    between atoms: C_1  and  S_2
REMARK    2  A    between atoms: S_2  and  P_3
REMARK    3  A    between atoms: C_12  and  C_19
REMARK    4  A    between atoms: C_24  and  O_25
REMARK                            x       y       z     vdW  Elec       q    Type
REMARK                         _______ _______ _______ _____ _____    ______ ____
ROOT
ATOM      1  P   UNL     1      -2.048  -0.545   0.019  0.00  0.00    +0.341 P 
ATOM      2  O   UNL     1      -2.697  -0.048   1.252  0.00  0.00    -0.259 OA
ATOM      3  N   UNL     1      -2.206  -2.187  -0.092  0.00  0.00    -0.170 NA
ATOM      4  N   UNL     1      -2.071  -2.735  -1.348  0.00  0.00    -0.225 NA
ATOM      5  C   UNL     1      -2.257  -4.193  -1.278  0.00  0.00    +0.108 C 
ATOM      6  C   UNL     1      -1.780  -4.813  -2.591  0.00  0.00    +0.052 C 
ATOM      7  C   UNL     1      -2.437  -4.111  -3.752  0.00  0.00    -0.040 A 
ATOM      8  C   UNL     1      -2.457  -4.749  -4.984  0.00  0.00    +0.020 A 
ATOM      9  C   UNL     1      -3.047  -4.146  -6.075  0.00  0.00    +0.026 A 
ATOM     10  C   UNL     1      -3.627  -2.886  -5.936  0.00  0.00    -0.000 A 
ATOM     11  C   UNL     1      -3.604  -2.250  -4.699  0.00  0.00    +0.015 A 
ATOM     12  C   UNL     1      -3.009  -2.864  -3.608  0.00  0.00    -0.023 A 
ATOM     13  C   UNL     1      -3.013  -2.133  -2.292  0.00  0.00    +0.129 C 
ATOM     14  C   UNL     1      -2.676  -0.659  -2.538  0.00  0.00    +0.195 C 
ATOM     15  O   UNL     1      -2.798   0.057  -1.293  0.00  0.00    -0.307 OA
ATOM     16 BR   UNL     1      -3.068  -5.024  -7.750  0.00  0.00    -0.050 Br
ATOM     17  H   UNL     1      -2.384  -2.736   0.688  0.00  0.00    +0.152 HD
ENDROOT
BRANCH  10  18
ATOM     18  C   UNL     1      -4.265  -2.226  -7.102  0.00  0.00    +0.025 A 
ATOM     19  C   UNL     1      -3.727  -1.050  -7.621  0.00  0.00    +0.012 A 
ATOM     20  C   UNL     1      -4.324  -0.440  -8.705  0.00  0.00    +0.001 A 
ATOM     21  C   UNL     1      -5.456  -0.992  -9.279  0.00  0.00    +0.004 A 
ATOM     22  C   UNL     1      -5.998  -2.158  -8.772  0.00  0.00    +0.046 A 
ATOM     23  C   UNL     1      -5.405  -2.784  -7.688  0.00  0.00    +0.125 A 
BRANCH  23  24
ATOM     24  O   UNL     1      -5.933  -3.934  -7.192  0.00  0.00    -0.506 OA
ATOM     25  H   UNL     1      -6.596  -3.796  -6.502  0.00  0.00    +0.292 HD
ENDBRANCH  23  24
ENDBRANCH  10  18
BRANCH   1  27
ATOM     26  C   UNL     1      -0.022   1.810   0.012  0.00  0.00    +0.096 C 
ATOM     27  S   UNL     1       0.002  -0.004   0.002  0.00  0.00    -0.056 S 
ENDBRANCH   1  27
TORSDOF 3
