REMARK  Name = ZINC15324965
REMARK  8 active torsions:
REMARK  status: ('A' for Active; 'I' for Inactive)
REMARK    1  A    between atoms: C_1  and  C_2
REMARK    2  A    between atoms: C_2  and  C_3
REMARK    3  A    between atoms: C_3  and  C_4
REMARK    4  A    between atoms: C_3  and  C_5
REMARK    5  A    between atoms: C_3  and  N_6
REMARK    6  A    between atoms: N_6  and  S_7
REMARK    7  A    between atoms: S_7  and  C_10
REMARK    8  A    between atoms: C_20  and  C_22
REMARK                            x       y       z     vdW  Elec       q    Type
REMARK                         _______ _______ _______ _____ _____    ______ ____
ROOT
ATOM      1  C   UNL     1      -4.908   0.491   1.540  0.00  0.00    +0.106 A 
ATOM      2  C   UNL     1      -4.510   1.250   2.626  0.00  0.00    +0.030 A 
ATOM      3  C   UNL     1      -3.167   1.484   2.847  0.00  0.00    +0.026 A 
ATOM      4  C   UNL     1      -2.217   0.958   1.979  0.00  0.00    +0.040 A 
ATOM      5  C   UNL     1      -2.616   0.196   0.893  0.00  0.00    -0.024 A 
ATOM      6  C   UNL     1      -3.965  -0.034   0.678  0.00  0.00    +0.034 A 
ATOM      7  C   UNL     1      -1.615  -0.395  -0.064  0.00  0.00    +0.038 C 
ATOM      8  C   UNL     1      -0.286   0.357   0.020  0.00  0.00    +0.024 C 
ATOM      9  C   UNL     1       0.149   0.432   1.489  0.00  0.00    +0.114 C 
ATOM     10  N   UNL     1      -0.859   1.215   2.217  0.00  0.00    -0.271 N 
ATOM     11  C   UNL     1      -0.483   2.164   3.098  0.00  0.00    +0.217 C 
ATOM     12  O   UNL     1      -1.323   2.788   3.712  0.00  0.00    -0.276 OA
ATOM     13  C   UNL     1       0.980   2.451   3.319  0.00  0.00    +0.109 C 
ENDROOT
BRANCH   1  14
ATOM     14  S   UNL     1      -6.621   0.193   1.257  0.00  0.00    +0.059 S 
ATOM     15  O   UNL     1      -7.334   1.069   2.119  0.00  0.00    -0.153 OA
ATOM     16  O   UNL     1      -6.806   0.194  -0.152  0.00  0.00    -0.153 OA
BRANCH  14  17
ATOM     17  N   UNL     1      -6.942  -1.347   1.775  0.00  0.00    -0.184 NA
ATOM     18  H   UNL     1      -7.194  -2.031   1.135  0.00  0.00    +0.149 HD
BRANCH  17  19
ATOM     19  C   UNL     1      -6.846  -1.675   3.199  0.00  0.00    +0.034 C 
ATOM     20  C   UNL     1      -5.455  -1.302   3.716  0.00  0.00    +0.029 C 
ATOM     21  C   UNL     1      -7.905  -0.891   3.976  0.00  0.00    +0.029 C 
BRANCH  19  23
ATOM     22  C   UNL     1      -6.976  -3.518   4.881  0.00  0.00    +0.006 C 
ATOM     23  C   UNL     1      -7.077  -3.175   3.394  0.00  0.00    +0.020 C 
ENDBRANCH  19  23
ENDBRANCH  17  19
ENDBRANCH  14  17
ENDBRANCH   1  14
TORSDOF 4
