REMARK  Name = ZINC67301310
REMARK  8 active torsions:
REMARK  status: ('A' for Active; 'I' for Inactive)
REMARK    1  A    between atoms: C_1  and  C_2
REMARK    2  A    between atoms: C_2  and  N_3
REMARK    3  A    between atoms: N_6  and  C_7
REMARK    4  A    between atoms: C_11  and  N_13
REMARK    5  A    between atoms: C_14  and  C_16
REMARK    6  A    between atoms: C_16  and  C_25
REMARK    7  A    between atoms: C_17  and  C_18
REMARK    8  A    between atoms: C_21  and  C_24
REMARK                            x       y       z     vdW  Elec       q    Type
REMARK                         _______ _______ _______ _____ _____    ______ ____
ROOT
ATOM      1  N   UNL     1       2.607  -6.284   5.238  0.00  0.00    -0.281 N 
ATOM      2  C   UNL     1       2.993  -7.573   5.301  0.00  0.00    +0.259 C 
ATOM      3  O   UNL     1       2.496  -8.395   4.555  0.00  0.00    -0.269 OA
ATOM      4  H   UNL     1       2.953  -5.642   5.877  0.00  0.00    +0.155 HD
ENDROOT
BRANCH   1   9
ATOM      5  C   UNL     1       0.931  -4.205   2.704  0.00  0.00    +0.037 A 
ATOM      6  C   UNL     1      -0.083  -5.062   2.294  0.00  0.00    +0.023 A 
ATOM      7  C   UNL     1      -0.200  -6.317   2.861  0.00  0.00    +0.004 A 
ATOM      8  C   UNL     1       0.690  -6.724   3.836  0.00  0.00    +0.023 A 
ATOM      9  C   UNL     1       1.706  -5.872   4.250  0.00  0.00    +0.035 A 
ATOM     10  C   UNL     1       1.830  -4.612   3.680  0.00  0.00    +0.046 A 
BRANCH   5  14
ATOM     11  N   UNL     1       2.386  -1.216   1.290  0.00  0.00    -0.299 N 
ATOM     12  C   UNL     1       2.268  -2.397   1.927  0.00  0.00    +0.304 C 
ATOM     13  O   UNL     1       3.262  -2.978   2.319  0.00  0.00    -0.253 OA
ATOM     14  N   UNL     1       1.049  -2.935   2.130  0.00  0.00    -0.269 N 
ATOM     15  H   UNL     1       1.594  -0.752   0.977  0.00  0.00    +0.150 HD
ATOM     16  H   UNL     1       0.253  -2.441   1.878  0.00  0.00    +0.156 HD
BRANCH  11  18
ATOM     17  C   UNL     1       3.566   0.700   0.330  0.00  0.00    +0.024 C 
ATOM     18  C   UNL     1       3.712  -0.632   1.069  0.00  0.00    +0.102 C 
ENDBRANCH  11  18
ENDBRANCH   5  14
ENDBRANCH   1   9
BRANCH   2  19
ATOM     19  C   UNL     1       4.017  -7.988   6.274  0.00  0.00    +0.114 C 
ATOM     20  C   UNL     1       4.511  -9.261   6.246  0.00  0.00    +0.032 C 
BRANCH  20  21
ATOM     21  C   UNL     1       4.239 -10.128   5.094  0.00  0.00    -0.024 A 
ATOM     22  C   UNL     1       4.320  -9.616   3.792  0.00  0.00    +0.008 A 
ATOM     23  C   UNL     1       4.064 -10.437   2.716  0.00  0.00    +0.004 A 
ATOM     24  C   UNL     1       3.726 -11.764   2.918  0.00  0.00    -0.050 A 
ATOM     25  C   UNL     1       3.644 -12.279   4.200  0.00  0.00    +0.004 A 
ATOM     26  C   UNL     1       3.903 -11.473   5.288  0.00  0.00    +0.008 A 
ATOM     27  C   UNL     1       3.447 -12.655   1.734  0.00  0.00    +0.044 C 
ENDBRANCH  20  21
BRANCH  19  28
ATOM     28  C   UNL     1       4.496  -7.056   7.251  0.00  0.00    +0.104 C 
ATOM     29  N   UNL     1       4.875  -6.317   8.026  0.00  0.00    -0.191 NA
ENDBRANCH  19  28
ENDBRANCH   2  19
TORSDOF 6
