REMARK  Name = ZINC08995246
REMARK  5 active torsions:
REMARK  status: ('A' for Active; 'I' for Inactive)
REMARK    1  A    between atoms: N_9  and  C_13
REMARK    2  A    between atoms: C_13  and  C_14
REMARK    3  A    between atoms: C_14  and  C_15
REMARK    4  A    between atoms: C_15  and  C_16
REMARK    5  A    between atoms: C_16  and  N_18
REMARK                            x       y       z     vdW  Elec       q    Type
REMARK                         _______ _______ _______ _____ _____    ______ ____
ROOT
ATOM      1  C   UNL     1       2.614  -4.689  -1.486  0.00  0.00    +0.031 C 
ENDROOT
BRANCH   1   2
ATOM      2  C   UNL     1       2.586  -4.189  -0.040  0.00  0.00    +0.130 C 
BRANCH   2  11
ATOM      3  C   UNL     1      -0.117   1.340   0.019  0.00  0.00    +0.001 A 
ATOM      4  C   UNL     1       1.061   2.071   0.013  0.00  0.00    +0.002 A 
ATOM      5  C   UNL     1       2.285   1.433  -0.004  0.00  0.00    +0.026 A 
ATOM      6  C   UNL     1       2.338   0.047  -0.013  0.00  0.00    +0.056 A 
ATOM      7  C   UNL     1       1.145  -0.695  -0.006  0.00  0.00    +0.063 A 
ATOM      8  C   UNL     1      -0.084  -0.038   0.010  0.00  0.00    +0.015 A 
ATOM      9  C   UNL     1       1.238  -2.166  -0.015  0.00  0.00    +0.264 A 
ATOM     10  O   UNL     1       0.235  -2.854  -0.010  0.00  0.00    -0.267 OA
ATOM     11  N   UNL     1       2.465  -2.729  -0.030  0.00  0.00    -0.261 N 
ATOM     12  C   UNL     1       3.577  -1.977  -0.036  0.00  0.00    +0.330 A 
ATOM     13  N   UNL     1       3.547  -0.633  -0.028  0.00  0.00    -0.307 N 
ATOM     14  O   UNL     1       4.657  -2.535  -0.049  0.00  0.00    -0.246 OA
ATOM     15  H   UNL     1       4.379  -0.135  -0.034  0.00  0.00    +0.170 HD
ENDBRANCH   2  11
ENDBRANCH   1   2
BRANCH   1  16
ATOM     16  C   UNL     1       2.739  -6.214  -1.496  0.00  0.00    +0.100 C 
BRANCH  16  17
ATOM     17  C   UNL     1       2.767  -6.706  -2.920  0.00  0.00    +0.239 C 
ATOM     18  O   UNL     1       2.693  -5.913  -3.839  0.00  0.00    -0.274 OA
BRANCH  17  19
ATOM     19  N   UNL     1       2.872  -8.007  -3.172  0.00  0.00    -0.147 NA
ATOM     20  C   UNL     1       2.791  -8.451  -4.424  0.00  0.00    +0.198 A 
ATOM     21  N   UNL     1       2.719  -7.670  -5.533  0.00  0.00    -0.326 N 
ATOM     22  H   UNL     1       2.718  -6.700  -5.546  0.00  0.00    +0.169 HD
ATOM     23  C   UNL     1       2.648  -8.499  -6.647  0.00  0.00    +0.065 A 
ATOM     24  C   UNL     1       2.561  -8.250  -8.009  0.00  0.00    +0.028 A 
ATOM     25  C   UNL     1       2.506  -9.305  -8.899  0.00  0.00    +0.002 A 
ATOM     26  C   UNL     1       2.536 -10.610  -8.438  0.00  0.00    +0.002 A 
ATOM     27  C   UNL     1       2.622 -10.868  -7.084  0.00  0.00    +0.028 A 
ATOM     28  C   UNL     1       2.679  -9.816  -6.182  0.00  0.00    +0.065 A 
ATOM     29  N   UNL     1       2.773  -9.758  -4.795  0.00  0.00    -0.326 N 
ATOM     30  H   UNL     1       2.817 -10.520  -4.197  0.00  0.00    +0.169 HD
ENDBRANCH  17  19
ENDBRANCH  16  17
ENDBRANCH   1  16
TORSDOF 5
