REMARK  Name = ZINC55604972
REMARK  10 active torsions:
REMARK  status: ('A' for Active; 'I' for Inactive)
REMARK    1  A    between atoms: C_1  and  C_2
REMARK    2  A    between atoms: C_2  and  N_3
REMARK    3  A    between atoms: N_3  and  C_4
REMARK    4  A    between atoms: C_4  and  C_5
REMARK    5  A    between atoms: C_4  and  C_6
REMARK    6  A    between atoms: C_15  and  C_17
REMARK    7  A    between atoms: C_18  and  C_27
REMARK    8  A    between atoms: C_19  and  C_24
REMARK    9  A    between atoms: C_20  and  C_23
REMARK   10  A    between atoms: C_24  and  C_26
REMARK                            x       y       z     vdW  Elec       q    Type
REMARK                         _______ _______ _______ _____ _____    ______ ____
ROOT
ATOM      1  N   UNL     1      -1.510  -0.471  -0.131  0.00  0.00    -0.287 N 
ATOM      2  C   UNL     1      -2.358  -0.631   0.905  0.00  0.00    +0.264 C 
ATOM      3  O   UNL     1      -3.525  -0.904   0.699  0.00  0.00    -0.268 OA
ENDROOT
BRANCH   2   4
ATOM      4  C   UNL     1      -1.872  -0.474   2.282  0.00  0.00    +0.106 A 
ATOM      5  C   UNL     1      -1.632   0.709   2.913  0.00  0.00    -0.010 A 
ATOM      6  C   UNL     1      -1.179   0.398   4.218  0.00  0.00    +0.041 A 
ATOM      7  C   UNL     1      -1.165  -0.984   4.322  0.00  0.00    +0.024 A 
ATOM      8  N   UNL     1      -1.587  -1.500   3.158  0.00  0.00    -0.354 N 
ATOM      9  H   UNL     1      -1.676  -2.446   2.963  0.00  0.00    +0.166 HD
ATOM     10  C   UNL     1      -0.750  -1.773   5.537  0.00  0.00    +0.064 C 
ATOM     11  C   UNL     1      -1.814   2.088   2.332  0.00  0.00    +0.047 C 
BRANCH   6  12
ATOM     12  C   UNL     1      -0.798   1.356   5.260  0.00  0.00    +0.162 C 
ATOM     13  O   UNL     1       0.329   1.804   5.290  0.00  0.00    -0.292 OA
ATOM     14  C   UNL     1      -1.807   1.784   6.295  0.00  0.00    +0.091 C 
ENDBRANCH   6  12
ENDBRANCH   2   4
BRANCH   1  16
ATOM     15  C   UNL     1       0.732  -1.250   0.460  0.00  0.00    +0.024 C 
ATOM     16  C   UNL     1      -0.132  -0.036   0.111  0.00  0.00    +0.105 C 
ENDBRANCH   1  16
BRANCH   1  17
ATOM     17  C   UNL     1      -1.967  -0.734  -1.498  0.00  0.00    +0.139 C 
ATOM     18  C   UNL     1      -1.024  -1.736  -2.167  0.00  0.00    +0.036 C 
BRANCH  17  19
ATOM     19  C   UNL     1      -1.970   0.554  -2.282  0.00  0.00    +0.126 A 
ATOM     20  C   UNL     1      -2.972   0.971  -3.067  0.00  0.00    +0.055 A 
ATOM     21  C   UNL     1      -2.546   2.261  -3.624  0.00  0.00    +0.020 A 
ATOM     22  C   UNL     1      -3.123   3.186  -4.492  0.00  0.00    +0.011 A 
ATOM     23  C   UNL     1      -2.440   4.324  -4.822  0.00  0.00    +0.001 A 
ATOM     24  C   UNL     1      -1.177   4.562  -4.297  0.00  0.00    +0.004 A 
ATOM     25  C   UNL     1      -0.591   3.658  -3.437  0.00  0.00    +0.047 A 
ATOM     26  C   UNL     1      -1.268   2.496  -3.089  0.00  0.00    +0.135 A 
ATOM     27  O   UNL     1      -0.970   1.452  -2.290  0.00  0.00    -0.458 OA
ENDBRANCH  17  19
ENDBRANCH   1  17
TORSDOF 5
