REMARK  Name = ZINC16040692
REMARK  8 active torsions:
REMARK  status: ('A' for Active; 'I' for Inactive)
REMARK    1  A    between atoms: C_1  and  C_2
REMARK    2  A    between atoms: N_4  and  C_17
REMARK    3  A    between atoms: C_5  and  O_16
REMARK    4  A    between atoms: C_13  and  C_14
REMARK    5  A    between atoms: C_13  and  C_15
REMARK    6  A    between atoms: C_17  and  N_19
REMARK    7  A    between atoms: N_19  and  C_20
REMARK    8  A    between atoms: C_20  and  C_21
REMARK                            x       y       z     vdW  Elec       q    Type
REMARK                         _______ _______ _______ _____ _____    ______ ____
ROOT
ATOM      1  C   UNL     1       3.431   4.026  -1.661  0.00  0.00    +0.063 C 
ATOM      2  C   UNL     1       1.970   3.727  -1.877  0.00  0.00    +0.042 C 
ATOM      3  N   UNL     1       1.245   4.045  -2.920  0.00  0.00    -0.184 NA
ATOM      4  N   UNL     1      -0.095   3.560  -2.797  0.00  0.00    -0.173 N 
ATOM      5  C   UNL     1       0.080   2.361  -2.004  0.00  0.00    +0.163 C 
ATOM      6  C   UNL     1       1.069   3.021  -0.964  0.00  0.00    +0.091 C 
ATOM      7  C   UNL     1       1.316   1.905  -0.000  0.00  0.00    +0.012 C 
ATOM      8  C   UNL     1      -0.013   1.086   0.008  0.00  0.00    +0.004 C 
ATOM      9  C   UNL     1      -0.928   1.791  -1.038  0.00  0.00    +0.062 C 
ATOM     10  C   UNL     1       0.437   1.822   1.260  0.00  0.00    -0.028 C 
ATOM     11  C   UNL     1      -0.343   3.077   1.657  0.00  0.00    +0.011 C 
ATOM     12  C   UNL     1       0.956   0.977   2.425  0.00  0.00    +0.011 C 
ENDROOT
BRANCH   5  13
ATOM     13  O   UNL     1       0.710   1.319  -2.753  0.00  0.00    -0.369 OA
ATOM     14  H   UNL     1       0.130   0.894  -3.399  0.00  0.00    +0.212 HD
ENDBRANCH   5  13
BRANCH   4  15
ATOM     15  C   UNL     1      -1.232   4.085  -3.294  0.00  0.00    +0.156 C 
ATOM     16  S   UNL     1      -2.731   3.308  -3.008  0.00  0.00    -0.017 S 
BRANCH  15  17
ATOM     17  N   UNL     1      -1.190   5.222  -4.017  0.00  0.00    -0.321 N 
ATOM     18  H   UNL     1      -0.340   5.662  -4.179  0.00  0.00    +0.148 HD
BRANCH  17  19
ATOM     19  C   UNL     1      -2.425   5.793  -4.558  0.00  0.00    +0.138 C 
BRANCH  19  20
ATOM     20  C   UNL     1      -2.105   7.053  -5.320  0.00  0.00    -0.030 A 
ATOM     21  C   UNL     1      -2.106   8.273  -4.670  0.00  0.00    +0.005 A 
ATOM     22  C   UNL     1      -1.808   9.428  -5.368  0.00  0.00    +0.000 A 
ATOM     23  C   UNL     1      -1.518   9.364  -6.718  0.00  0.00    +0.000 A 
ATOM     24  C   UNL     1      -1.523   8.145  -7.369  0.00  0.00    +0.000 A 
ATOM     25  C   UNL     1      -1.817   6.989  -6.670  0.00  0.00    +0.005 A 
ENDBRANCH  19  20
ENDBRANCH  17  19
ENDBRANCH  15  17
ENDBRANCH   4  15
TORSDOF 5
