REMARK  Name = ZINC49554488
REMARK  12 active torsions:
REMARK  status: ('A' for Active; 'I' for Inactive)
REMARK    1  A    between atoms: C_1  and  C_2
REMARK    2  A    between atoms: C_2  and  C_3
REMARK    3  A    between atoms: C_2  and  C_4
REMARK    4  A    between atoms: C_4  and  C_5
REMARK    5  A    between atoms: C_5  and  C_7
REMARK    6  A    between atoms: C_5  and  N_11
REMARK    7  A    between atoms: C_7  and  N_8
REMARK    8  A    between atoms: N_8  and  C_9
REMARK    9  A    between atoms: N_8  and  C_10
REMARK   10  A    between atoms: N_11  and  S_12
REMARK   11  A    between atoms: S_12  and  C_15
REMARK   12  A    between atoms: C_18  and  N_22
REMARK                            x       y       z     vdW  Elec       q    Type
REMARK                         _______ _______ _______ _____ _____    ______ ____
ROOT
ATOM      1  S   UNL     1       3.494   0.234   0.839  0.00  0.00    +0.060 S 
ATOM      2  O   UNL     1       4.155  -0.440   1.902  0.00  0.00    -0.153 OA
ATOM      3  O   UNL     1       4.197   0.793  -0.262  0.00  0.00    -0.153 OA
ENDROOT
BRANCH   1   4
ATOM      4  C   UNL     1       2.577   1.548   1.570  0.00  0.00    +0.124 A 
ATOM      5  C   UNL     1       2.349   1.556   2.934  0.00  0.00    +0.032 A 
ATOM      6  C   UNL     1       1.631   2.585   3.510  0.00  0.00    +0.025 A 
ATOM      7  C   UNL     1       1.135   3.614   2.719  0.00  0.00    +0.026 A 
ATOM      8  C   UNL     1       1.365   3.604   1.349  0.00  0.00    +0.044 A 
ATOM      9  C   UNL     1       2.090   2.574   0.779  0.00  0.00    +0.069 A 
ATOM     10 CL   UNL     1       2.383   2.564  -0.932  0.00  0.00    -0.081 Cl
BRANCH   7  11
ATOM     11  N   UNL     1       0.407   4.655   3.299  0.00  0.00    -0.358 N 
ATOM     12  H   UNL     1       0.247   4.660   4.256  0.00  0.00    +0.142 HD
ATOM     13  H   UNL     1       0.062   5.373   2.745  0.00  0.00    +0.142 HD
ENDBRANCH   7  11
ENDBRANCH   1   4
BRANCH   1  14
ATOM     14  N   UNL     1       2.399  -0.836   0.208  0.00  0.00    -0.189 NA
ATOM     15  H   UNL     1       2.324  -1.728   0.580  0.00  0.00    +0.148 HD
BRANCH  14  16
ATOM     16  C   UNL     1       1.545  -0.434  -0.912  0.00  0.00    +0.060 C 
BRANCH  16  17
ATOM     17  C   UNL     1       0.120  -0.939  -0.674  0.00  0.00    +0.021 C 
BRANCH  17  19
ATOM     18  C   UNL     1      -0.704   1.258   0.183  0.00  0.00    +0.007 C 
ATOM     19  C   UNL     1      -0.482  -0.215   0.532  0.00  0.00    -0.016 C 
ATOM     20  C   UNL     1      -1.821  -0.860   0.897  0.00  0.00    +0.007 C 
ENDBRANCH  17  19
ENDBRANCH  16  17
BRANCH  16  21
ATOM     21  C   UNL     1       2.089  -1.036  -2.210  0.00  0.00    -0.059 C 
BRANCH  21  22
ATOM     22  N   UNL     1       3.481  -0.608  -2.402  0.00  0.00    +0.377 N 
ATOM     23  C   UNL     1       4.368  -1.445  -1.584  0.00  0.00    -0.097 C 
ATOM     24  C   UNL     1       3.845  -0.747  -3.818  0.00  0.00    -0.097 C 
ATOM     25  H   UNL     1       3.578   0.357  -2.123  0.00  0.00    -0.083 HD
ENDBRANCH  21  22
ENDBRANCH  16  21
ENDBRANCH  14  16
ENDBRANCH   1  14
TORSDOF 8
