REMARK  Name = ZINC36743390
REMARK  5 active torsions:
REMARK  status: ('A' for Active; 'I' for Inactive)
REMARK    1  A    between atoms: C_1  and  C_2
REMARK    2  A    between atoms: N_5  and  S_8
REMARK    3  A    between atoms: S_8  and  N_11
REMARK    4  A    between atoms: N_11  and  C_12
REMARK    5  A    between atoms: C_15  and  N_19
REMARK                            x       y       z     vdW  Elec       q    Type
REMARK                         _______ _______ _______ _____ _____    ______ ____
ROOT
ATOM      1  N   UNL     1       3.943  -2.728  -0.053  0.00  0.00    -0.205 N 
ATOM      2  H   UNL     1       4.537  -2.777  -0.818  0.00  0.00    +0.175 HD
ENDROOT
BRANCH   1   3
ATOM      3  C   UNL     1       4.226  -1.849   0.999  0.00  0.00    +0.063 A 
ATOM      4  C   UNL     1       3.931  -2.212   2.307  0.00  0.00    +0.027 A 
ATOM      5  C   UNL     1       4.209  -1.344   3.344  0.00  0.00    +0.024 A 
ATOM      6  C   UNL     1       4.785  -0.108   3.080  0.00  0.00    +0.026 A 
ATOM      7  C   UNL     1       5.081   0.256   1.773  0.00  0.00    +0.040 A 
ATOM      8  C   UNL     1       4.807  -0.615   0.736  0.00  0.00    +0.042 A 
ATOM      9 BR   UNL     1       5.217  -0.123  -1.044  0.00  0.00    -0.048 Br
BRANCH   6  10
ATOM     10  N   UNL     1       5.067   0.771   4.132  0.00  0.00    -0.358 N 
ATOM     11  H   UNL     1       4.861   0.518   5.045  0.00  0.00    +0.142 HD
ATOM     12  H   UNL     1       5.470   1.635   3.948  0.00  0.00    +0.142 HD
ENDBRANCH   6  10
ENDBRANCH   1   3
BRANCH   1  13
ATOM     13  S   UNL     1       2.594  -3.687   0.009  0.00  0.00    +0.112 S 
ATOM     14  O   UNL     1       2.652  -4.391   1.242  0.00  0.00    -0.138 OA
ATOM     15  O   UNL     1       2.509  -4.351  -1.244  0.00  0.00    -0.138 OA
BRANCH  13  20
ATOM     16  C   UNL     1      -0.250   1.287   0.254  0.00  0.00    +0.007 C 
ATOM     17  C   UNL     1      -0.141  -0.239   0.223  0.00  0.00    -0.012 C 
ATOM     18  C   UNL     1       0.541  -0.675  -1.076  0.00  0.00    +0.020 C 
ATOM     19  C   UNL     1       0.617  -2.204  -1.120  0.00  0.00    +0.111 C 
ATOM     20  N   UNL     1       1.282  -2.680   0.101  0.00  0.00    -0.164 NA
ATOM     21  C   UNL     1       0.761  -2.245   1.405  0.00  0.00    +0.111 C 
ATOM     22  C   UNL     1       0.684  -0.716   1.420  0.00  0.00    +0.020 C 
ENDBRANCH  13  20
ENDBRANCH   1  13
TORSDOF 4
