REMARK  Name = ZINC07588848
REMARK  6 active torsions:
REMARK  status: ('A' for Active; 'I' for Inactive)
REMARK    1  A    between atoms: C_1  and  C_2
REMARK    2  A    between atoms: C_2  and  C_4
REMARK    3  A    between atoms: C_2  and  N_37
REMARK    4  A    between atoms: C_12  and  C_13
REMARK    5  A    between atoms: C_12  and  N_37
REMARK    6  A    between atoms: C_15  and  C_18
REMARK                            x       y       z     vdW  Elec       q    Type
REMARK                         _______ _______ _______ _____ _____    ______ ____
ROOT
ATOM      1  C   UNL     1       1.346   2.010   0.000  0.00  0.00    +0.019 C 
ENDROOT
BRANCH   1   2
ATOM      2  C   UNL     1       1.286   3.516   0.009  0.00  0.00    +0.211 A 
ATOM      3  N   UNL     1       1.259   4.287   1.067  0.00  0.00    -0.193 NA
ATOM      4  C   UNL     1       1.208   5.552   0.593  0.00  0.00    +0.202 A 
ATOM      5  N   UNL     1       1.199   5.475  -0.713  0.00  0.00    -0.056 NA
ATOM      6  O   UNL     1       1.243   4.315  -1.062  0.00  0.00    -0.340 OA
BRANCH   4   7
ATOM      7  C   UNL     1       1.164   6.795   1.402  0.00  0.00    +0.023 A 
ATOM      8  C   UNL     1       1.174   6.724   2.794  0.00  0.00    +0.013 A 
ATOM      9  C   UNL     1       1.139   7.883   3.542  0.00  0.00    +0.021 A 
ATOM     10  C   UNL     1       1.082   9.115   2.912  0.00  0.00    +0.041 A 
ATOM     11  C   UNL     1       1.067   9.190   1.530  0.00  0.00    +0.021 A 
ATOM     12  C   UNL     1       1.107   8.037   0.773  0.00  0.00    +0.013 A 
ATOM     13 CL   UNL     1       1.030  10.569   3.859  0.00  0.00    -0.084 Cl
ENDBRANCH   4   7
ENDBRANCH   1   2
BRANCH   1  14
ATOM     14  N   UNL     1      -0.027   1.471   0.010  0.00  0.00    +0.389 N 
ATOM     15  H   UNL     1      -0.512   1.795   0.855  0.00  0.00    -0.084 HD
ATOM     16  H   UNL     1      -0.528   1.804  -0.822  0.00  0.00    -0.084 HD
BRANCH  14  18
ATOM     17  C   UNL     1       0.148  -0.520   1.435  0.00  0.00    -0.009 C 
ATOM     18  C   UNL     1       0.002  -0.004   0.002  0.00  0.00    -0.041 C 
BRANCH  18  19
ATOM     19  C   UNL     1      -1.284  -0.521  -0.589  0.00  0.00    -0.026 A 
ATOM     20  C   UNL     1      -2.399   0.295  -0.637  0.00  0.00    +0.007 A 
ATOM     21  C   UNL     1      -3.580  -0.177  -1.178  0.00  0.00    +0.039 A 
ATOM     22  C   UNL     1      -3.647  -1.469  -1.673  0.00  0.00    +0.126 A 
ATOM     23  C   UNL     1      -2.531  -2.287  -1.627  0.00  0.00    +0.076 A 
ATOM     24  C   UNL     1      -1.347  -1.810  -1.089  0.00  0.00    +0.128 A 
ATOM     25  F   UNL     1      -0.256  -2.605  -1.048  0.00  0.00    -0.205 F 
ATOM     26  F   UNL     1      -4.801  -1.931  -2.202  0.00  0.00    -0.205 F 
ENDBRANCH  18  19
ENDBRANCH  14  18
ENDBRANCH   1  14
TORSDOF 5
