REMARK  Name = ZINC38827534
REMARK  6 active torsions:
REMARK  status: ('A' for Active; 'I' for Inactive)
REMARK    1  A    between atoms: C_1  and  O_2
REMARK    2  A    between atoms: O_2  and  C_3
REMARK    3  A    between atoms: C_5  and  C_11
REMARK    4  A    between atoms: C_8  and  O_9
REMARK    5  A    between atoms: N_12  and  N_13
REMARK    6  A    between atoms: C_14  and  C_20
REMARK                            x       y       z     vdW  Elec       q    Type
REMARK                         _______ _______ _______ _____ _____    ______ ____
ROOT
ATOM      1  N   UNL     1      -7.187   0.355   0.161  0.00  0.00    -0.172 N 
ATOM      2  C   UNL     1      -8.562  -0.161   0.294  0.00  0.00    +0.264 C 
ATOM      3  N   UNL     1      -9.387   1.054   0.376  0.00  0.00    -0.189 NA
ATOM      4  N   UNL     1      -8.639   2.032   0.304  0.00  0.00    -0.219 N 
ATOM      5  C   UNL     1      -7.326   1.699   0.181  0.00  0.00    +0.174 C 
ATOM      6  S   UNL     1      -6.037   2.819   0.064  0.00  0.00    -0.015 S 
ATOM      7  H   UNL     1      -8.955   2.949   0.335  0.00  0.00    +0.176 HD
ENDROOT
BRANCH   2   8
ATOM      8  C   UNL     1      -8.940  -0.980  -0.912  0.00  0.00    +0.001 A 
ATOM      9  C   UNL     1      -7.979  -1.685  -1.621  0.00  0.00    +0.025 A 
ATOM     10  C   UNL     1      -8.362  -2.426  -2.722  0.00  0.00    +0.083 A 
ATOM     11  N   UNL     1      -9.625  -2.466  -3.102  0.00  0.00    -0.367 N 
ATOM     12  C   UNL     1     -10.565  -1.808  -2.453  0.00  0.00    +0.083 A 
ATOM     13  C   UNL     1     -10.258  -1.052  -1.338  0.00  0.00    +0.025 A 
ATOM     14  H   UNL     1      -9.867  -2.993  -3.879  0.00  0.00    +0.165 HD
ENDBRANCH   2   8
BRANCH   1  16
ATOM     15  C   UNL     1      -4.876   0.226  -0.173  0.00  0.00    +0.138 C 
ATOM     16  N   UNL     1      -6.002  -0.384   0.045  0.00  0.00    -0.183 NA
BRANCH  15  19
ATOM     17  C   UNL     1      -1.224  -0.605  -0.438  0.00  0.00    +0.163 A 
ATOM     18  C   UNL     1      -2.403   0.116  -0.423  0.00  0.00    +0.059 A 
ATOM     19  C   UNL     1      -3.616  -0.538  -0.189  0.00  0.00    -0.001 A 
ATOM     20  C   UNL     1      -3.630  -1.918   0.029  0.00  0.00    +0.028 A 
ATOM     21  C   UNL     1      -2.449  -2.631   0.013  0.00  0.00    +0.063 A 
ATOM     22  C   UNL     1      -1.246  -1.981  -0.224  0.00  0.00    +0.173 A 
ATOM     23 BR   UNL     1      -2.471  -4.499   0.309  0.00  0.00    -0.046 Br
BRANCH  17  25
ATOM     24  C   UNL     1      -0.093   1.441  -0.876  0.00  0.00    +0.277 C 
ATOM     25  O   UNL     1      -0.042   0.029  -0.665  0.00  0.00    -0.491 OA
ENDBRANCH  17  25
BRANCH  22  26
ATOM     26  O   UNL     1      -0.085  -2.689  -0.244  0.00  0.00    -0.503 OA
ATOM     27  H   UNL     1       0.346  -2.761   0.619  0.00  0.00    +0.292 HD
ENDBRANCH  22  26
ENDBRANCH  15  19
ENDBRANCH   1  16
TORSDOF 5
