REMARK  Name = ZINC67392792
REMARK  11 active torsions:
REMARK  status: ('A' for Active; 'I' for Inactive)
REMARK    1  A    between atoms: C_1  and  C_2
REMARK    2  A    between atoms: C_5  and  C_26
REMARK    3  A    between atoms: C_7  and  N_8
REMARK    4  A    between atoms: C_9  and  C_11
REMARK    5  A    between atoms: N_13  and  C_14
REMARK    6  A    between atoms: C_14  and  C_15
REMARK    7  A    between atoms: C_15  and  C_16
REMARK    8  A    between atoms: C_15  and  C_17
REMARK    9  A    between atoms: C_15  and  N_18
REMARK   10  A    between atoms: C_22  and  C_25
REMARK   11  A    between atoms: N_28  and  C_29
REMARK                            x       y       z     vdW  Elec       q    Type
REMARK                         _______ _______ _______ _____ _____    ______ ____
ROOT
ATOM      1  N   UNL     1       0.017  -0.075   2.406  0.00  0.00    -0.277 N 
ATOM      2  C   UNL     1      -0.070  -0.738   3.577  0.00  0.00    +0.303 C 
ATOM      3  O   UNL     1      -0.072  -1.951   3.589  0.00  0.00    -0.265 OA
ATOM      4  H   UNL     1       0.077   0.893   2.400  0.00  0.00    +0.155 HD
ENDROOT
BRANCH   1  11
ATOM      5  C   UNL     1      -1.254   1.107   0.157  0.00  0.00    +0.045 C 
ATOM      6  C   UNL     1      -0.589  -0.243   0.076  0.00  0.00    -0.029 A 
ATOM      7  C   UNL     1      -0.583  -0.937  -1.120  0.00  0.00    +0.006 A 
ATOM      8  C   UNL     1       0.024  -2.173  -1.202  0.00  0.00    +0.013 A 
ATOM      9  C   UNL     1       0.635  -2.728  -0.076  0.00  0.00    +0.038 A 
ATOM     10  C   UNL     1       0.629  -2.028   1.131  0.00  0.00    +0.036 A 
ATOM     11  C   UNL     1       0.021  -0.783   1.202  0.00  0.00    +0.037 A 
BRANCH   9  12
ATOM     12  C   UNL     1       1.286  -4.053  -0.161  0.00  0.00    +0.244 C 
ATOM     13  O   UNL     1       1.817  -4.534   0.821  0.00  0.00    -0.270 OA
ATOM     14  N   UNL     1       1.290  -4.728  -1.328  0.00  0.00    -0.314 N 
ATOM     15  C   UNL     1       1.934  -6.040  -1.412  0.00  0.00    +0.128 C 
ATOM     16  H   UNL     1       0.866  -4.344  -2.111  0.00  0.00    +0.149 HD
ENDBRANCH   9  12
ENDBRANCH   1  11
BRANCH   2  17
ATOM     17  C   UNL     1      -0.166   0.022   4.860  0.00  0.00    +0.299 C 
ATOM     18  O   UNL     1      -0.164   1.235   4.848  0.00  0.00    -0.265 OA
ATOM     19  N   UNL     1      -0.253  -0.641   6.030  0.00  0.00    -0.309 N 
ATOM     20  H   UNL     1      -0.254  -1.611   6.040  0.00  0.00    +0.149 HD
BRANCH  19  21
ATOM     21  C   UNL     1      -0.346   0.104   7.288  0.00  0.00    +0.092 C 
BRANCH  21  22
ATOM     22  C   UNL     1      -0.308  -0.874   8.464  0.00  0.00    -0.055 C 
ATOM     23  C   UNL     1       1.016  -1.641   8.447  0.00  0.00    -0.008 C 
ATOM     24  C   UNL     1      -0.431  -0.098   9.777  0.00  0.00    -0.008 C 
BRANCH  22  25
ATOM     25  N   UNL     1      -1.425  -1.822   8.349  0.00  0.00    +0.384 N 
ATOM     26  C   UNL     1      -2.687  -1.079   8.253  0.00  0.00    -0.078 C 
ATOM     27  C   UNL     1      -3.845  -2.059   8.052  0.00  0.00    -0.018 C 
ATOM     28  C   UNL     1      -3.906  -3.021   9.242  0.00  0.00    -0.001 C 
ATOM     29  C   UNL     1      -2.558  -3.736   9.377  0.00  0.00    -0.031 C 
ATOM     30  C   UNL     1      -1.448  -2.694   9.529  0.00  0.00    -0.075 C 
ATOM     31  C   UNL     1      -2.582  -4.642  10.609  0.00  0.00    +0.005 C 
ATOM     32  H   UNL     1      -1.303  -2.383   7.519  0.00  0.00    -0.081 HD
ENDBRANCH  22  25
ENDBRANCH  21  22
ENDBRANCH  19  21
ENDBRANCH   2  17
TORSDOF 6
