REMARK  Name = ZINC05671438
REMARK  4 active torsions:
REMARK  status: ('A' for Active; 'I' for Inactive)
REMARK    1  A    between atoms: C_3  and  N_10
REMARK    2  A    between atoms: C_5  and  N_7
REMARK    3  A    between atoms: N_10  and  N_11
REMARK    4  A    between atoms: N_14  and  C_15
REMARK                            x       y       z     vdW  Elec       q    Type
REMARK                         _______ _______ _______ _____ _____    ______ ____
ROOT
ATOM      1  N   UNL     1      -6.127   1.882   0.037  0.00  0.00    -0.220 N 
ATOM      2  C   UNL     1      -7.286   1.195   0.047  0.00  0.00    +0.320 C 
ATOM      3  O   UNL     1      -8.346   1.790   0.064  0.00  0.00    -0.251 OA
ATOM      4  N   UNL     1      -7.271  -0.153   0.037  0.00  0.00    -0.268 N 
ATOM      5  H   UNL     1      -6.138   2.852   0.044  0.00  0.00    +0.174 HD
ATOM      6  H   UNL     1      -6.429  -0.628  -0.044  0.00  0.00    +0.156 HD
ENDROOT
BRANCH   4   7
ATOM      7  C   UNL     1      -8.469  -0.867   0.145  0.00  0.00    +0.036 A 
ATOM      8  C   UNL     1      -8.500  -2.075   0.831  0.00  0.00    +0.023 A 
ATOM      9  C   UNL     1      -9.685  -2.776   0.940  0.00  0.00    +0.003 A 
ATOM     10  C   UNL     1     -10.839  -2.281   0.359  0.00  0.00    +0.020 A 
ATOM     11  C   UNL     1     -10.811  -1.081  -0.329  0.00  0.00    +0.043 A 
ATOM     12  C   UNL     1      -9.628  -0.373  -0.437  0.00  0.00    +0.043 A 
ATOM     13 CL   UNL     1     -12.261  -0.464  -1.056  0.00  0.00    -0.083 Cl
ENDBRANCH   4   7
BRANCH   1  14
ATOM     14  N   UNL     1      -4.905   1.196   0.018  0.00  0.00    -0.263 N 
ATOM     15  H   UNL     1      -4.894   0.226   0.011  0.00  0.00    +0.170 HD
BRANCH  14  18
ATOM     16  C   UNL     1      -2.528   3.998   0.009  0.00  0.00    +0.004 A 
ATOM     17  C   UNL     1      -3.718   3.297   0.018  0.00  0.00    +0.024 A 
ATOM     18  C   UNL     1      -3.704   1.908   0.008  0.00  0.00    +0.047 A 
ATOM     19  C   UNL     1      -2.492   1.229  -0.011  0.00  0.00    +0.057 A 
ATOM     20  C   UNL     1      -1.306   1.936  -0.020  0.00  0.00    +0.128 A 
ATOM     21  C   UNL     1      -1.324   3.319  -0.005  0.00  0.00    +0.033 A 
BRANCH  20  22
ATOM     22  N   UNL     1      -0.015   1.213  -0.041  0.00  0.00    +0.056 N 
ATOM     23  O   UNL     1       0.002  -0.005  -0.049  0.00  0.00    -0.126 OA
ATOM     24  O   UNL     1       1.032   1.837  -0.054  0.00  0.00    -0.126 OA
ENDBRANCH  20  22
ENDBRANCH  14  18
ENDBRANCH   1  14
TORSDOF 4
