REMARK  Name = ZINC15241081
REMARK  6 active torsions:
REMARK  status: ('A' for Active; 'I' for Inactive)
REMARK    1  A    between atoms: C_1  and  C_2
REMARK    2  A    between atoms: C_5  and  N_8
REMARK    3  A    between atoms: C_21  and  S_22
REMARK    4  A    between atoms: S_22  and  C_23
REMARK    5  A    between atoms: C_23  and  C_24
REMARK    6  A    between atoms: C_24  and  C_25
REMARK                            x       y       z     vdW  Elec       q    Type
REMARK                         _______ _______ _______ _____ _____    ______ ____
ROOT
ATOM      1  N   UNL     1       1.706   3.044   0.002  0.00  0.00    -0.245 N 
ATOM      2  C   UNL     1       2.946   3.210  -0.503  0.00  0.00    +0.268 A 
ATOM      3  O   UNL     1       3.294   4.289  -0.944  0.00  0.00    -0.267 OA
ATOM      4  C   UNL     1       3.873   2.064  -0.512  0.00  0.00    +0.064 A 
ATOM      5  C   UNL     1       5.165   2.183  -1.022  0.00  0.00    +0.015 A 
ATOM      6  C   UNL     1       6.005   1.089  -1.012  0.00  0.00    +0.001 A 
ATOM      7  C   UNL     1       5.569  -0.124  -0.500  0.00  0.00    +0.002 A 
ATOM      8  C   UNL     1       4.292  -0.254   0.007  0.00  0.00    +0.027 A 
ATOM      9  C   UNL     1       3.434   0.835   0.006  0.00  0.00    +0.064 A 
ATOM     10  N   UNL     1       2.143   0.736   0.510  0.00  0.00    -0.255 N 
ATOM     11  C   UNL     1       1.301   1.817   0.506  0.00  0.00    +0.245 A 
ATOM     12  N   UNL     1       0.169   1.420   1.038  0.00  0.00    -0.109 NA
ATOM     13  N   UNL     1       0.247   0.180   1.368  0.00  0.00    -0.120 NA
ATOM     14  C   UNL     1       1.433  -0.292   1.069  0.00  0.00    +0.198 A 
ENDROOT
BRANCH   1  19
ATOM     15  C   UNL     1      -1.903   7.421   0.058  0.00  0.00    +0.044 C 
ATOM     16  C   UNL     1      -0.944   6.259   0.043  0.00  0.00    -0.050 A 
ATOM     17  C   UNL     1      -0.906   5.410  -1.048  0.00  0.00    +0.005 A 
ATOM     18  C   UNL     1      -0.029   4.343  -1.065  0.00  0.00    +0.026 A 
ATOM     19  C   UNL     1       0.816   4.124   0.015  0.00  0.00    +0.053 A 
ATOM     20  C   UNL     1       0.771   4.975   1.112  0.00  0.00    +0.026 A 
ATOM     21  C   UNL     1      -0.104   6.043   1.120  0.00  0.00    +0.005 A 
ENDBRANCH   1  19
BRANCH  14  22
ATOM     22  S   UNL     1       2.005  -1.938   1.335  0.00  0.00    -0.085 S 
BRANCH  22  23
ATOM     23  C   UNL     1       0.588  -2.776   2.099  0.00  0.00    +0.086 C 
BRANCH  23  24
ATOM     24  C   UNL     1       0.953  -4.233   2.387  0.00  0.00    +0.106 C 
BRANCH  24  25
ATOM     25  C   UNL     1      -0.224  -4.929   3.021  0.00  0.00    +0.211 C 
ATOM     26  O   UNL     1      -1.252  -4.319   3.223  0.00  0.00    -0.276 OA
ATOM     27  N   UNL     1      -0.133  -6.230   3.364  0.00  0.00    -0.329 N 
ATOM     28  H   UNL     1       0.690  -6.717   3.202  0.00  0.00    +0.145 HD
ATOM     29  H   UNL     1      -0.890  -6.678   3.772  0.00  0.00    +0.145 HD
ENDBRANCH  24  25
ENDBRANCH  23  24
ENDBRANCH  22  23
ENDBRANCH  14  22
TORSDOF 5
