REMARK  Name = ZINC39465796
REMARK  9 active torsions:
REMARK  status: ('A' for Active; 'I' for Inactive)
REMARK    1  A    between atoms: C_1  and  C_2
REMARK    2  A    between atoms: C_2  and  O_3
REMARK    3  A    between atoms: O_3  and  P_4
REMARK    4  A    between atoms: C_12  and  S_27
REMARK    5  A    between atoms: C_13  and  C_20
REMARK    6  A    between atoms: C_25  and  O_26
REMARK    7  A    between atoms: S_27  and  C_30
REMARK    8  A    between atoms: C_30  and  C_31
REMARK    9  A    between atoms: C_30  and  C_32
REMARK                            x       y       z     vdW  Elec       q    Type
REMARK                         _______ _______ _______ _____ _____    ______ ____
ROOT
ATOM      1  P   UNL     1      -0.995  -2.940  -1.108  0.00  0.00    +0.421 P 
ATOM      2  O   UNL     1      -0.023  -3.833  -0.440  0.00  0.00    -0.239 OA
ATOM      3  N   UNL     1      -0.889  -3.102  -2.750  0.00  0.00    -0.156 NA
ATOM      4  N   UNL     1      -1.988  -2.706  -3.480  0.00  0.00    -0.224 NA
ATOM      5  C   UNL     1      -1.743  -2.930  -4.912  0.00  0.00    +0.108 C 
ATOM      6  C   UNL     1      -2.810  -2.189  -5.716  0.00  0.00    +0.052 C 
ATOM      7  C   UNL     1      -4.179  -2.564  -5.208  0.00  0.00    -0.039 A 
ATOM      8  C   UNL     1      -5.276  -2.326  -6.024  0.00  0.00    +0.031 A 
ATOM      9  C   UNL     1      -6.546  -2.651  -5.602  0.00  0.00    +0.097 A 
ATOM     10  C   UNL     1      -6.730  -3.223  -4.344  0.00  0.00    +0.011 A 
ATOM     11  C   UNL     1      -5.628  -3.459  -3.529  0.00  0.00    +0.016 A 
ATOM     12  C   UNL     1      -4.353  -3.129  -3.962  0.00  0.00    -0.023 A 
ATOM     13  C   UNL     1      -3.195  -3.407  -3.040  0.00  0.00    +0.130 C 
ATOM     14  C   UNL     1      -3.581  -2.996  -1.616  0.00  0.00    +0.196 C 
ATOM     15  O   UNL     1      -2.514  -3.374  -0.722  0.00  0.00    -0.294 OA
ATOM     16  H   UNL     1      -0.094  -3.456  -3.177  0.00  0.00    +0.153 HD
ENDROOT
BRANCH  10  17
ATOM     17  C   UNL     1      -8.092  -3.577  -3.877  0.00  0.00    +0.025 A 
ATOM     18  C   UNL     1      -8.751  -2.763  -2.959  0.00  0.00    +0.012 A 
ATOM     19  C   UNL     1     -10.019  -3.097  -2.528  0.00  0.00    +0.001 A 
ATOM     20  C   UNL     1     -10.639  -4.239  -3.005  0.00  0.00    +0.004 A 
ATOM     21  C   UNL     1      -9.994  -5.053  -3.916  0.00  0.00    +0.046 A 
ATOM     22  C   UNL     1      -8.724  -4.727  -4.362  0.00  0.00    +0.125 A 
BRANCH  22  23
ATOM     23  O   UNL     1      -8.091  -5.524  -5.262  0.00  0.00    -0.506 OA
ATOM     24  H   UNL     1      -7.625  -6.272  -4.865  0.00  0.00    +0.292 HD
ENDBRANCH  22  23
ENDBRANCH  10  17
BRANCH   9  25
ATOM     25  S   UNL     1      -7.932  -2.344  -6.646  0.00  0.00    -0.000 S 
ATOM     26  O   UNL     1      -7.377  -1.800  -7.835  0.00  0.00    -0.169 OA
ATOM     27  O   UNL     1      -8.643  -3.574  -6.675  0.00  0.00    -0.169 OA
BRANCH  25  28
ATOM     28  C   UNL     1      -8.902  -1.083  -5.775  0.00  0.00    +0.130 C 
ATOM     29  C   UNL     1      -8.018   0.132  -5.488  0.00  0.00    +0.032 C 
ATOM     30  C   UNL     1     -10.086  -0.657  -6.646  0.00  0.00    +0.032 C 
ENDBRANCH  25  28
ENDBRANCH   9  25
BRANCH   1  31
ATOM     31  O   UNL     1      -0.728  -1.411  -0.681  0.00  0.00    -0.296 OA
BRANCH  31  33
ATOM     32  C   UNL     1       0.467   0.643  -0.239  0.00  0.00    +0.035 C 
ATOM     33  C   UNL     1       0.569  -0.812  -0.701  0.00  0.00    +0.168 C 
ENDBRANCH  31  33
ENDBRANCH   1  31
TORSDOF 6
