REMARK  Name = ZINC40173506
REMARK  11 active torsions:
REMARK  status: ('A' for Active; 'I' for Inactive)
REMARK    1  A    between atoms: C_1  and  C_2
REMARK    2  A    between atoms: C_2  and  C_3
REMARK    3  A    between atoms: C_3  and  C_5
REMARK    4  A    between atoms: C_3  and  N_21
REMARK    5  A    between atoms: N_7  and  C_8
REMARK    6  A    between atoms: C_9  and  C_17
REMARK    7  A    between atoms: C_17  and  O_19
REMARK    8  A    between atoms: O_19  and  C_20
REMARK    9  A    between atoms: C_25  and  S_26
REMARK   10  A    between atoms: S_26  and  C_27
REMARK   11  A    between atoms: C_27  and  C_28
REMARK                            x       y       z     vdW  Elec       q    Type
REMARK                         _______ _______ _______ _____ _____    ______ ____
ROOT
ATOM      1  C   UNL     1      -1.414  -2.036   0.129  0.00  0.00    +0.241 C 
ATOM      2  O   UNL     1      -1.912  -2.718  -0.742  0.00  0.00    -0.273 OA
ATOM      3  N   UNL     1      -0.842  -2.622   1.199  0.00  0.00    -0.278 N 
ATOM      4  H   UNL     1      -0.444  -2.077   1.895  0.00  0.00    +0.155 HD
ENDROOT
BRANCH   3   5
ATOM      5  C   UNL     1      -0.824  -4.004   1.306  0.00  0.00    +0.086 A 
ATOM      6  C   UNL     1      -0.291  -4.774   2.329  0.00  0.00    +0.091 A 
ATOM      7  C   UNL     1      -0.402  -6.217   2.201  0.00  0.00    -0.021 A 
ATOM      8  C   UNL     1      -1.025  -6.625   1.075  0.00  0.00    -0.004 A 
ATOM      9  S   UNL     1      -1.449  -5.131   0.229  0.00  0.00    -0.077 S 
ATOM     10  C   UNL     1      -1.291  -8.038   0.656  0.00  0.00    +0.043 C 
ATOM     11  C   UNL     1      -0.418  -8.967   1.512  0.00  0.00    +0.005 C 
ATOM     12  C   UNL     1      -0.560  -8.565   2.982  0.00  0.00    +0.005 C 
ATOM     13  C   UNL     1       0.122  -7.216   3.221  0.00  0.00    +0.037 C 
BRANCH   6  14
ATOM     14  C   UNL     1       0.357  -4.158   3.489  0.00  0.00    +0.342 C 
ATOM     15  O   UNL     1      -0.298  -3.876   4.473  0.00  0.00    -0.245 OA
BRANCH  14  16
ATOM     16  O   UNL     1       1.682  -3.904   3.465  0.00  0.00    -0.464 OA
ATOM     17  C   UNL     1       2.248  -3.302   4.631  0.00  0.00    +0.280 C 
ENDBRANCH  14  16
ENDBRANCH   6  14
ENDBRANCH   3   5
BRANCH   1  18
ATOM     18  C   UNL     1      -1.433  -0.534   0.013  0.00  0.00    +0.178 C 
BRANCH  18  19
ATOM     19  N   UNL     1      -2.105  -0.148  -1.230  0.00  0.00    -0.279 N 
ATOM     20  C   UNL     1      -1.721  -0.499  -2.493  0.00  0.00    +0.216 A 
ATOM     21  N   UNL     1      -2.568   0.034  -3.338  0.00  0.00    -0.113 NA
ATOM     22  N   UNL     1      -3.524   0.746  -2.602  0.00  0.00    -0.121 NA
ATOM     23  C   UNL     1      -3.231   0.621  -1.330  0.00  0.00    +0.194 A 
ATOM     24  N   UNL     1      -0.623  -1.284  -2.824  0.00  0.00    -0.328 N 
ATOM     25  H   UNL     1      -0.050  -1.635  -2.125  0.00  0.00    +0.145 HD
ATOM     26  H   UNL     1      -0.429  -1.480  -3.754  0.00  0.00    +0.145 HD
BRANCH  23  27
ATOM     27  S   UNL     1      -4.128   1.323   0.014  0.00  0.00    -0.071 S 
BRANCH  27  28
ATOM     28  C   UNL     1      -5.492   2.212  -0.786  0.00  0.00    +0.195 C 
BRANCH  28  29
ATOM     29  C   UNL     1      -6.329   2.853   0.241  0.00  0.00    +0.074 C 
ATOM     30  N   UNL     1      -6.975   3.348   1.033  0.00  0.00    -0.196 NA
ENDBRANCH  28  29
ENDBRANCH  27  28
ENDBRANCH  23  27
ENDBRANCH  18  19
BRANCH  18  32
ATOM     31  C   UNL     1      -0.019   1.526   0.010  0.00  0.00    +0.006 C 
ATOM     32  C   UNL     1       0.002  -0.004   0.002  0.00  0.00    +0.031 C 
ENDBRANCH  18  32
ENDBRANCH   1  18
TORSDOF 9
