REMARK  Name = ZINC67411380
REMARK  6 active torsions:
REMARK  status: ('A' for Active; 'I' for Inactive)
REMARK    1  A    between atoms: C_5  and  C_11
REMARK    2  A    between atoms: C_11  and  N_12
REMARK    3  A    between atoms: N_15  and  C_18
REMARK    4  A    between atoms: C_18  and  C_19
REMARK    5  A    between atoms: N_21  and  C_22
REMARK    6  A    between atoms: C_22  and  C_23
REMARK                            x       y       z     vdW  Elec       q    Type
REMARK                         _______ _______ _______ _____ _____    ______ ____
ROOT
ATOM      1  N   UNL     1       6.443   0.858   1.323  0.00  0.00    -0.294 NA
ATOM      2  C   UNL     1       6.125  -0.343   2.108  0.00  0.00    +0.100 C 
ATOM      3  C   UNL     1       6.593  -0.144   3.552  0.00  0.00    +0.100 C 
ATOM      4  N   UNL     1       8.038   0.122   3.563  0.00  0.00    -0.292 NA
ATOM      5  C   UNL     1       8.356   1.323   2.778  0.00  0.00    +0.100 C 
ATOM      6  C   UNL     1       7.888   1.124   1.335  0.00  0.00    +0.100 C 
ENDROOT
BRANCH   1   7
ATOM      7  C   UNL     1       5.942   0.736  -0.052  0.00  0.00    +0.139 C 
BRANCH   7  12
ATOM      8  C   UNL     1      -0.017   1.401   0.010  0.00  0.00    +0.025 A 
ATOM      9  C   UNL     1       1.155   2.091   0.002  0.00  0.00    +0.046 A 
ATOM     10  C   UNL     1       2.373   1.383  -0.013  0.00  0.00    +0.116 A 
ATOM     11  N   UNL     1       3.638   1.781  -0.024  0.00  0.00    -0.342 N 
ATOM     12  C   UNL     1       4.435   0.711  -0.037  0.00  0.00    +0.048 A 
ATOM     13  C   UNL     1       3.666  -0.400  -0.036  0.00  0.00    +0.115 A 
ATOM     14  N   UNL     1       2.361   0.012  -0.020  0.00  0.00    -0.306 N 
ATOM     15  C   UNL     1       1.177  -0.669  -0.013  0.00  0.00    +0.112 A 
ATOM     16  C   UNL     1       0.002  -0.004   0.002  0.00  0.00    +0.058 A 
ATOM     17 CL   UNL     1      -1.492  -0.889   0.012  0.00  0.00    -0.082 Cl
ATOM     18  H   UNL     1       3.936   2.704  -0.022  0.00  0.00    +0.167 HD
ENDBRANCH   7  12
ENDBRANCH   1   7
BRANCH   4  19
ATOM     19  C   UNL     1       8.540   0.244   4.939  0.00  0.00    +0.180 C 
BRANCH  19  20
ATOM     20  C   UNL     1      10.046   0.270   4.923  0.00  0.00    +0.227 C 
ATOM     21  O   UNL     1      10.643   0.194   3.871  0.00  0.00    -0.274 OA
ATOM     22  N   UNL     1      10.730   0.377   6.080  0.00  0.00    -0.314 N 
ATOM     23  H   UNL     1      10.253   0.438   6.922  0.00  0.00    +0.149 HD
BRANCH  22  24
ATOM     24  C   UNL     1      12.195   0.402   6.065  0.00  0.00    +0.110 C 
BRANCH  24  25
ATOM     25  C   UNL     1      12.717   0.529   7.498  0.00  0.00    +0.034 C 
ATOM     26  C   UNL     1      14.270   0.502   7.524  0.00  0.00    +0.035 C 
ATOM     27  C   UNL     1      14.556   1.329   8.803  0.00  0.00    +0.160 C 
ATOM     28  O   UNL     1      13.550   2.353   8.821  0.00  0.00    -0.379 OA
ATOM     29  C   UNL     1      12.399   1.924   8.077  0.00  0.00    +0.165 C 
ENDBRANCH  24  25
ENDBRANCH  22  24
ENDBRANCH  19  20
ENDBRANCH   4  19
TORSDOF 6
