REMARK  Name = ZINC37036686
REMARK  6 active torsions:
REMARK  status: ('A' for Active; 'I' for Inactive)
REMARK    1  A    between atoms: C_1  and  C_2
REMARK    2  A    between atoms: C_3  and  S_8
REMARK    3  A    between atoms: S_8  and  C_9
REMARK    4  A    between atoms: C_9  and  C_10
REMARK    5  A    between atoms: C_14  and  C_16
REMARK    6  A    between atoms: C_14  and  C_17
REMARK                            x       y       z     vdW  Elec       q    Type
REMARK                         _______ _______ _______ _____ _____    ______ ____
ROOT
ATOM      1  C   UNL     1      -0.010  -1.167  -5.333  0.00  0.00    +0.158 C 
ATOM      2  C   UNL     1      -0.057  -2.425  -6.236  0.00  0.00    +0.196 C 
ATOM      3  O   UNL     1      -0.686  -1.904  -7.432  0.00  0.00    -0.342 OA
ATOM      4  C   UNL     1      -1.647  -0.948  -6.956  0.00  0.00    +0.194 C 
ATOM      5  O   UNL     1      -1.232  -0.476  -5.665  0.00  0.00    -0.339 OA
ATOM      6  C   UNL     1      -3.021  -1.612  -6.846  0.00  0.00    +0.080 C 
ENDROOT
BRANCH   4   7
ATOM      7  C   UNL     1      -1.724   0.212  -7.915  0.00  0.00    +0.011 A 
ATOM      8  C   UNL     1      -2.011   1.480  -7.444  0.00  0.00    +0.009 A 
ATOM      9  C   UNL     1      -2.082   2.545  -8.323  0.00  0.00    +0.000 A 
ATOM     10  C   UNL     1      -1.866   2.341  -9.673  0.00  0.00    +0.000 A 
ATOM     11  C   UNL     1      -1.578   1.074 -10.144  0.00  0.00    +0.000 A 
ATOM     12  C   UNL     1      -1.503   0.010  -9.264  0.00  0.00    +0.009 A 
ENDBRANCH   4   7
BRANCH   1  13
ATOM     13  C   UNL     1       0.003  -1.562  -3.855  0.00  0.00    +0.109 C 
BRANCH  13  14
ATOM     14  S   UNL     1      -0.012  -0.066  -2.829  0.00  0.00    -0.114 S 
BRANCH  14  17
ATOM     15  C   UNL     1      -0.018   1.503   0.010  0.00  0.00    +0.067 C 
ATOM     16  C   UNL     1       0.002  -0.004   0.002  0.00  0.00    +0.061 A 
ATOM     17  C   UNL     1       0.005  -0.682  -1.178  0.00  0.00    +0.069 A 
ATOM     18  S   UNL     1       0.031  -2.370  -0.589  0.00  0.00    -0.046 S 
ATOM     19  C   UNL     1       0.035  -1.995   1.158  0.00  0.00    +0.157 A 
ATOM     20  N   UNL     1       0.022  -0.675   1.141  0.00  0.00    -0.229 NA
ATOM     21  N   UNL     1       0.052  -2.861   2.245  0.00  0.00    -0.337 N 
ATOM     22  H   UNL     1       0.065  -3.820   2.100  0.00  0.00    +0.144 HD
ATOM     23  H   UNL     1       0.052  -2.507   3.148  0.00  0.00    +0.144 HD
ENDBRANCH  14  17
ENDBRANCH  13  14
ENDBRANCH   1  13
TORSDOF 4
