REMARK  Name = ZINC02482017
REMARK  6 active torsions:
REMARK  status: ('A' for Active; 'I' for Inactive)
REMARK    1  A    between atoms: C_1  and  C_2
REMARK    2  A    between atoms: C_2  and  O_3
REMARK    3  A    between atoms: O_3  and  C_4
REMARK    4  A    between atoms: C_4  and  C_6
REMARK    5  A    between atoms: C_7  and  C_24
REMARK    6  A    between atoms: C_12  and  C_14
REMARK                            x       y       z     vdW  Elec       q    Type
REMARK                         _______ _______ _______ _____ _____    ______ ____
ROOT
ATOM      1  C   UNL     1      -3.087   3.912  -1.375  0.00  0.00    +0.078 C 
ATOM      2  C   UNL     1      -3.304   5.123  -1.930  0.00  0.00    +0.019 C 
ATOM      3  N   UNL     1      -3.084   6.271  -1.225  0.00  0.00    -0.300 N 
ATOM      4  C   UNL     1      -2.645   6.293   0.039  0.00  0.00    +0.135 C 
ATOM      5  S   UNL     1      -2.408   7.804   0.808  0.00  0.00    -0.019 S 
ATOM      6  N   UNL     1      -2.383   5.164   0.728  0.00  0.00    -0.315 N 
ATOM      7  C   UNL     1      -2.590   3.870   0.056  0.00  0.00    +0.143 C 
ATOM      8  C   UNL     1      -3.800   5.210  -3.351  0.00  0.00    +0.061 C 
ATOM      9  H   UNL     1      -3.267   7.248  -1.695  0.00  0.00    +0.154 HD
ATOM     10  H   UNL     1      -2.023   5.193   1.767  0.00  0.00    +0.149 HD
ENDROOT
BRANCH   7  11
ATOM     11  C   UNL     1      -1.281   3.124   0.071  0.00  0.00    -0.001 A 
ATOM     12  C   UNL     1      -0.088   3.822   0.024  0.00  0.00    +0.056 A 
ATOM     13  C   UNL     1       1.116   3.138   0.037  0.00  0.00    +0.167 A 
ATOM     14  C   UNL     1       1.123   1.747   0.098  0.00  0.00    +0.168 A 
ATOM     15  C   UNL     1      -0.075   1.053   0.145  0.00  0.00    +0.070 A 
ATOM     16  C   UNL     1      -1.275   1.742   0.126  0.00  0.00    +0.050 A 
ATOM     17 CL   UNL     1      -2.775   0.870   0.177  0.00  0.00    -0.083 Cl
ATOM     18  O   UNL     1       2.419   1.317   0.099  0.00  0.00    -0.453 OA
ATOM     19  C   UNL     1       3.195   2.433  -0.374  0.00  0.00    +0.466 C 
ATOM     20  O   UNL     1       2.408   3.580  -0.001  0.00  0.00    -0.453 OA
ENDBRANCH   7  11
BRANCH   1  21
ATOM     21  C   UNL     1      -3.315   2.722  -2.105  0.00  0.00    +0.339 C 
ATOM     22  O   UNL     1      -4.369   2.126  -1.983  0.00  0.00    -0.245 OA
BRANCH  21  23
ATOM     23  O   UNL     1      -2.365   2.249  -2.938  0.00  0.00    -0.462 OA
BRANCH  23  25
ATOM     24  C   UNL     1      -1.557   0.795  -4.691  0.00  0.00    +0.048 C 
ATOM     25  C   UNL     1      -2.704   1.108  -3.729  0.00  0.00    +0.229 C 
ENDBRANCH  23  25
ENDBRANCH  21  23
ENDBRANCH   1  21
TORSDOF 4
