REMARK  Name = ZINC37193197
REMARK  8 active torsions:
REMARK  status: ('A' for Active; 'I' for Inactive)
REMARK    1  A    between atoms: C_1  and  C_2
REMARK    2  A    between atoms: C_5  and  S_9
REMARK    3  A    between atoms: C_6  and  N_8
REMARK    4  A    between atoms: S_9  and  C_10
REMARK    5  A    between atoms: C_10  and  C_11
REMARK    6  A    between atoms: C_14  and  O_20
REMARK    7  A    between atoms: C_15  and  N_17
REMARK    8  A    between atoms: O_20  and  C_21
REMARK                            x       y       z     vdW  Elec       q    Type
REMARK                         _______ _______ _______ _____ _____    ______ ____
ROOT
ATOM      1  C   UNL     1       0.058  -4.960  -1.801  0.00  0.00    +0.109 C 
ENDROOT
BRANCH   1   2
ATOM      2  C   UNL     1       0.077  -6.459  -1.958  0.00  0.00    -0.035 A 
ATOM      3  C   UNL     1       1.284  -7.130  -2.030  0.00  0.00    +0.008 A 
ATOM      4  C   UNL     1       1.303  -8.504  -2.174  0.00  0.00    +0.048 A 
ATOM      5  C   UNL     1       0.111  -9.210  -2.245  0.00  0.00    +0.150 A 
ATOM      6  C   UNL     1      -1.098  -8.534  -2.172  0.00  0.00    +0.168 A 
ATOM      7  C   UNL     1      -1.112  -7.161  -2.023  0.00  0.00    +0.041 A 
BRANCH   6   8
ATOM      8  N   UNL     1      -2.372  -9.284  -2.249  0.00  0.00    +0.060 N 
ATOM      9  O   UNL     1      -3.425  -8.695  -2.185  0.00  0.00    -0.126 OA
ATOM     10  O   UNL     1      -2.359 -10.487  -2.375  0.00  0.00    -0.126 OA
ENDBRANCH   6   8
BRANCH   5  11
ATOM     11  O   UNL     1       0.128 -10.562  -2.387  0.00  0.00    -0.493 OA
ATOM     12  C   UNL     1       1.409 -11.191  -2.456  0.00  0.00    +0.277 C 
ENDBRANCH   5  11
ENDBRANCH   1   2
BRANCH   1  13
ATOM     13  S   UNL     1       0.062  -4.537  -0.037  0.00  0.00    -0.119 S 
BRANCH  13  18
ATOM     14  C   UNL     1      -0.018   1.503   0.010  0.00  0.00    +0.044 C 
ATOM     15  C   UNL     1       0.002  -0.004   0.002  0.00  0.00    -0.049 A 
ATOM     16  C   UNL     1       0.006  -0.687  -1.200  0.00  0.00    +0.004 A 
ATOM     17  C   UNL     1       0.024  -2.069  -1.215  0.00  0.00    +0.017 A 
ATOM     18  C   UNL     1       0.039  -2.775  -0.021  0.00  0.00    +0.029 A 
ATOM     19  C   UNL     1       0.036  -2.086   1.192  0.00  0.00    +0.038 A 
ATOM     20  C   UNL     1       0.023  -0.700   1.197  0.00  0.00    +0.027 A 
BRANCH  19  21
ATOM     21  N   UNL     1       0.051  -2.792   2.401  0.00  0.00    -0.357 N 
ATOM     22  H   UNL     1       0.063  -3.762   2.395  0.00  0.00    +0.142 HD
ATOM     23  H   UNL     1       0.049  -2.312   3.243  0.00  0.00    +0.142 HD
ENDBRANCH  19  21
ENDBRANCH  13  18
ENDBRANCH   1  13
TORSDOF 6
