REMARK  Name = ZINC19954076
REMARK  8 active torsions:
REMARK  status: ('A' for Active; 'I' for Inactive)
REMARK    1  A    between atoms: C_1  and  C_2
REMARK    2  A    between atoms: C_2  and  C_3
REMARK    3  A    between atoms: N_7  and  C_16
REMARK    4  A    between atoms: C_10  and  N_15
REMARK    5  A    between atoms: C_16  and  C_17
REMARK    6  A    between atoms: C_17  and  C_19
REMARK    7  A    between atoms: C_17  and  O_21
REMARK    8  A    between atoms: C_19  and  O_20
REMARK                            x       y       z     vdW  Elec       q    Type
REMARK                         _______ _______ _______ _____ _____    ______ ____
ROOT
ATOM      1  C   UNL     1       2.245   4.118   0.625  0.00  0.00    +0.259 C 
ATOM      2  C   UNL     1       3.548   3.464   0.240  0.00  0.00    +0.261 C 
ATOM      3  O   UNL     1       4.558   4.128   0.146  0.00  0.00    -0.271 OA
ATOM      4  N   UNL     1       3.586   2.136   0.003  0.00  0.00    -0.263 N 
ATOM      5  C   UNL     1       2.389   1.406  -0.000  0.00  0.00    +0.080 A 
ATOM      6  C   UNL     1       2.407   0.022  -0.018  0.00  0.00    +0.050 A 
ATOM      7  C   UNL     1       1.212  -0.685  -0.015  0.00  0.00    +0.027 A 
ATOM      8  C   UNL     1       0.002  -0.004   0.002  0.00  0.00    +0.026 A 
ATOM      9  C   UNL     1      -0.017   1.378   0.010  0.00  0.00    +0.049 A 
ATOM     10  C   UNL     1       1.173   2.087   0.002  0.00  0.00    +0.143 A 
ATOM     11  O   UNL     1       1.162   3.448  -0.025  0.00  0.00    -0.478 OA
ENDROOT
BRANCH   7  12
ATOM     12  N   UNL     1       1.227  -2.084  -0.028  0.00  0.00    -0.358 N 
ATOM     13  H   UNL     1       0.281  -2.645  -0.026  0.00  0.00    +0.142 HD
ATOM     14  H   UNL     1       2.186  -2.624  -0.042  0.00  0.00    +0.142 HD
ENDBRANCH   7  12
BRANCH   1  16
ATOM     15  C   UNL     1       0.802   4.803   2.546  0.00  0.00    +0.008 C 
ATOM     16  C   UNL     1       2.060   4.032   2.141  0.00  0.00    +0.051 C 
ENDBRANCH   1  16
BRANCH   4  17
ATOM     17  C   UNL     1       4.863   1.464  -0.249  0.00  0.00    +0.147 C 
BRANCH  17  18
ATOM     18  C   UNL     1       5.160   1.480  -1.750  0.00  0.00    +0.157 C 
BRANCH  18  19
ATOM     19  O   UNL     1       5.349   2.828  -2.184  0.00  0.00    -0.388 OA
ATOM     20  H   UNL     1       5.573   3.039  -3.240  0.00  0.00    +0.210 HD
ENDBRANCH  18  19
BRANCH  18  21
ATOM     21  C   UNL     1       6.429   0.671  -2.027  0.00  0.00    +0.188 C 
BRANCH  21  22
ATOM     22  O   UNL     1       6.641   0.588  -3.438  0.00  0.00    -0.392 OA
ATOM     23  H   UNL     1       7.511   0.041  -3.832  0.00  0.00    +0.210 HD
ENDBRANCH  21  22
ENDBRANCH  18  21
ENDBRANCH  17  18
ENDBRANCH   4  17
TORSDOF 7
