REMARK  Name = ZINC44530324
REMARK  11 active torsions:
REMARK  status: ('A' for Active; 'I' for Inactive)
REMARK    1  A    between atoms: C_4  and  C_7
REMARK    2  A    between atoms: C_7  and  O_8
REMARK    3  A    between atoms: O_8  and  C_9
REMARK    4  A    between atoms: C_11  and  N_24
REMARK    5  A    between atoms: C_13  and  O_23
REMARK    6  A    between atoms: C_15  and  O_22
REMARK    7  A    between atoms: C_17  and  C_20
REMARK    8  A    between atoms: C_20  and  O_21
REMARK    9  A    between atoms: N_24  and  C_25
REMARK   10  A    between atoms: C_28  and  N_34
REMARK   11  A    between atoms: C_30  and  N_31
REMARK                            x       y       z     vdW  Elec       q    Type
REMARK                         _______ _______ _______ _____ _____    ______ ____
ROOT
ATOM      1  C   UNL     1       5.517  -2.111   2.156  0.00  0.00    +0.274 C 
ATOM      2  C   UNL     1       6.079  -1.927   3.568  0.00  0.00    +0.158 C 
ATOM      3  C   UNL     1       5.192  -2.681   4.564  0.00  0.00    +0.170 C 
ATOM      4  C   UNL     1       5.121  -4.155   4.154  0.00  0.00    +0.176 C 
ATOM      5  C   UNL     1       4.596  -4.253   2.720  0.00  0.00    +0.178 C 
ATOM      6  O   UNL     1       5.449  -3.505   1.849  0.00  0.00    -0.341 OA
ENDROOT
BRANCH   4   7
ATOM      7  O   UNL     1       4.240  -4.854   5.035  0.00  0.00    -0.387 OA
ATOM      8  H   UNL     1       4.147  -5.795   4.834  0.00  0.00    +0.210 HD
ENDBRANCH   4   7
BRANCH   3   9
ATOM      9  O   UNL     1       5.749  -2.574   5.876  0.00  0.00    -0.387 OA
ATOM     10  H   UNL     1       5.237  -3.029   6.559  0.00  0.00    +0.210 HD
ENDBRANCH   3   9
BRANCH   2  11
ATOM     11  N   UNL     1       6.095  -0.502   3.906  0.00  0.00    -0.332 N 
ATOM     12  H   UNL     1       5.357  -0.112   4.400  0.00  0.00    +0.147 HD
BRANCH  11  13
ATOM     13  C   UNL     1       7.175   0.295   3.518  0.00  0.00    +0.058 A 
ATOM     14  C   UNL     1       8.286  -0.282   2.916  0.00  0.00    +0.027 A 
ATOM     15  C   UNL     1       9.351   0.509   2.533  0.00  0.00    +0.034 A 
ATOM     16  C   UNL     1       9.312   1.875   2.748  0.00  0.00    +0.128 A 
ATOM     17  C   UNL     1       8.208   2.453   3.347  0.00  0.00    +0.067 A 
ATOM     18  C   UNL     1       7.137   1.668   3.728  0.00  0.00    +0.149 A 
BRANCH  18  19
ATOM     19  N   UNL     1       5.953   2.288   4.364  0.00  0.00    +0.058 N 
ATOM     20  O   UNL     1       4.845   1.877   4.109  0.00  0.00    -0.126 OA
ATOM     21  O   UNL     1       6.094   3.206   5.138  0.00  0.00    -0.126 OA
ENDBRANCH  18  19
BRANCH  16  22
ATOM     22  N   UNL     1      10.456   2.720   2.337  0.00  0.00    +0.056 N 
ATOM     23  O   UNL     1      11.422   2.216   1.813  0.00  0.00    -0.126 OA
ATOM     24  O   UNL     1      10.423   3.914   2.524  0.00  0.00    -0.126 OA
ENDBRANCH  16  22
ENDBRANCH  11  13
ENDBRANCH   2  11
BRANCH   1  25
ATOM     25  O   UNL     1       4.207  -1.544   2.086  0.00  0.00    -0.345 OA
BRANCH  25  26
ATOM     26  C   UNL     1       3.634  -1.562   0.777  0.00  0.00    +0.198 C 
BRANCH  26  30
ATOM     27  C   UNL     1      -0.258   0.193   0.899  0.00  0.00    +0.000 A 
ATOM     28  C   UNL     1       0.849   0.984   0.656  0.00  0.00    +0.000 A 
ATOM     29  C   UNL     1       2.109   0.416   0.617  0.00  0.00    +0.006 A 
ATOM     30  C   UNL     1       2.261  -0.943   0.821  0.00  0.00    -0.022 A 
ATOM     31  C   UNL     1       1.154  -1.733   1.065  0.00  0.00    +0.006 A 
ATOM     32  C   UNL     1      -0.106  -1.166   1.103  0.00  0.00    +0.000 A 
ENDBRANCH  26  30
ENDBRANCH  25  26
ENDBRANCH   1  25
BRANCH   5  33
ATOM     33  C   UNL     1       4.579  -5.719   2.282  0.00  0.00    +0.190 C 
BRANCH  33  34
ATOM     34  O   UNL     1       3.981  -5.822   0.988  0.00  0.00    -0.392 OA
ATOM     35  H   UNL     1       3.937  -6.726   0.646  0.00  0.00    +0.210 HD
ENDBRANCH  33  34
ENDBRANCH   5  33
TORSDOF 11
