REMARK  Name = ZINC47009513
REMARK  8 active torsions:
REMARK  status: ('A' for Active; 'I' for Inactive)
REMARK    1  A    between atoms: C_1  and  C_2
REMARK    2  A    between atoms: C_8  and  O_10
REMARK    3  A    between atoms: O_10  and  C_11
REMARK    4  A    between atoms: C_11  and  C_12
REMARK    5  A    between atoms: C_12  and  N_13
REMARK    6  A    between atoms: C_14  and  C_16
REMARK    7  A    between atoms: C_16  and  N_17
REMARK    8  A    between atoms: N_24  and  C_27
REMARK                            x       y       z     vdW  Elec       q    Type
REMARK                         _______ _______ _______ _____ _____    ______ ____
ROOT
ATOM      1  N   UNL     1      -0.817  -0.408   5.147  0.00  0.00    -0.312 N 
ATOM      2  C   UNL     1      -1.647  -0.198   6.188  0.00  0.00    +0.233 C 
ATOM      3  O   UNL     1      -1.619   0.859   6.782  0.00  0.00    -0.274 OA
ATOM      4  H   UNL     1      -0.839  -1.254   4.672  0.00  0.00    +0.149 HD
ENDROOT
BRANCH   1   5
ATOM      5  C   UNL     1       0.119   0.640   4.733  0.00  0.00    +0.132 C 
BRANCH   5   6
ATOM      6  C   UNL     1       0.938   0.149   3.537  0.00  0.00    +0.179 C 
BRANCH   6   7
ATOM      7  O   UNL     1       0.073  -0.050   2.417  0.00  0.00    -0.375 OA
BRANCH   7  14
ATOM      8  C   UNL     1      -0.019   1.526   0.010  0.00  0.00    +0.010 C 
ATOM      9  C   UNL     1       0.002  -0.004   0.002  0.00  0.00    +0.015 C 
ATOM     10  C   UNL     1      -1.433  -0.534   0.013  0.00  0.00    +0.006 C 
ATOM     11  C   UNL     1      -1.413  -2.063   0.004  0.00  0.00    +0.000 C 
ATOM     12  C   UNL     1      -0.673  -2.570   1.244  0.00  0.00    +0.003 C 
ATOM     13  C   UNL     1       0.763  -2.041   1.233  0.00  0.00    +0.032 C 
ATOM     14  C   UNL     1       0.742  -0.511   1.242  0.00  0.00    +0.121 C 
ENDBRANCH   7  14
ENDBRANCH   6   7
ENDBRANCH   5   6
ENDBRANCH   1   5
BRANCH   2  15
ATOM     15  C   UNL     1      -2.609  -1.277   6.615  0.00  0.00    +0.222 C 
BRANCH  15  16
ATOM     16  N   UNL     1      -3.393  -0.807   7.759  0.00  0.00    -0.283 N 
ATOM     17  C   UNL     1      -3.049  -0.957   9.100  0.00  0.00    +0.070 A 
ATOM     18  C   UNL     1      -1.967  -1.537   9.746  0.00  0.00    +0.028 A 
ATOM     19  C   UNL     1      -1.904  -1.529  11.125  0.00  0.00    +0.002 A 
ATOM     20  C   UNL     1      -2.917  -0.945  11.867  0.00  0.00    +0.002 A 
ATOM     21  C   UNL     1      -3.999  -0.366  11.233  0.00  0.00    +0.028 A 
ATOM     22  C   UNL     1      -4.070  -0.367   9.848  0.00  0.00    +0.070 A 
ATOM     23  N   UNL     1      -5.004   0.122   8.938  0.00  0.00    -0.295 N 
ATOM     24  C   UNL     1      -4.567  -0.151   7.694  0.00  0.00    +0.330 A 
ATOM     25  O   UNL     1      -5.148   0.146   6.667  0.00  0.00    -0.246 OA
ATOM     26  C   UNL     1      -6.246   0.821   9.277  0.00  0.00    +0.154 C 
ENDBRANCH  15  16
ENDBRANCH   2  15
TORSDOF 6
