REMARK  Name = ZINC01904239
REMARK  6 active torsions:
REMARK  status: ('A' for Active; 'I' for Inactive)
REMARK    1  A    between atoms: C_1  and  C_2
REMARK    2  A    between atoms: C_7  and  S_15
REMARK    3  A    between atoms: S_15  and  C_16
REMARK    4  A    between atoms: C_16  and  C_17
REMARK    5  A    between atoms: N_19  and  C_20
REMARK    6  A    between atoms: C_21  and  C_29
REMARK                            x       y       z     vdW  Elec       q    Type
REMARK                         _______ _______ _______ _____ _____    ______ ____
ROOT
ATOM      1  C   UNL     1      -0.742   1.585  -1.213  0.00  0.00    +0.228 C 
ATOM      2  O   UNL     1      -1.736   2.268  -1.088  0.00  0.00    -0.275 OA
ATOM      3  N   UNL     1      -0.288   1.272  -2.443  0.00  0.00    -0.279 N 
ATOM      4  H   UNL     1       0.507   0.726  -2.543  0.00  0.00    +0.155 HD
ENDROOT
BRANCH   3   5
ATOM      5  C   UNL     1      -0.959   1.732  -3.566  0.00  0.00    +0.084 A 
ATOM      6  C   UNL     1      -0.647   1.523  -4.902  0.00  0.00    +0.068 A 
ATOM      7  C   UNL     1      -1.523   2.118  -5.897  0.00  0.00    -0.023 A 
ATOM      8  C   UNL     1      -2.558   2.829  -5.401  0.00  0.00    -0.004 A 
ATOM      9  S   UNL     1      -2.386   2.712  -3.643  0.00  0.00    -0.077 S 
ATOM     10  C   UNL     1      -3.612   3.554  -6.180  0.00  0.00    +0.043 C 
ATOM     11  C   UNL     1      -3.135   3.685  -7.634  0.00  0.00    +0.005 C 
ATOM     12  C   UNL     1      -2.628   2.321  -8.111  0.00  0.00    +0.005 C 
ATOM     13  C   UNL     1      -1.318   1.975  -7.401  0.00  0.00    +0.037 C 
BRANCH   6  14
ATOM     14  C   UNL     1       0.521   0.728  -5.295  0.00  0.00    +0.244 C 
ATOM     15  O   UNL     1       0.412  -0.473  -5.461  0.00  0.00    -0.270 OA
ATOM     16  N   UNL     1       1.715   1.327  -5.473  0.00  0.00    -0.325 N 
ATOM     17  H   UNL     1       1.802   2.284  -5.340  0.00  0.00    +0.145 HD
ATOM     18  H   UNL     1       2.487   0.801  -5.732  0.00  0.00    +0.145 HD
ENDBRANCH   6  14
ENDBRANCH   3   5
BRANCH   1  19
ATOM     19  C   UNL     1      -0.013   1.086   0.008  0.00  0.00    +0.173 C 
BRANCH  19  20
ATOM     20  S   UNL     1      -0.860   1.669   1.497  0.00  0.00    -0.076 S 
BRANCH  20  27
ATOM     21  C   UNL     1       0.452   0.801   8.367  0.00  0.00    +0.044 C 
ATOM     22  C   UNL     1       0.305   0.894   6.870  0.00  0.00    -0.038 A 
ATOM     23  C   UNL     1       1.186   0.271   6.055  0.00  0.00    +0.052 A 
ATOM     24  C   UNL     1       1.050   0.362   4.650  0.00  0.00    +0.162 A 
ATOM     25  N   UNL     1       1.763  -0.129   3.653  0.00  0.00    -0.129 NA
ATOM     26  N   UNL     1       1.245   0.225   2.530  0.00  0.00    -0.122 NA
ATOM     27  C   UNL     1       0.174   0.961   2.735  0.00  0.00    +0.197 A 
ATOM     28  N   UNL     1       0.017   1.077   4.085  0.00  0.00    -0.270 N 
ATOM     29  C   UNL     1      -0.914   1.726   4.878  0.00  0.00    +0.058 A 
ATOM     30  C   UNL     1      -0.800   1.655   6.279  0.00  0.00    +0.002 A 
ATOM     31  C   UNL     1      -1.736   2.308   7.085  0.00  0.00    +0.010 A 
ATOM     32  C   UNL     1      -2.764   3.016   6.502  0.00  0.00    +0.001 A 
ATOM     33  C   UNL     1      -2.873   3.084   5.121  0.00  0.00    +0.002 A 
ATOM     34  C   UNL     1      -1.957   2.445   4.311  0.00  0.00    +0.027 A 
ENDBRANCH  20  27
ENDBRANCH  19  20
ENDBRANCH   1  19
TORSDOF 5
