REMARK  Name = ZINC13718421
REMARK  8 active torsions:
REMARK  status: ('A' for Active; 'I' for Inactive)
REMARK    1  A    between atoms: C_3  and  N_10
REMARK    2  A    between atoms: C_6  and  C_7
REMARK    3  A    between atoms: C_7  and  C_8
REMARK    4  A    between atoms: C_8  and  O_9
REMARK    5  A    between atoms: C_11  and  C_13
REMARK    6  A    between atoms: C_13  and  C_14
REMARK    7  A    between atoms: N_18  and  S_19
REMARK    8  A    between atoms: S_19  and  C_22
REMARK                            x       y       z     vdW  Elec       q    Type
REMARK                         _______ _______ _______ _____ _____    ______ ____
ROOT
ATOM      1  C   UNL     1       7.204   1.279   0.255  0.00  0.00    +0.033 A 
ATOM      2  C   UNL     1       7.871   0.944  -0.850  0.00  0.00    +0.070 A 
ATOM      3  S   UNL     1       9.103  -0.183  -0.217  0.00  0.00    -0.057 S 
ATOM      4  C   UNL     1       8.629  -0.123   1.504  0.00  0.00    +0.192 A 
ATOM      5  N   UNL     1       9.151  -0.745   2.532  0.00  0.00    -0.103 NA
ATOM      6  N   UNL     1       7.570   0.758   1.461  0.00  0.00    -0.336 N 
ATOM      7  H   UNL     1       7.093   1.000   2.271  0.00  0.00    +0.168 HD
ENDROOT
BRANCH   5   8
ATOM      8  S   UNL     1      10.442  -1.759   2.317  0.00  0.00    +0.101 S 
ATOM      9  O   UNL     1       9.973  -2.855   1.543  0.00  0.00    -0.146 OA
ATOM     10  O   UNL     1      11.533  -0.947   1.905  0.00  0.00    -0.146 OA
BRANCH   8  11
ATOM     11  C   UNL     1      10.866  -2.406   3.901  0.00  0.00    +0.113 A 
ATOM     12  C   UNL     1      11.777  -1.739   4.698  0.00  0.00    +0.030 A 
ATOM     13  C   UNL     1      12.110  -2.245   5.940  0.00  0.00    +0.022 A 
ATOM     14  C   UNL     1      11.531  -3.420   6.386  0.00  0.00    +0.041 A 
ATOM     15  C   UNL     1      10.618  -4.087   5.587  0.00  0.00    +0.022 A 
ATOM     16  C   UNL     1      10.282  -3.576   4.348  0.00  0.00    +0.030 A 
ATOM     17 CL   UNL     1      11.948  -4.057   7.946  0.00  0.00    -0.084 Cl
ENDBRANCH   8  11
ENDBRANCH   5   8
BRANCH   1  18
ATOM     18  C   UNL     1       6.047   2.241   0.171  0.00  0.00    +0.149 C 
BRANCH  18  20
ATOM     19  N   UNL     1       3.584   2.123  -0.021  0.00  0.00    -0.285 N 
ATOM     20  C   UNL     1       4.758   1.467   0.066  0.00  0.00    +0.223 C 
ATOM     21  O   UNL     1       4.777   0.255   0.060  0.00  0.00    -0.275 OA
ATOM     22  H   UNL     1       3.573   3.091  -0.093  0.00  0.00    +0.155 HD
BRANCH  19  25
ATOM     23  C   UNL     1       1.084  -0.460   0.750  0.00  0.00    +0.005 A 
ATOM     24  C   UNL     1       2.273   0.242   0.738  0.00  0.00    +0.023 A 
ATOM     25  C   UNL     1       2.381   1.409  -0.007  0.00  0.00    +0.033 A 
ATOM     26  C   UNL     1       1.292   1.866  -0.738  0.00  0.00    +0.023 A 
ATOM     27  C   UNL     1       0.105   1.159  -0.722  0.00  0.00    +0.005 A 
ATOM     28  C   UNL     1       0.001  -0.002   0.021  0.00  0.00    -0.045 A 
BRANCH  28  29
ATOM     29  C   UNL     1      -1.295  -0.771   0.036  0.00  0.00    +0.063 C 
BRANCH  29  30
ATOM     30  C   UNL     1      -2.175  -0.264   1.180  0.00  0.00    +0.160 C 
BRANCH  30  31
ATOM     31  O   UNL     1      -3.404  -0.993   1.195  0.00  0.00    -0.395 OA
ATOM     32  H   UNL     1      -4.013  -0.723   1.896  0.00  0.00    +0.209 HD
ENDBRANCH  30  31
ENDBRANCH  29  30
ENDBRANCH  28  29
ENDBRANCH  19  25
ENDBRANCH  18  20
ENDBRANCH   1  18
TORSDOF 8
