REMARK  Name = ZINC40723218
REMARK  6 active torsions:
REMARK  status: ('A' for Active; 'I' for Inactive)
REMARK    1  A    between atoms: C_1  and  C_2
REMARK    2  A    between atoms: C_2  and  N_3
REMARK    3  A    between atoms: N_3  and  C_4
REMARK    4  A    between atoms: C_4  and  C_5
REMARK    5  A    between atoms: C_7  and  N_20
REMARK    6  A    between atoms: C_8  and  N_12
REMARK                            x       y       z     vdW  Elec       q    Type
REMARK                         _______ _______ _______ _____ _____    ______ ____
ROOT
ATOM      1  N   UNL     1      -1.334  -0.505   0.005  0.00  0.00    -0.314 N 
ATOM      2  C   UNL     1      -1.984  -0.738   1.211  0.00  0.00    +0.147 A 
ATOM      3  C   UNL     1      -3.254  -1.318   1.231  0.00  0.00    +0.106 A 
ATOM      4  C   UNL     1      -3.862  -1.530   2.470  0.00  0.00    +0.150 A 
ATOM      5  N   UNL     1      -3.213  -1.173   3.576  0.00  0.00    -0.219 NA
ATOM      6  C   UNL     1      -2.015  -0.628   3.512  0.00  0.00    +0.225 A 
ATOM      7  N   UNL     1      -1.404  -0.415   2.364  0.00  0.00    -0.219 NA
ENDROOT
BRANCH   4   8
ATOM      8  N   UNL     1      -5.127  -2.104   2.547  0.00  0.00    -0.283 N 
ATOM      9  C   UNL     1      -5.677  -2.411   3.788  0.00  0.00    +0.124 A 
ATOM     10  C   UNL     1      -6.893  -3.083   3.856  0.00  0.00    +0.045 A 
ATOM     11  C   UNL     1      -7.429  -3.381   5.095  0.00  0.00    +0.020 A 
ATOM     12  C   UNL     1      -6.727  -2.996   6.231  0.00  0.00    +0.036 A 
ATOM     13  C   UNL     1      -5.525  -2.332   6.090  0.00  0.00    +0.128 A 
ATOM     14  N   UNL     1      -5.036  -2.064   4.893  0.00  0.00    -0.239 NA
ATOM     15 BR   UNL     1      -7.412  -3.377   7.952  0.00  0.00    -0.049 Br
ATOM     16  H   UNL     1      -5.625  -2.291   1.736  0.00  0.00    +0.155 HD
ENDBRANCH   4   8
BRANCH   3  17
ATOM     17  N   UNL     1      -3.902  -1.679   0.039  0.00  0.00    -0.353 N 
ATOM     18  H   UNL     1      -3.438  -1.596  -0.809  0.00  0.00    +0.143 HD
ATOM     19  H   UNL     1      -4.813  -2.011   0.063  0.00  0.00    +0.143 HD
ENDBRANCH   3  17
BRANCH   1  21
ATOM     20  C   UNL     1      -2.626   0.850  -1.569  0.00  0.00    +0.024 C 
ATOM     21  C   UNL     1      -1.417   0.812  -0.631  0.00  0.00    +0.103 C 
ENDBRANCH   1  21
BRANCH   1  22
ATOM     22  C   UNL     1      -0.565  -1.578  -0.631  0.00  0.00    +0.103 C 
ATOM     23  C   UNL     1       0.907  -1.456  -0.232  0.00  0.00    +0.024 C 
ENDBRANCH   1  22
TORSDOF 4
