REMARK  Name = ZINC38599181
REMARK  2 active torsions:
REMARK  status: ('A' for Active; 'I' for Inactive)
REMARK    1  A    between atoms: C_1  and  C_2
REMARK    2  A    between atoms: C_4  and  C_25
REMARK                            x       y       z     vdW  Elec       q    Type
REMARK                         _______ _______ _______ _____ _____    ______ ____
ROOT
ATOM      1  C   UNL     1       0.048   1.172  -0.623  0.00  0.00    +0.062 C 
ATOM      2  C   UNL     1      -0.108  -0.326  -0.556  0.00  0.00    +0.023 C 
ATOM      3  C   UNL     1      -1.206  -0.936  -0.190  0.00  0.00    +0.005 C 
ATOM      4  C   UNL     1      -2.506  -0.309   0.291  0.00  0.00    +0.109 C 
ATOM      5  S   UNL     1      -3.850  -1.476  -0.104  0.00  0.00    -0.139 S 
ATOM      6  C   UNL     1      -3.723  -2.771   1.147  0.00  0.00    +0.165 C 
ATOM      7  C   UNL     1      -2.379  -3.100   1.619  0.00  0.00    +0.225 C 
ATOM      8  O   UNL     1      -2.340  -3.549   2.745  0.00  0.00    -0.275 OA
ATOM      9  N   UNL     1      -1.205  -2.995   1.037  0.00  0.00    -0.291 N 
ATOM     10  C   UNL     1      -0.970  -2.424  -0.282  0.00  0.00    +0.210 C 
ATOM     11  N   UNL     1       0.445  -2.543  -0.663  0.00  0.00    -0.213 N 
ATOM     12  N   UNL     1       0.890  -1.229  -0.880  0.00  0.00    -0.265 N 
ATOM     13  C   UNL     1       1.164  -3.678  -0.784  0.00  0.00    +0.150 C 
ATOM     14  N   UNL     1       0.621  -4.861  -0.560  0.00  0.00    -0.221 NA
ATOM     15  C   UNL     1       1.296  -6.005  -0.601  0.00  0.00    +0.225 C 
ATOM     16  N   UNL     1       2.622  -6.051  -0.554  0.00  0.00    -0.218 NA
ATOM     17  C   UNL     1       3.246  -4.878  -0.533  0.00  0.00    +0.164 C 
ATOM     18  N   UNL     1       4.351  -4.445  -0.005  0.00  0.00    -0.219 NA
ATOM     19  C   UNL     1       4.374  -3.107   0.049  0.00  0.00    +0.218 C 
ATOM     20  N   UNL     1       3.378  -2.551  -0.583  0.00  0.00    -0.253 NA
ATOM     21  C   UNL     1       2.614  -3.645  -1.185  0.00  0.00    +0.239 C 
ATOM     22  H   UNL     1      -0.434  -3.324   1.525  0.00  0.00    +0.151 HD
ATOM     23  H   UNL     1       1.771  -0.988  -1.208  0.00  0.00    +0.170 HD
ENDROOT
BRANCH   4  24
ATOM     24  C   UNL     1      -2.737   1.000  -0.418  0.00  0.00    -0.012 A 
ATOM     25  C   UNL     1      -2.526   2.193   0.248  0.00  0.00    +0.008 A 
ATOM     26  C   UNL     1      -2.737   3.394  -0.401  0.00  0.00    +0.020 A 
ATOM     27  C   UNL     1      -3.160   3.404  -1.719  0.00  0.00    +0.042 A 
ATOM     28  C   UNL     1      -3.371   2.211  -2.386  0.00  0.00    +0.040 A 
ATOM     29  C   UNL     1      -3.154   1.008  -1.737  0.00  0.00    +0.047 A 
ATOM     30 CL   UNL     1      -3.413  -0.490  -2.575  0.00  0.00    -0.083 Cl
ATOM     31 CL   UNL     1      -3.426   4.913  -2.534  0.00  0.00    -0.083 Cl
ENDBRANCH   4  24
TORSDOF 1
