REMARK  Name = ZINC48916866
REMARK  7 active torsions:
REMARK  status: ('A' for Active; 'I' for Inactive)
REMARK    1  A    between atoms: C_1  and  C_2
REMARK    2  A    between atoms: C_2  and  C_3
REMARK    3  A    between atoms: C_7  and  C_23
REMARK    4  A    between atoms: N_13  and  CA_14
REMARK    5  A    between atoms: CA_14  and  CB_16
REMARK    6  A    between atoms: CA_14  and  C_20
REMARK    7  A    between atoms: CB_16  and  CG_17
REMARK                            x       y       z     vdW  Elec       q    Type
REMARK                         _______ _______ _______ _____ _____    ______ ____
ROOT
ATOM      1  C   UNK A   0      -1.396  -0.632  -0.026  0.00  0.00    +0.103 C 
ATOM      2  C   UNK A   0      -1.261  -2.148   0.155  0.00  0.00    +0.182 C 
ATOM      3  O   UNK A   0      -2.531  -2.764  -0.069  0.00  0.00    -0.373 OA
ATOM      4  C   UNK A   0      -3.040  -2.589  -1.394  0.00  0.00    +0.133 C 
ATOM      5  C   UNK A   0      -3.266  -1.095  -1.655  0.00  0.00    +0.141 C 
ATOM      6  N   UNK A   0      -2.025  -0.374  -1.331  0.00  0.00    -0.278 N 
ATOM      7  C   UNK A   0      -1.480   0.496  -2.204  0.00  0.00    +0.303 C 
ATOM      8  O   UNK A   0      -0.402   1.004  -1.964  0.00  0.00    -0.253 OA
ATOM      9  N   ASN A   1      -2.131   0.804  -3.344  0.00  0.00    -0.285 N 
ATOM     10  C   UNK A   0      -4.366  -3.340  -1.535  0.00  0.00    +0.039 C 
ATOM     11  H   ASN A   1      -2.955   0.346  -3.570  0.00  0.00    +0.151 HD
ENDROOT
BRANCH   1  13
ATOM     12  C   UNK A   0       0.643  -0.263   1.370  0.00  0.00    +0.006 C 
ATOM     13  C   UNK A   0      -0.011   0.017   0.015  0.00  0.00    +0.021 C 
ENDBRANCH   1  13
BRANCH   9  14
ATOM     14  CA  ASN A   1      -1.593   1.830  -4.240  0.00  0.00    +0.196 C 
BRANCH  14  15
ATOM     15  C   ASN A   1      -2.053   3.190  -3.781  0.00  0.00    +0.376 C 
ATOM     16  O   ASN A   1      -1.356   4.169  -3.982  0.00  0.00    -0.244 OA
ATOM     17  OXT ASN A   1      -3.123   3.310  -3.208  0.00  0.00    -0.244 OA
ENDBRANCH  14  15
BRANCH  14  18
ATOM     18  CB  ASN A   1      -2.093   1.577  -5.664  0.00  0.00    +0.129 C 
BRANCH  18  19
ATOM     19  CG  ASN A   1      -1.532   0.272  -6.168  0.00  0.00    +0.213 C 
ATOM     20  OD1 ASN A   1      -0.803  -0.389  -5.459  0.00  0.00    -0.276 OA
ATOM     21  ND2 ASN A   1      -1.839  -0.159  -7.408  0.00  0.00    -0.329 N 
ATOM     22 HD21 ASN A   1      -2.422   0.370  -7.975  0.00  0.00    +0.145 HD
ATOM     23 HD22 ASN A   1      -1.478  -0.998  -7.733  0.00  0.00    +0.145 HD
ENDBRANCH  18  19
ENDBRANCH  14  18
ENDBRANCH   9  14
TORSDOF 5
