REMARK  Name = ZINC63985545
REMARK  12 active torsions:
REMARK  status: ('A' for Active; 'I' for Inactive)
REMARK    1  A    between atoms: C_1  and  C_2
REMARK    2  A    between atoms: C_3  and  C_8
REMARK    3  A    between atoms: C_4  and  C_7
REMARK    4  A    between atoms: C_8  and  O_9
REMARK    5  A    between atoms: O_9  and  C_10
REMARK    6  A    between atoms: N_17  and  C_19
REMARK    7  A    between atoms: C_19  and  C_20
REMARK    8  A    between atoms: C_20  and  C_21
REMARK    9  A    between atoms: C_20  and  C_22
REMARK   10  A    between atoms: C_23  and  C_25
REMARK   11  A    between atoms: C_25  and  C_26
REMARK   12  A    between atoms: C_26  and  C_27
REMARK                            x       y       z     vdW  Elec       q    Type
REMARK                         _______ _______ _______ _____ _____    ______ ____
ROOT
ATOM      1  C   UNL     1       1.438   0.273  -4.381  0.00  0.00    +0.153 C 
ATOM      2  C   UNL     1       1.449   1.797  -4.405  0.00  0.00    +0.141 C 
ATOM      3  N   UNL     1       1.483   2.311  -5.772  0.00  0.00    -0.290 N 
ATOM      4  C   UNL     1       2.627   2.025  -6.644  0.00  0.00    +0.203 C 
ATOM      5  C   UNL     1       2.447   0.647  -7.245  0.00  0.00    +0.233 C 
ATOM      6  O   UNL     1       2.233   0.520  -8.432  0.00  0.00    -0.274 OA
ATOM      7  N   UNL     1       2.527  -0.431  -6.450  0.00  0.00    -0.297 N 
ATOM      8  C   UNL     1       2.725  -0.272  -5.003  0.00  0.00    +0.141 C 
ATOM      9  C   UNL     1       0.456   3.051  -6.235  0.00  0.00    +0.216 C 
ATOM     10  O   UNL     1      -0.492   3.289  -5.517  0.00  0.00    -0.276 OA
ENDROOT
BRANCH   1  11
ATOM     11  O   UNL     1       1.338  -0.179  -3.029  0.00  0.00    -0.369 OA
BRANCH  11  12
ATOM     12  C   UNL     1      -0.005  -0.348  -2.571  0.00  0.00    +0.200 C 
BRANCH  12  15
ATOM     13  C   UNL     1      -0.018   1.503   0.010  0.00  0.00    +0.069 C 
ATOM     14  C   UNL     1       0.002  -0.004   0.002  0.00  0.00    +0.086 A 
ATOM     15  C   UNL     1       0.008  -0.824  -1.141  0.00  0.00    +0.042 A 
ATOM     16  C   UNL     1       0.027  -2.108  -0.735  0.00  0.00    +0.140 A 
ATOM     17  O   UNL     1       0.034  -2.119   0.606  0.00  0.00    -0.359 OA
ATOM     18  N   UNL     1       0.023  -0.775   1.052  0.00  0.00    -0.083 NA
ATOM     19  C   UNL     1       0.039  -3.320  -1.631  0.00  0.00    +0.089 C 
ENDBRANCH  12  15
ENDBRANCH  11  12
ENDBRANCH   1  11
BRANCH   7  20
ATOM     20  C   UNL     1       2.417  -1.772  -7.029  0.00  0.00    +0.111 C 
BRANCH  20  21
ATOM     21  C   UNL     1       3.808  -2.274  -7.421  0.00  0.00    +0.000 C 
ATOM     22  C   UNL     1       4.663  -2.445  -6.164  0.00  0.00    +0.009 C 
ATOM     23  C   UNL     1       3.682  -3.619  -8.139  0.00  0.00    +0.009 C 
ENDBRANCH  20  21
ENDBRANCH   7  20
BRANCH   9  24
ATOM     24  C   UNL     1       0.486   3.584  -7.644  0.00  0.00    +0.100 C 
BRANCH  24  25
ATOM     25  C   UNL     1      -0.789   4.385  -7.914  0.00  0.00    +0.056 C 
BRANCH  25  26
ATOM     26  C   UNL     1      -0.759   4.925  -9.345  0.00  0.00    +0.174 C 
ATOM     27  N   UNL     1       0.366   5.855  -9.509  0.00  0.00    -0.363 N 
ATOM     28  C   UNL     1      -0.130   7.014  -9.834  0.00  0.00    +0.060 A 
ATOM     29  C   UNL     1       0.484   8.317 -10.125  0.00  0.00    +0.027 A 
ATOM     30  C   UNL     1      -0.302   9.366 -10.441  0.00  0.00    +0.002 A 
ATOM     31  C   UNL     1      -1.703   9.272 -10.506  0.00  0.00    +0.002 A 
ATOM     32  C   UNL     1      -2.367   8.125 -10.257  0.00  0.00    +0.027 A 
ATOM     33  C   UNL     1      -1.614   6.914  -9.904  0.00  0.00    +0.060 A 
ATOM     34  N   UNL     1      -1.978   5.697  -9.619  0.00  0.00    -0.363 N 
ATOM     35  H   UNL     1       1.306   5.645  -9.396  0.00  0.00    +0.162 HD
ATOM     36  H   UNL     1      -2.887   5.362  -9.592  0.00  0.00    +0.162 HD
ENDBRANCH  25  26
ENDBRANCH  24  25
ENDBRANCH   9  24
TORSDOF 8
