REMARK  Name = ZINC22577402
REMARK  5 active torsions:
REMARK  status: ('A' for Active; 'I' for Inactive)
REMARK    1  A    between atoms: C_1  and  N_2
REMARK    2  A    between atoms: N_5  and  C_8
REMARK    3  A    between atoms: C_8  and  C_10
REMARK    4  A    between atoms: C_8  and  C_15
REMARK    5  A    between atoms: C_21  and  C_23
REMARK                            x       y       z     vdW  Elec       q    Type
REMARK                         _______ _______ _______ _____ _____    ______ ____
ROOT
ATOM      1  C   UNL     1      -8.386   0.319   0.039  0.00  0.00    +0.136 C 
ENDROOT
BRANCH   1   2
ATOM      2  C   UNL     1      -6.885   0.251   0.157  0.00  0.00    +0.081 A 
ATOM      3  C   UNL     1      -5.996   1.250   0.207  0.00  0.00    +0.285 A 
ATOM      4  N   UNL     1      -4.652   0.988   0.317  0.00  0.00    -0.169 N 
ATOM      5  C   UNL     1      -4.276  -0.326   0.372  0.00  0.00    +0.200 A 
ATOM      6  S   UNL     1      -5.827  -1.185   0.268  0.00  0.00    -0.047 S 
ATOM      7  N   UNL     1      -2.978  -0.408   0.469  0.00  0.00    -0.197 NA
ATOM      8  C   UNL     1      -2.456   0.826   0.492  0.00  0.00    +0.218 A 
ATOM      9  N   UNL     1      -3.430   1.706   0.398  0.00  0.00    -0.138 NA
ATOM     10  O   UNL     1      -6.428   2.539   0.147  0.00  0.00    -0.265 OA
BRANCH   8  11
ATOM     11  C   UNL     1      -1.018   1.147   0.598  0.00  0.00    +0.173 A 
ATOM     12  C   UNL     1      -0.004   0.246   0.695  0.00  0.00    +0.053 A 
ATOM     13  C   UNL     1       1.192   0.988   0.767  0.00  0.00    +0.042 A 
ATOM     14  C   UNL     1       0.853   2.291   0.718  0.00  0.00    +0.196 A 
ATOM     15  O   UNL     1      -0.483   2.383   0.619  0.00  0.00    -0.460 OA
ENDBRANCH   8  11
ENDBRANCH   1   2
BRANCH   1  20
ATOM     16  C   UNL     1     -11.251  -2.173   4.220  0.00  0.00    -0.096 C 
ATOM     17  N   UNL     1     -10.641  -1.263   3.242  0.00  0.00    +0.379 N 
ATOM     18  C   UNL     1      -9.177  -1.262   3.365  0.00  0.00    -0.064 C 
ATOM     19  C   UNL     1      -8.586  -0.245   2.386  0.00  0.00    +0.067 C 
ATOM     20  N   UNL     1      -8.996  -0.591   1.018  0.00  0.00    -0.294 NA
ATOM     21  C   UNL     1     -10.460  -0.593   0.894  0.00  0.00    +0.067 C 
ATOM     22  C   UNL     1     -11.051  -1.609   1.874  0.00  0.00    -0.064 C 
ATOM     23  H   UNL     1     -11.001  -0.246   3.457  0.00  0.00    -0.082 HD
ENDBRANCH   1  20
BRANCH   1  24
ATOM     24  C   UNL     1      -8.799  -0.088  -1.351  0.00  0.00    +0.012 A 
ATOM     25  C   UNL     1      -9.229   0.688  -2.376  0.00  0.00    +0.013 A 
ATOM     26  C   UNL     1      -9.557   0.090  -3.578  0.00  0.00    +0.008 A 
ATOM     27  C   UNL     1      -9.439  -1.255  -3.697  0.00  0.00    +0.045 A 
ATOM     28  S   UNL     1      -8.841  -1.718  -2.080  0.00  0.00    -0.100 S 
ENDBRANCH   1  24
TORSDOF 4
