REMARK  Name = ZINC00197215
REMARK  3 active torsions:
REMARK  status: ('A' for Active; 'I' for Inactive)
REMARK    1  A    between atoms: C_1  and  C_2
REMARK    2  A    between atoms: C_7  and  C_9
REMARK    3  A    between atoms: C_7  and  C_10
REMARK                            x       y       z     vdW  Elec       q    Type
REMARK                         _______ _______ _______ _____ _____    ______ ____
ROOT
ATOM      1  C   UNL     1      -0.019   1.528   0.010  0.00  0.00    +0.007 C 
ATOM      2  C   UNL     1       0.002  -0.004   0.002  0.00  0.00    -0.010 C 
ATOM      3  C   UNL     1       0.721  -0.491  -1.259  0.00  0.00    +0.046 C 
ATOM      4  C   UNL     1       0.720  -2.016  -1.289  0.00  0.00    +0.101 C 
ATOM      5  C   UNL     1       1.343  -2.612  -0.041  0.00  0.00    +0.049 C 
ATOM      6  C   UNL     1       0.802  -2.031   1.258  0.00  0.00    -0.031 C 
ATOM      7  C   UNL     1       0.764  -0.506   1.227  0.00  0.00    +0.010 C 
ATOM      8  C   UNL     1      -0.594  -2.582   1.561  0.00  0.00    +0.011 C 
ATOM      9  C   UNL     1       1.737  -2.462   2.406  0.00  0.00    +0.011 C 
ATOM     10  N   UNL     1       1.467  -2.468  -2.480  0.00  0.00    -0.306 N 
ATOM     11  C   UNL     1       0.544  -2.858  -3.380  0.00  0.00    +0.154 C 
ATOM     12  S   UNL     1       0.905  -3.366  -4.974  0.00  0.00    -0.017 S 
ATOM     13  N   UNL     1      -0.692  -2.814  -2.863  0.00  0.00    -0.191 N 
ATOM     14  N   UNL     1      -0.640  -2.530  -1.523  0.00  0.00    -0.209 NA
ATOM     15  C   UNL     1      -1.858  -3.027  -3.578  0.00  0.00    +0.182 A 
ATOM     16  N   UNL     1      -3.100  -2.998  -3.154  0.00  0.00    -0.223 NA
ATOM     17  C   UNL     1      -4.151  -3.227  -3.971  0.00  0.00    +0.080 A 
ATOM     18  C   UNL     1      -5.527  -3.225  -3.645  0.00  0.00    +0.029 A 
ATOM     19  C   UNL     1      -6.474  -3.480  -4.602  0.00  0.00    +0.002 A 
ATOM     20  C   UNL     1      -6.122  -3.748  -5.917  0.00  0.00    +0.001 A 
ATOM     21  C   UNL     1      -4.786  -3.758  -6.271  0.00  0.00    +0.017 A 
ATOM     22  C   UNL     1      -3.830  -3.503  -5.319  0.00  0.00    +0.041 A 
ATOM     23  S   UNL     1      -2.056  -3.405  -5.314  0.00  0.00    -0.051 S 
ATOM     24  H   UNL     1       2.428  -2.477  -2.583  0.00  0.00    +0.150 HD
ATOM     25  H   UNL     1      -0.799  -3.381  -0.998  0.00  0.00    +0.147 HD
ENDROOT
TORSDOF 0
