REMARK  Name = ZINC39469516
REMARK  8 active torsions:
REMARK  status: ('A' for Active; 'I' for Inactive)
REMARK    1  A    between atoms: C_1  and  C_2
REMARK    2  A    between atoms: C_2  and  O_3
REMARK    3  A    between atoms: O_3  and  C_4
REMARK    4  A    between atoms: P_13  and  O_29
REMARK    5  A    between atoms: C_21  and  C_22
REMARK    6  A    between atoms: C_27  and  O_28
REMARK    7  A    between atoms: O_29  and  C_30
REMARK    8  A    between atoms: C_30  and  C_31
REMARK                            x       y       z     vdW  Elec       q    Type
REMARK                         _______ _______ _______ _____ _____    ______ ____
ROOT
ATOM      1  C   UNL     1       0.777  -1.810  -1.336  0.00  0.00    +0.124 C 
ATOM      2  C   UNL     1       0.264  -2.637  -0.425  0.00  0.00    +0.023 C 
ATOM      3  C   UNL     1       0.379  -4.130  -0.623  0.00  0.00    +0.025 C 
ATOM      4  C   UNL     1       1.772  -4.578  -0.178  0.00  0.00    +0.031 C 
ATOM      5  C   UNL     1       1.974  -6.071  -0.464  0.00  0.00    +0.100 C 
ATOM      6  C   UNL     1       3.394  -6.429  -0.008  0.00  0.00    +0.191 C 
ATOM      7  O   UNL     1       3.632  -7.832  -0.223  0.00  0.00    -0.294 OA
ATOM      8  P   UNL     1       3.306  -8.438  -1.697  0.00  0.00    +0.421 P 
ATOM      9  O   UNL     1       3.095  -9.901  -1.615  0.00  0.00    -0.239 OA
ATOM     10  N   UNL     1       1.917  -7.686  -2.177  0.00  0.00    -0.156 NA
ATOM     11  N   UNL     1       1.789  -6.341  -1.893  0.00  0.00    -0.228 NA
ATOM     12  C   UNL     1       0.453  -5.929  -2.355  0.00  0.00    +0.111 C 
ATOM     13  C   UNL     1       0.200  -4.447  -2.110  0.00  0.00    +0.035 C 
ATOM     14  C   UNL     1       1.167  -3.625  -2.920  0.00  0.00    -0.010 C 
ATOM     15  C   UNL     1       1.457  -2.365  -2.530  0.00  0.00    +0.023 C 
ATOM     16  H   UNL     1       1.219  -8.172  -2.644  0.00  0.00    +0.153 HD
ENDROOT
BRANCH  15  17
ATOM     17  C   UNL     1       2.421  -1.538  -3.295  0.00  0.00    +0.027 A 
ATOM     18  C   UNL     1       2.055  -0.994  -4.524  0.00  0.00    +0.012 A 
ATOM     19  C   UNL     1       2.957  -0.225  -5.233  0.00  0.00    +0.001 A 
ATOM     20  C   UNL     1       4.224   0.006  -4.727  0.00  0.00    +0.004 A 
ATOM     21  C   UNL     1       4.598  -0.530  -3.509  0.00  0.00    +0.046 A 
ATOM     22  C   UNL     1       3.701  -1.298  -2.784  0.00  0.00    +0.125 A 
BRANCH  22  23
ATOM     23  O   UNL     1       4.065  -1.821  -1.585  0.00  0.00    -0.506 OA
ATOM     24  H   UNL     1       4.469  -2.697  -1.644  0.00  0.00    +0.292 HD
ENDBRANCH  22  23
ENDBRANCH  15  17
BRANCH   1  25
ATOM     25  O   UNL     1       0.671  -0.465  -1.174  0.00  0.00    -0.492 OA
BRANCH  25  27
ATOM     26  C   UNL     1      -0.019   1.526   0.010  0.00  0.00    +0.048 C 
ATOM     27  C   UNL     1       0.002  -0.004   0.002  0.00  0.00    +0.225 C 
ENDBRANCH  25  27
ENDBRANCH   1  25
BRANCH   8  28
ATOM     28  O   UNL     1       4.506  -8.104  -2.716  0.00  0.00    -0.296 OA
BRANCH  28  29
ATOM     29  C   UNL     1       4.603  -8.680  -4.021  0.00  0.00    +0.168 C 
ATOM     30  C   UNL     1       5.857  -8.152  -4.720  0.00  0.00    +0.035 C 
ENDBRANCH  28  29
ENDBRANCH   8  28
TORSDOF 6
