REMARK  Name = ZINC09015432
REMARK  8 active torsions:
REMARK  status: ('A' for Active; 'I' for Inactive)
REMARK    1  A    between atoms: C_1  and  C_2
REMARK    2  A    between atoms: C_5  and  N_9
REMARK    3  A    between atoms: C_7  and  C_8
REMARK    4  A    between atoms: C_10  and  C_12
REMARK    5  A    between atoms: C_12  and  S_13
REMARK    6  A    between atoms: S_13  and  C_14
REMARK    7  A    between atoms: C_17  and  C_20
REMARK    8  A    between atoms: N_18  and  N_19
REMARK                            x       y       z     vdW  Elec       q    Type
REMARK                         _______ _______ _______ _____ _____    ______ ____
ROOT
ATOM      1  C   UNL     1      -0.356  -8.692  -2.728  0.00  0.00    +0.209 A 
ATOM      2  N   UNL     1      -0.348  -9.369  -1.601  0.00  0.00    -0.120 NA
ATOM      3  N   UNL     1      -0.437 -10.628  -1.841  0.00  0.00    -0.125 NA
ATOM      4  C   UNL     1      -0.506 -10.833  -3.138  0.00  0.00    +0.200 A 
ATOM      5  N   UNL     1      -0.462  -9.598  -3.744  0.00  0.00    -0.223 N 
ENDROOT
BRANCH   4   6
ATOM      6  C   UNL     1      -0.616 -12.138  -3.813  0.00  0.00    +0.108 A 
ATOM      7  C   UNL     1      -0.672 -13.375  -3.204  0.00  0.00    +0.004 A 
ATOM      8  C   UNL     1      -0.773 -14.338  -4.206  0.00  0.00    +0.067 A 
ATOM      9  N   UNL     1      -0.779 -13.731  -5.369  0.00  0.00    -0.178 NA
ATOM     10  N   UNL     1      -0.688 -12.351  -5.159  0.00  0.00    -0.273 N 
ATOM     11  H   UNL     1      -0.676 -11.667  -5.847  0.00  0.00    +0.189 HD
ATOM     12  C   UNL     1      -0.837 -15.715  -3.580  0.00  0.00    +0.058 C 
ATOM     13  C   UNL     1      -0.327 -15.527  -2.135  0.00  0.00    +0.011 C 
ATOM     14  C   UNL     1      -0.661 -14.048  -1.849  0.00  0.00    +0.039 C 
ENDBRANCH   4   6
BRANCH   5  15
ATOM     15  N   UNL     1      -0.513  -9.334  -5.084  0.00  0.00    -0.295 N 
ATOM     16  H   UNL     1       0.413  -9.322  -5.485  0.00  0.00    +0.163 HD
ATOM     17  H   UNL     1      -1.105  -9.997  -5.561  0.00  0.00    +0.163 HD
ENDBRANCH   5  15
BRANCH   1  18
ATOM     18  S   UNL     1      -0.255  -6.941  -2.895  0.00  0.00    -0.075 S 
BRANCH  18  19
ATOM     19  C   UNL     1      -0.134  -6.343  -1.187  0.00  0.00    +0.173 C 
BRANCH  19  21
ATOM     20  N   UNL     1       0.059  -4.170  -0.021  0.00  0.00    -0.285 N 
ATOM     21  C   UNL     1      -0.040  -4.839  -1.187  0.00  0.00    +0.227 C 
ATOM     22  O   UNL     1      -0.054  -4.230  -2.236  0.00  0.00    -0.275 OA
ATOM     23  H   UNL     1       0.147  -4.658   0.812  0.00  0.00    +0.155 HD
BRANCH  20  28
ATOM     24  C   UNL     1      -0.041   1.502   0.014  0.00  0.00    +0.044 C 
ATOM     25  C   UNL     1      -0.015  -0.004   0.004  0.00  0.00    -0.047 A 
ATOM     26  C   UNL     1      -0.752  -0.702  -0.935  0.00  0.00    +0.005 A 
ATOM     27  C   UNL     1      -0.730  -2.082  -0.946  0.00  0.00    +0.023 A 
ATOM     28  C   UNL     1       0.034  -2.771  -0.013  0.00  0.00    +0.034 A 
ATOM     29  C   UNL     1       0.773  -2.068   0.929  0.00  0.00    +0.027 A 
ATOM     30  C   UNL     1       0.751  -0.686   0.932  0.00  0.00    -0.046 A 
ATOM     31  C   UNL     1       1.557   0.078   1.950  0.00  0.00    +0.044 C 
ENDBRANCH  20  28
ENDBRANCH  19  21
ENDBRANCH  18  19
ENDBRANCH   1  18
TORSDOF 6
