REMARK  Name = ZINC38751477
REMARK  5 active torsions:
REMARK  status: ('A' for Active; 'I' for Inactive)
REMARK    1  A    between atoms: C_1  and  C_2
REMARK    2  A    between atoms: C_7  and  C_12
REMARK    3  A    between atoms: C_14  and  C_17
REMARK    4  A    between atoms: C_17  and  N_18
REMARK    5  A    between atoms: C_19  and  C_21
REMARK                            x       y       z     vdW  Elec       q    Type
REMARK                         _______ _______ _______ _____ _____    ______ ____
ROOT
ATOM      1  C   UNL     1      -3.287  -8.349   3.814  0.00  0.00    +0.163 C 
ENDROOT
BRANCH   1   4
ATOM      2  C   UNL     1      -2.443  -5.094   2.284  0.00  0.00    +0.168 A 
ATOM      3  C   UNL     1      -2.136  -6.142   3.097  0.00  0.00    +0.077 A 
ATOM      4  C   UNL     1      -3.206  -7.046   3.061  0.00  0.00    +0.101 A 
ATOM      5  N   UNL     1      -4.120  -6.567   2.263  0.00  0.00    -0.081 NA
ATOM      6  O   UNL     1      -3.661  -5.325   1.761  0.00  0.00    -0.354 OA
BRANCH   2  12
ATOM      7  C   UNL     1      -0.019   1.526   0.010  0.00  0.00    +0.052 C 
ATOM      8  C   UNL     1       0.002  -0.004   0.002  0.00  0.00    +0.175 C 
ATOM      9  C   UNL     1      -1.435  -0.572   0.076  0.00  0.00    +0.083 C 
ATOM     10  C   UNL     1      -1.241  -1.803   0.940  0.00  0.00    -0.002 A 
ATOM     11  C   UNL     1      -2.037  -2.900   1.172  0.00  0.00    +0.019 A 
ATOM     12  C   UNL     1      -1.595  -3.911   2.028  0.00  0.00    +0.020 A 
ATOM     13  C   UNL     1      -0.345  -3.795   2.641  0.00  0.00    +0.015 A 
ATOM     14  C   UNL     1       0.442  -2.692   2.404  0.00  0.00    +0.046 A 
ATOM     15  C   UNL     1       0.001  -1.679   1.553  0.00  0.00    +0.124 A 
ATOM     16  O   UNL     1       0.612  -0.512   1.201  0.00  0.00    -0.488 OA
ENDBRANCH   2  12
ENDBRANCH   1   4
BRANCH   1  17
ATOM     17  N   UNL     1      -4.007  -8.141   5.072  0.00  0.00    -0.303 N 
ATOM     18  C   UNL     1      -4.202  -9.175   5.916  0.00  0.00    +0.280 C 
ATOM     19  O   UNL     1      -3.780 -10.278   5.632  0.00  0.00    -0.267 OA
ATOM     20  H   UNL     1      -4.344  -7.260   5.299  0.00  0.00    +0.149 HD
BRANCH  18  21
ATOM     21  C   UNL     1      -4.931  -8.964   7.189  0.00  0.00    +0.193 A 
ATOM     22  C   UNL     1      -5.106 -10.022   8.019  0.00  0.00    +0.103 A 
ATOM     23  C   UNL     1      -5.846  -9.808   9.274  0.00  0.00    +0.193 A 
ATOM     24  O   UNL     1      -5.855 -10.635  10.168  0.00  0.00    -0.287 OA
ATOM     25  C   UNL     1      -6.577  -8.529   9.385  0.00  0.00    +0.064 A 
ATOM     26  C   UNL     1      -7.513  -8.309  10.394  0.00  0.00    +0.015 A 
ATOM     27  C   UNL     1      -8.172  -7.112  10.455  0.00  0.00    +0.001 A 
ATOM     28  C   UNL     1      -7.913  -6.120   9.519  0.00  0.00    +0.004 A 
ATOM     29  C   UNL     1      -6.990  -6.320   8.516  0.00  0.00    +0.047 A 
ATOM     30  C   UNL     1      -6.305  -7.528   8.436  0.00  0.00    +0.139 A 
ATOM     31  O   UNL     1      -5.384  -7.736   7.474  0.00  0.00    -0.450 OA
ENDBRANCH  18  21
ENDBRANCH   1  17
TORSDOF 4
