REMARK  Name = ZINC04524080
REMARK  6 active torsions:
REMARK  status: ('A' for Active; 'I' for Inactive)
REMARK    1  A    between atoms: C_4  and  N_26
REMARK    2  A    between atoms: C_5  and  C_7
REMARK    3  A    between atoms: C_10  and  C_12
REMARK    4  A    between atoms: N_13  and  N_14
REMARK    5  A    between atoms: C_15  and  C_17
REMARK    6  A    between atoms: C_20  and  C_24
REMARK                            x       y       z     vdW  Elec       q    Type
REMARK                         _______ _______ _______ _____ _____    ______ ____
ROOT
ATOM      1  C   UNL     1       4.554   6.403  -1.226  0.00  0.00    +0.176 C 
ATOM      2  N   UNL     1       3.991   6.989  -2.277  0.00  0.00    -0.184 NA
ENDROOT
BRANCH   1   6
ATOM      3  C   UNL     1       2.442   3.786  -0.114  0.00  0.00    +0.138 A 
ATOM      4  C   UNL     1       3.532   3.574   0.764  0.00  0.00    +0.050 A 
ATOM      5  C   UNL     1       4.477   4.506   0.477  0.00  0.00    +0.051 A 
ATOM      6  C   UNL     1       3.930   5.324  -0.616  0.00  0.00    +0.148 A 
ATOM      7  O   UNL     1       2.709   4.832  -0.915  0.00  0.00    -0.454 OA
BRANCH   3  12
ATOM      8  C   UNL     1       0.161   0.881  -0.221  0.00  0.00    +0.001 A 
ATOM      9  C   UNL     1      -1.073   1.514  -0.199  0.00  0.00    +0.002 A 
ATOM     10  C   UNL     1      -1.153   2.898  -0.139  0.00  0.00    +0.033 A 
ATOM     11  C   UNL     1      -0.005   3.656  -0.112  0.00  0.00    +0.137 A 
ATOM     12  C   UNL     1       1.250   3.018  -0.141  0.00  0.00    +0.047 A 
ATOM     13  C   UNL     1       1.314   1.613  -0.196  0.00  0.00    +0.014 A 
BRANCH  11  14
ATOM     14  N   UNL     1      -0.089   5.132  -0.054  0.00  0.00    +0.057 N 
ATOM     15  O   UNL     1      -1.265   5.725  -0.028  0.00  0.00    -0.126 OA
ATOM     16  O   UNL     1       1.012   5.854  -0.028  0.00  0.00    -0.126 OA
ENDBRANCH  11  14
ENDBRANCH   3  12
ENDBRANCH   1   6
BRANCH   2  17
ATOM     17  N   UNL     1       2.803   6.648  -2.645  0.00  0.00    -0.203 N 
ATOM     18  C   UNL     1       2.277   7.154  -3.779  0.00  0.00    +0.266 C 
ATOM     19  O   UNL     1       2.923   7.931  -4.454  0.00  0.00    -0.268 OA
ATOM     20  H   UNL     1       2.287   6.029  -2.106  0.00  0.00    +0.178 HD
BRANCH  18  21
ATOM     21  C   UNL     1       0.917   6.765  -4.199  0.00  0.00    +0.074 A 
ATOM     22  C   UNL     1       0.173   5.871  -3.423  0.00  0.00    +0.017 A 
ATOM     23  C   UNL     1      -1.094   5.509  -3.815  0.00  0.00    +0.020 A 
ATOM     24  C   UNL     1      -1.641   6.033  -4.989  0.00  0.00    +0.055 A 
ATOM     25  C   UNL     1      -0.902   6.925  -5.767  0.00  0.00    +0.058 A 
ATOM     26  C   UNL     1       0.369   7.294  -5.373  0.00  0.00    +0.137 A 
ATOM     27  F   UNL     1       1.084   8.162  -6.123  0.00  0.00    -0.205 F 
BRANCH  24  28
ATOM     28  C   UNL     1      -2.962   5.655  -5.395  0.00  0.00    +0.099 C 
ATOM     29  N   UNL     1      -4.009   5.355  -5.716  0.00  0.00    -0.191 NA
ENDBRANCH  24  28
ENDBRANCH  18  21
ENDBRANCH   2  17
TORSDOF 6
