REMARK  Name = ZINC46394626
REMARK  10 active torsions:
REMARK  status: ('A' for Active; 'I' for Inactive)
REMARK    1  A    between atoms: C_1  and  C_2
REMARK    2  A    between atoms: N_7  and  C_9
REMARK    3  A    between atoms: C_9  and  C_10
REMARK    4  A    between atoms: C_10  and  C_11
REMARK    5  A    between atoms: C_11  and  N_12
REMARK    6  A    between atoms: N_15  and  N_16
REMARK    7  A    between atoms: C_17  and  C_19
REMARK    8  A    between atoms: C_19  and  C_20
REMARK    9  A    between atoms: C_20  and  S_21
REMARK   10  A    between atoms: S_21  and  C_22
REMARK                            x       y       z     vdW  Elec       q    Type
REMARK                         _______ _______ _______ _____ _____    ______ ____
ROOT
ATOM      1  N   UNL     1       1.902  -5.954   3.854  0.00  0.00    -0.298 N 
ATOM      2  C   UNL     1       2.430  -6.622   4.899  0.00  0.00    +0.316 C 
ATOM      3  O   UNL     1       2.980  -6.012   5.795  0.00  0.00    -0.251 OA
ATOM      4  N   UNL     1       2.347  -7.966   4.950  0.00  0.00    -0.218 N 
ATOM      5  H   UNL     1       1.463  -6.441   3.139  0.00  0.00    +0.150 HD
ATOM      6  H   UNL     1       2.727  -8.447   5.702  0.00  0.00    +0.174 HD
ENDROOT
BRANCH   4   7
ATOM      7  N   UNL     1       1.712  -8.669   3.918  0.00  0.00    -0.233 N 
ATOM      8  C   UNL     1       1.630 -10.013   3.969  0.00  0.00    +0.230 C 
ATOM      9  O   UNL     1       2.105 -10.615   4.909  0.00  0.00    -0.274 OA
ATOM     10  H   UNL     1       1.333  -8.188   3.166  0.00  0.00    +0.173 HD
BRANCH   8  11
ATOM     11  C   UNL     1       0.948 -10.769   2.858  0.00  0.00    +0.108 C 
BRANCH  11  12
ATOM     12  C   UNL     1       0.992 -12.269   3.160  0.00  0.00    +0.083 C 
BRANCH  12  13
ATOM     13  S   UNL     1       0.170 -13.179   1.823  0.00  0.00    -0.125 S 
BRANCH  13  14
ATOM     14  C   UNL     1       0.303 -14.867   2.312  0.00  0.00    +0.008 A 
ATOM     15  C   UNL     1       0.934 -15.198   3.504  0.00  0.00    +0.017 A 
ATOM     16  C   UNL     1       1.037 -16.521   3.885  0.00  0.00    +0.039 A 
ATOM     17  C   UNL     1       0.511 -17.518   3.080  0.00  0.00    +0.123 A 
ATOM     18  C   UNL     1      -0.119 -17.190   1.891  0.00  0.00    +0.039 A 
ATOM     19  C   UNL     1      -0.228 -15.867   1.508  0.00  0.00    +0.017 A 
ATOM     20  F   UNL     1       0.613 -18.812   3.454  0.00  0.00    -0.205 F 
ENDBRANCH  13  14
ENDBRANCH  12  13
ENDBRANCH  11  12
ENDBRANCH   8  11
ENDBRANCH   4   7
BRANCH   1  21
ATOM     21  C   UNL     1       1.992  -4.493   3.798  0.00  0.00    +0.104 C 
BRANCH  21  22
ATOM     22  C   UNL     1       1.320  -3.989   2.519  0.00  0.00    +0.000 C 
BRANCH  22  23
ATOM     23  C   UNL     1       1.413  -2.463   2.461  0.00  0.00    -0.077 C 
BRANCH  23  29
ATOM     24  C   UNL     1      -0.019   1.526   0.010  0.00  0.00    +0.005 C 
ATOM     25  C   UNL     1       0.002  -0.004   0.002  0.00  0.00    -0.031 C 
ATOM     26  C   UNL     1       0.721  -0.499  -1.257  0.00  0.00    -0.001 C 
ATOM     27  C   UNL     1       0.805  -2.027  -1.217  0.00  0.00    -0.018 C 
ATOM     28  C   UNL     1       1.518  -2.460   0.066  0.00  0.00    -0.079 C 
ATOM     29  N   UNL     1       0.768  -1.979   1.233  0.00  0.00    +0.380 N 
ATOM     30  C   UNL     1       0.744  -0.512   1.240  0.00  0.00    -0.076 C 
ATOM     31  H   UNL     1      -0.177  -2.330   1.192  0.00  0.00    -0.082 HD
ENDBRANCH  23  29
ENDBRANCH  22  23
ENDBRANCH  21  22
ENDBRANCH   1  21
TORSDOF 9
