REMARK  Name = ZINC11073839
REMARK  10 active torsions:
REMARK  status: ('A' for Active; 'I' for Inactive)
REMARK    1  A    between atoms: C_1  and  C_2
REMARK    2  A    between atoms: C_2  and  O_3
REMARK    3  A    between atoms: O_3  and  C_4
REMARK    4  A    between atoms: C_4  and  C_6
REMARK    5  A    between atoms: C_7  and  C_8
REMARK    6  A    between atoms: C_11  and  N_14
REMARK    7  A    between atoms: C_15  and  C_17
REMARK    8  A    between atoms: C_17  and  N_18
REMARK    9  A    between atoms: C_21  and  C_25
REMARK   10  A    between atoms: C_21  and  C_26
REMARK                            x       y       z     vdW  Elec       q    Type
REMARK                         _______ _______ _______ _____ _____    ______ ____
ROOT
ATOM      1  N   UNL     1      -1.027   1.944   1.036  0.00  0.00    -0.215 N 
ATOM      2  C   UNL     1      -2.348   2.182   0.915  0.00  0.00    +0.251 C 
ATOM      3  O   UNL     1      -3.025   2.064  -0.084  0.00  0.00    -0.272 OA
ATOM      4  C   UNL     1      -2.812   2.626   2.288  0.00  0.00    +0.135 C 
ATOM      5  N   UNL     1      -1.581   2.589   3.098  0.00  0.00    -0.281 N 
ATOM      6  C   UNL     1      -0.595   2.180   2.280  0.00  0.00    +0.310 C 
ATOM      7  O   UNL     1       0.560   2.040   2.632  0.00  0.00    -0.252 OA
ATOM      8  C   UNL     1      -3.855   1.658   2.851  0.00  0.00    +0.047 C 
ATOM      9  H   UNL     1      -1.499   2.817   4.037  0.00  0.00    +0.152 HD
ENDROOT
BRANCH   4  10
ATOM     10  C   UNL     1      -3.366   4.025   2.229  0.00  0.00    -0.012 A 
ATOM     11  C   UNL     1      -4.051   4.448   1.105  0.00  0.00    +0.010 A 
ATOM     12  C   UNL     1      -4.563   5.732   1.043  0.00  0.00    +0.050 A 
ATOM     13  C   UNL     1      -4.389   6.592   2.114  0.00  0.00    +0.162 A 
ATOM     14  C   UNL     1      -3.702   6.168   3.242  0.00  0.00    +0.162 A 
ATOM     15  C   UNL     1      -3.195   4.881   3.302  0.00  0.00    +0.055 A 
ATOM     16  O   UNL     1      -3.536   7.024   4.292  0.00  0.00    -0.488 OA
ATOM     17  C   UNL     1      -2.674   8.139   4.058  0.00  0.00    +0.232 C 
ATOM     18  C   UNL     1      -3.433   9.278   3.394  0.00  0.00    +0.082 C 
ATOM     19  C   UNL     1      -3.925   8.912   2.003  0.00  0.00    +0.232 C 
ATOM     20  O   UNL     1      -4.891   7.861   2.067  0.00  0.00    -0.488 OA
ENDBRANCH   4  10
BRANCH   1  21
ATOM     21  C   UNL     1      -0.169   1.488  -0.060  0.00  0.00    +0.214 C 
BRANCH  21  23
ATOM     22  N   UNL     1       0.585  -0.664  -1.018  0.00  0.00    -0.284 N 
ATOM     23  C   UNL     1      -0.144  -0.018  -0.087  0.00  0.00    +0.235 C 
ATOM     24  O   UNL     1      -0.781  -0.650   0.730  0.00  0.00    -0.274 OA
ATOM     25  H   UNL     1       1.032  -0.163  -1.718  0.00  0.00    +0.155 HD
BRANCH  22  29
ATOM     26  C   UNL     1       0.919  -4.816  -0.892  0.00  0.00    -0.025 A 
ATOM     27  C   UNL     1       0.906  -4.149  -2.123  0.00  0.00    +0.010 A 
ATOM     28  C   UNL     1       0.795  -2.778  -2.160  0.00  0.00    +0.024 A 
ATOM     29  C   UNL     1       0.697  -2.054  -0.976  0.00  0.00    +0.033 A 
ATOM     30  C   UNL     1       0.715  -2.712   0.251  0.00  0.00    +0.024 A 
ATOM     31  C   UNL     1       0.819  -4.083   0.297  0.00  0.00    +0.010 A 
BRANCH  26  33
ATOM     32  C   UNL     1       1.049  -6.921   0.342  0.00  0.00    +0.092 C 
ATOM     33  C   UNL     1       1.037  -6.280  -0.848  0.00  0.00    +0.015 C 
BRANCH  32  34
ATOM     34  C   UNL     1       1.163  -8.333   0.384  0.00  0.00    +0.332 C 
ATOM     35  O   UNL     1       1.250  -8.968  -0.650  0.00  0.00    -0.246 OA
BRANCH  34  36
ATOM     36  O   UNL     1       1.175  -8.974   1.572  0.00  0.00    -0.462 OA
BRANCH  36  38
ATOM     37  C   UNL     1       1.289 -10.941   2.970  0.00  0.00    +0.048 C 
ATOM     38  C   UNL     1       1.293 -10.397   1.540  0.00  0.00    +0.229 C 
ENDBRANCH  36  38
ENDBRANCH  34  36
ENDBRANCH  32  34
ENDBRANCH  26  33
ENDBRANCH  22  29
ENDBRANCH  21  23
ENDBRANCH   1  21
TORSDOF 8
