REMARK  Name = ZINC20316828
REMARK  7 active torsions:
REMARK  status: ('A' for Active; 'I' for Inactive)
REMARK    1  A    between atoms: C_1  and  C_2
REMARK    2  A    between atoms: C_5  and  C_8
REMARK    3  A    between atoms: C_13  and  N_18
REMARK    4  A    between atoms: C_15  and  C_17
REMARK    5  A    between atoms: N_18  and  C_19
REMARK    6  A    between atoms: C_19  and  C_20
REMARK    7  A    between atoms: C_20  and  C_21
REMARK                            x       y       z     vdW  Elec       q    Type
REMARK                         _______ _______ _______ _____ _____    ______ ____
ROOT
ATOM      1  C   UNL     1      -1.287  -0.737  -0.013  0.00  0.00    +0.002 A 
ATOM      2  C   UNL     1      -2.219  -0.512   0.943  0.00  0.00    +0.056 A 
ATOM      3  S   UNL     1      -3.525  -1.651   0.527  0.00  0.00    -0.076 S 
ATOM      4  C   UNL     1      -2.799  -2.400  -0.907  0.00  0.00    +0.114 A 
ATOM      5  C   UNL     1      -1.558  -1.742  -1.035  0.00  0.00    +0.055 A 
ATOM      6  C   UNL     1      -0.753  -2.165  -2.126  0.00  0.00    +0.131 A 
ATOM      7  N   UNL     1      -1.205  -3.111  -2.934  0.00  0.00    -0.217 NA
ATOM      8  C   UNL     1      -2.383  -3.682  -2.757  0.00  0.00    +0.129 A 
ATOM      9  N   UNL     1      -3.173  -3.334  -1.760  0.00  0.00    -0.225 NA
ATOM     10  C   UNL     1      -2.835  -4.753  -3.716  0.00  0.00    +0.088 C 
ENDROOT
BRANCH   1  15
ATOM     11  C   UNL     1       3.647   2.232  -0.056  0.00  0.00    +0.044 C 
ATOM     12  C   UNL     1       2.356   1.454  -0.044  0.00  0.00    -0.050 A 
ATOM     13  C   UNL     1       2.027   0.680   1.054  0.00  0.00    +0.004 A 
ATOM     14  C   UNL     1       0.846  -0.033   1.070  0.00  0.00    +0.009 A 
ATOM     15  C   UNL     1      -0.017   0.027  -0.024  0.00  0.00    -0.017 A 
ATOM     16  C   UNL     1       0.320   0.809  -1.128  0.00  0.00    +0.009 A 
ATOM     17  C   UNL     1       1.504   1.518  -1.133  0.00  0.00    +0.004 A 
ENDBRANCH   1  15
BRANCH   6  18
ATOM     18  N   UNL     1       0.487  -1.592  -2.345  0.00  0.00    -0.328 N 
ATOM     19  H   UNL     1       0.898  -0.877  -1.617  0.00  0.00    +0.147 HD
BRANCH  18  20
ATOM     20  C   UNL     1       1.251  -1.936  -3.546  0.00  0.00    +0.114 C 
BRANCH  20  21
ATOM     21  C   UNL     1       2.576  -1.170  -3.545  0.00  0.00    +0.144 C 
BRANCH  21  22
ATOM     22  C   UNL     1       3.362  -1.524  -4.781  0.00  0.00    +0.357 C 
ATOM     23  O   UNL     1       2.910  -2.308  -5.580  0.00  0.00    -0.246 OA
ATOM     24  O   UNL     1       4.565  -0.967  -4.993  0.00  0.00    -0.246 OA
ENDBRANCH  21  22
ENDBRANCH  20  21
ENDBRANCH  18  20
ENDBRANCH   6  18
TORSDOF 5
