REMARK  Name = ZINC40779991
REMARK  6 active torsions:
REMARK  status: ('A' for Active; 'I' for Inactive)
REMARK    1  A    between atoms: C_1  and  C_2
REMARK    2  A    between atoms: C_2  and  C_3
REMARK    3  A    between atoms: C_3  and  C_5
REMARK    4  A    between atoms: C_3  and  N_6
REMARK    5  A    between atoms: C_8  and  N_21
REMARK    6  A    between atoms: C_9  and  N_13
REMARK                            x       y       z     vdW  Elec       q    Type
REMARK                         _______ _______ _______ _____ _____    ______ ____
ROOT
ATOM      1  N   UNL     1      -0.053  -0.097  -2.437  0.00  0.00    -0.325 N 
ATOM      2  C   UNL     1       0.582   0.044  -3.665  0.00  0.00    +0.145 A 
ATOM      3  C   UNL     1      -0.144   0.412  -4.800  0.00  0.00    +0.105 A 
ATOM      4  C   UNL     1       0.542   0.540  -6.008  0.00  0.00    +0.150 A 
ATOM      5  N   UNL     1       1.853   0.309  -6.033  0.00  0.00    -0.219 NA
ATOM      6  C   UNL     1       2.500  -0.036  -4.939  0.00  0.00    +0.225 A 
ATOM      7  N   UNL     1       1.891  -0.163  -3.777  0.00  0.00    -0.219 NA
ATOM      8  H   UNL     1      -1.008   0.057  -2.364  0.00  0.00    +0.148 HD
ENDROOT
BRANCH   4   9
ATOM      9  N   UNL     1      -0.133   0.903  -7.169  0.00  0.00    -0.283 N 
ATOM     10  C   UNL     1       0.577   1.134  -8.344  0.00  0.00    +0.124 A 
ATOM     11  C   UNL     1      -0.090   1.601  -9.472  0.00  0.00    +0.045 A 
ATOM     12  C   UNL     1       0.628   1.827 -10.632  0.00  0.00    +0.020 A 
ATOM     13  C   UNL     1       1.995   1.577 -10.626  0.00  0.00    +0.036 A 
ATOM     14  C   UNL     1       2.592   1.114  -9.470  0.00  0.00    +0.128 A 
ATOM     15  N   UNL     1       1.882   0.913  -8.376  0.00  0.00    -0.239 NA
ATOM     16 BR   UNL     1       3.026   1.867 -12.184  0.00  0.00    -0.049 Br
ATOM     17  H   UNL     1      -1.099   0.996  -7.160  0.00  0.00    +0.155 HD
ENDBRANCH   4   9
BRANCH   3  18
ATOM     18  N   UNL     1      -1.527   0.646  -4.728  0.00  0.00    -0.353 N 
ATOM     19  H   UNL     1      -1.991   0.553  -3.881  0.00  0.00    +0.143 HD
ATOM     20  H   UNL     1      -2.018   0.901  -5.525  0.00  0.00    +0.143 HD
ENDBRANCH   3  18
BRANCH   1  21
ATOM     21  C   UNL     1       0.721  -0.476  -1.252  0.00  0.00    +0.068 C 
ATOM     22  C   UNL     1       0.850  -2.000  -1.195  0.00  0.00    +0.028 C 
BRANCH  21  24
ATOM     23  C   UNL     1      -0.014   1.552   0.008  0.00  0.00    +0.005 C 
ATOM     24  C   UNL     1       0.006   0.022   0.005  0.00  0.00    +0.018 C 
ENDBRANCH  21  24
ENDBRANCH   1  21
TORSDOF 4
