REMARK  Name = ZINC39981283
REMARK  6 active torsions:
REMARK  status: ('A' for Active; 'I' for Inactive)
REMARK    1  A    between atoms: C_1  and  C_2
REMARK    2  A    between atoms: C_2  and  C_3
REMARK    3  A    between atoms: C_8  and  N_9
REMARK    4  A    between atoms: C_10  and  C_12
REMARK    5  A    between atoms: C_12  and  S_13
REMARK    6  A    between atoms: S_13  and  C_14
REMARK                            x       y       z     vdW  Elec       q    Type
REMARK                         _______ _______ _______ _____ _____    ______ ____
ROOT
ATOM      1  C   UNL     1      -1.621  -0.310  -7.677  0.00  0.00    +0.208 C 
ATOM      2  N   UNL     1      -0.397   0.135  -7.516  0.00  0.00    -0.227 NA
ATOM      3  C   UNL     1       0.408   0.357  -8.715  0.00  0.00    +0.252 C 
ATOM      4  C   UNL     1      -0.572   0.687  -9.833  0.00  0.00    +0.117 C 
ATOM      5  C   UNL     1      -0.082   1.811 -10.428  0.00  0.00    +0.028 A 
ATOM      6  C   UNL     1      -0.485   2.529 -11.579  0.00  0.00    +0.050 A 
ATOM      7  C   UNL     1       0.226   3.646 -11.902  0.00  0.00    +0.124 A 
ATOM      8  C   UNL     1       1.322   4.120 -11.168  0.00  0.00    +0.040 A 
ATOM      9  C   UNL     1       1.799   3.506 -10.054  0.00  0.00    +0.029 A 
ATOM     10  C   UNL     1       1.094   2.283  -9.633  0.00  0.00    +0.046 A 
ATOM     11  N   UNL     1       1.326   1.484  -8.637  0.00  0.00    -0.358 N 
ATOM     12  F   UNL     1      -0.149   4.340 -12.998  0.00  0.00    -0.205 F 
ATOM     13  N   UNL     1      -1.713   0.009  -9.976  0.00  0.00    -0.147 NA
ATOM     14  N   UNL     1      -2.196  -0.511  -8.887  0.00  0.00    -0.122 NA
ATOM     15  H   UNL     1       2.001   1.617  -7.953  0.00  0.00    +0.162 HD
ENDROOT
BRANCH   1  16
ATOM     16  S   UNL     1      -2.568  -0.672  -6.236  0.00  0.00    -0.075 S 
BRANCH  16  17
ATOM     17  C   UNL     1      -1.451  -0.272  -4.864  0.00  0.00    +0.173 C 
BRANCH  17  19
ATOM     18  N   UNL     1      -1.505  -0.315  -2.391  0.00  0.00    -0.285 N 
ATOM     19  C   UNL     1      -2.147  -0.541  -3.555  0.00  0.00    +0.227 C 
ATOM     20  O   UNL     1      -3.285  -0.961  -3.548  0.00  0.00    -0.275 OA
ATOM     21  H   UNL     1      -0.620   0.082  -2.395  0.00  0.00    +0.155 HD
BRANCH  18  27
ATOM     22  C   UNL     1      -1.349  -1.119  -0.119  0.00  0.00    -0.026 A 
ATOM     23  C   UNL     1      -1.954  -1.445   1.079  0.00  0.00    +0.005 A 
ATOM     24  C   UNL     1      -3.322  -1.313   1.222  0.00  0.00    +0.000 A 
ATOM     25  C   UNL     1      -4.090  -0.854   0.168  0.00  0.00    +0.002 A 
ATOM     26  C   UNL     1      -3.491  -0.525  -1.033  0.00  0.00    +0.023 A 
ATOM     27  C   UNL     1      -2.116  -0.652  -1.178  0.00  0.00    +0.037 A 
BRANCH  22  29
ATOM     28  C   UNL     1       0.819   0.078   0.019  0.00  0.00    +0.009 C 
ATOM     29  C   UNL     1       0.143  -1.263  -0.275  0.00  0.00    +0.033 C 
ENDBRANCH  22  29
ENDBRANCH  18  27
ENDBRANCH  17  19
ENDBRANCH  16  17
ENDBRANCH   1  16
TORSDOF 5
