REMARK  Name = ZINC18006989
REMARK  8 active torsions:
REMARK  status: ('A' for Active; 'I' for Inactive)
REMARK    1  A    between atoms: C_4  and  C_7
REMARK    2  A    between atoms: C_7  and  C_8
REMARK    3  A    between atoms: C_10  and  C_16
REMARK    4  A    between atoms: C_11  and  O_15
REMARK    5  A    between atoms: N_17  and  C_18
REMARK    6  A    between atoms: C_18  and  C_19
REMARK    7  A    between atoms: C_19  and  N_20
REMARK    8  A    between atoms: C_21  and  C_23
REMARK                            x       y       z     vdW  Elec       q    Type
REMARK                         _______ _______ _______ _____ _____    ______ ____
ROOT
ATOM      1  C   UNL     1       6.211   0.731   4.030  0.00  0.00    +0.090 C 
ATOM      2  N   UNL     1       6.518   0.559   5.275  0.00  0.00    -0.388 N 
ATOM      3  H   UNL     1       6.257  -0.256   5.731  0.00  0.00    +0.159 HD
ENDROOT
BRANCH   1   6
ATOM      4  C   UNL     1       4.398  -1.099   1.301  0.00  0.00    -0.041 A 
ATOM      5  C   UNL     1       5.159  -0.154   1.954  0.00  0.00    +0.017 A 
ATOM      6  C   UNL     1       5.397  -0.276   3.325  0.00  0.00    +0.033 A 
ATOM      7  C   UNL     1       4.858  -1.363   4.028  0.00  0.00    +0.139 A 
ATOM      8  C   UNL     1       4.094  -2.305   3.355  0.00  0.00    +0.060 A 
ATOM      9  C   UNL     1       3.862  -2.169   1.999  0.00  0.00    +0.023 A 
ATOM     10 BR   UNL     1       3.363  -3.774   4.295  0.00  0.00    -0.046 Br
BRANCH   7  11
ATOM     11  O   UNL     1       5.082  -1.493   5.360  0.00  0.00    -0.505 OA
ATOM     12  H   UNL     1       4.419  -1.060   5.915  0.00  0.00    +0.292 HD
ENDBRANCH   7  11
BRANCH   4  13
ATOM     13  C   UNL     1       4.142  -0.965  -0.178  0.00  0.00    +0.070 C 
BRANCH  13  17
ATOM     14  C   UNL     1       0.589   1.321  -0.809  0.00  0.00    +0.000 A 
ATOM     15  C   UNL     1       1.814   1.956  -0.727  0.00  0.00    +0.000 A 
ATOM     16  C   UNL     1       2.964   1.216  -0.523  0.00  0.00    +0.004 A 
ATOM     17  C   UNL     1       2.889  -0.159  -0.400  0.00  0.00    -0.043 A 
ATOM     18  C   UNL     1       1.663  -0.793  -0.480  0.00  0.00    +0.004 A 
ATOM     19  C   UNL     1       0.514  -0.054  -0.686  0.00  0.00    +0.000 A 
ENDBRANCH  13  17
ENDBRANCH   4  13
ENDBRANCH   1   6
BRANCH   2  20
ATOM     20  C   UNL     1       7.260   1.596   5.996  0.00  0.00    +0.131 C 
BRANCH  20  21
ATOM     21  C   UNL     1       6.380   2.174   7.107  0.00  0.00    +0.125 C 
BRANCH  21  22
ATOM     22  N   UNL     1       7.122   3.211   7.828  0.00  0.00    -0.308 N 
ATOM     23  C   UNL     1       6.542   3.863   8.855  0.00  0.00    +0.269 C 
ATOM     24  O   UNL     1       5.404   3.591   9.183  0.00  0.00    -0.268 OA
ATOM     25  H   UNL     1       8.030   3.428   7.566  0.00  0.00    +0.149 HD
BRANCH  23  26
ATOM     26  C   UNL     1       7.293   4.912   9.584  0.00  0.00    +0.209 A 
ATOM     27  C   UNL     1       6.792   5.695  10.720  0.00  0.00    +0.192 A 
ATOM     28  N   UNL     1       7.732   6.518  11.097  0.00  0.00    -0.033 NA
ATOM     29  O   UNL     1       8.852   6.317  10.253  0.00  0.00    -0.240 OA
ATOM     30  N   UNL     1       8.517   5.295   9.331  0.00  0.00    -0.042 NA
ATOM     31  N   UNL     1       5.534   5.580  11.295  0.00  0.00    -0.339 N 
ATOM     32  H   UNL     1       4.898   4.936  10.945  0.00  0.00    +0.144 HD
ATOM     33  H   UNL     1       5.291   6.143  12.046  0.00  0.00    +0.144 HD
ENDBRANCH  23  26
ENDBRANCH  21  22
ENDBRANCH  20  21
ENDBRANCH   2  20
TORSDOF 8
