REMARK  Name = ZINC09112751
REMARK  9 active torsions:
REMARK  status: ('A' for Active; 'I' for Inactive)
REMARK    1  A    between atoms: C_1  and  C_2
REMARK    2  A    between atoms: C_2  and  C_3
REMARK    3  A    between atoms: C_4  and  C_22
REMARK    4  A    between atoms: C_6  and  C_8
REMARK    5  A    between atoms: C_8  and  O_10
REMARK    6  A    between atoms: O_10  and  C_11
REMARK    7  A    between atoms: C_11  and  C_12
REMARK    8  A    between atoms: N_18  and  C_19
REMARK    9  A    between atoms: N_18  and  C_20
REMARK                            x       y       z     vdW  Elec       q    Type
REMARK                         _______ _______ _______ _____ _____    ______ ____
ROOT
ATOM      1  C   UNL     1       4.910   1.701  -0.036  0.00  0.00    +0.308 C 
ENDROOT
BRANCH   1   2
ATOM      2  C   UNL     1       5.902   2.836  -0.039  0.00  0.00    +0.173 A 
ATOM      3  N   UNL     1       6.328   3.334  -1.186  0.00  0.00    -0.196 NA
ATOM      4  C   UNL     1       7.201   4.340  -1.193  0.00  0.00    +0.217 A 
ATOM      5  N   UNL     1       7.650   4.835  -0.045  0.00  0.00    -0.181 NA
ATOM      6  C   UNL     1       7.223   4.328   1.106  0.00  0.00    +0.222 A 
ATOM      7  N   UNL     1       6.346   3.326   1.105  0.00  0.00    -0.196 NA
ATOM      8  N   UNL     1       7.686   4.839   2.301  0.00  0.00    -0.306 N 
ATOM      9  C   UNL     1       7.213   4.279   3.570  0.00  0.00    +0.132 C 
ATOM     10  C   UNL     1       8.650   5.942   2.301  0.00  0.00    +0.132 C 
ATOM     11  N   UNL     1       7.642   4.863  -2.391  0.00  0.00    -0.327 N 
ATOM     12  H   UNL     1       8.280   5.593  -2.396  0.00  0.00    +0.145 HD
ATOM     13  H   UNL     1       7.314   4.501  -3.229  0.00  0.00    +0.145 HD
ENDBRANCH   1   2
BRANCH   1  14
ATOM     14  O   UNL     1       3.561   2.237  -0.020  0.00  0.00    -0.453 OA
BRANCH  14  15
ATOM     15  C   UNL     1       2.547   1.347  -0.015  0.00  0.00    +0.346 C 
ATOM     16  O   UNL     1       2.786   0.154  -0.024  0.00  0.00    -0.244 OA
BRANCH  15  20
ATOM     17  C   UNL     1      -1.158   3.135   0.029  0.00  0.00    -0.007 A 
ATOM     18  C   UNL     1      -1.192   1.776   0.017  0.00  0.00    -0.039 A 
ATOM     19  C   UNL     1      -0.013   1.076   0.008  0.00  0.00    +0.026 A 
ATOM     20  C   UNL     1       1.161   1.816   0.001  0.00  0.00    +0.097 A 
ATOM     21  S   UNL     1       0.539   3.488   0.015  0.00  0.00    -0.087 S 
ATOM     22  C   UNL     1      -2.511   1.047   0.020  0.00  0.00    +0.044 C 
BRANCH  17  24
ATOM     23  C   UNL     1      -2.693   4.420   1.493  0.00  0.00    +0.009 C 
ATOM     24  C   UNL     1      -2.315   4.100   0.045  0.00  0.00    +0.039 C 
ENDBRANCH  17  24
ENDBRANCH  15  20
ENDBRANCH  14  15
ENDBRANCH   1  14
TORSDOF 5
