REMARK  Name = ZINC64015086
REMARK  12 active torsions:
REMARK  status: ('A' for Active; 'I' for Inactive)
REMARK    1  A    between atoms: C_1  and  C_2
REMARK    2  A    between atoms: C_3  and  C_21
REMARK    3  A    between atoms: C_5  and  C_8
REMARK    4  A    between atoms: C_12  and  N_14
REMARK    5  A    between atoms: C_15  and  C_17
REMARK    6  A    between atoms: C_17  and  C_18
REMARK    7  A    between atoms: C_18  and  C_19
REMARK    8  A    between atoms: C_18  and  C_20
REMARK    9  A    between atoms: C_21  and  N_22
REMARK   10  A    between atoms: C_23  and  C_25
REMARK   11  A    between atoms: C_25  and  C_26
REMARK   12  A    between atoms: C_26  and  C_27
REMARK                            x       y       z     vdW  Elec       q    Type
REMARK                         _______ _______ _______ _____ _____    ______ ____
ROOT
ATOM      1  C   UNL     1       0.067   1.633  -0.390  0.00  0.00    +0.044 C 
ATOM      2  C   UNL     1      -0.830   2.035  -1.562  0.00  0.00    +0.164 C 
ATOM      3  C   UNL     1      -0.235   1.557  -2.868  0.00  0.00    +0.062 C 
ATOM      4  N   UNL     1      -0.864   0.506  -3.242  0.00  0.00    -0.253 NA
ATOM      5  C   UNL     1      -1.905   0.178  -2.262  0.00  0.00    +0.267 C 
ATOM      6  O   UNL     1      -2.104   1.366  -1.472  0.00  0.00    -0.342 OA
ENDROOT
BRANCH   5   7
ATOM      7  C   UNL     1      -3.183  -0.195  -2.969  0.00  0.00    +0.005 A 
ATOM      8  C   UNL     1      -4.396   0.265  -2.492  0.00  0.00    +0.008 A 
ATOM      9  C   UNL     1      -5.570  -0.075  -3.138  0.00  0.00    +0.002 A 
ATOM     10  C   UNL     1      -5.534  -0.875  -4.263  0.00  0.00    +0.023 A 
ATOM     11  C   UNL     1      -4.317  -1.339  -4.745  0.00  0.00    +0.034 A 
ATOM     12  C   UNL     1      -3.139  -0.992  -4.096  0.00  0.00    +0.031 A 
BRANCH  11  13
ATOM     13  N   UNL     1      -4.278  -2.151  -5.884  0.00  0.00    -0.285 N 
ATOM     14  C   UNL     1      -3.338  -3.110  -5.995  0.00  0.00    +0.217 C 
ATOM     15  O   UNL     1      -2.587  -3.334  -5.069  0.00  0.00    -0.275 OA
ATOM     16  H   UNL     1      -4.927  -2.023  -6.593  0.00  0.00    +0.155 HD
BRANCH  14  17
ATOM     17  C   UNL     1      -3.219  -3.905  -7.270  0.00  0.00    +0.099 C 
BRANCH  17  18
ATOM     18  C   UNL     1      -2.083  -4.920  -7.135  0.00  0.00    -0.008 C 
ATOM     19  C   UNL     1      -2.438  -5.942  -6.053  0.00  0.00    +0.008 C 
ATOM     20  C   UNL     1      -1.880  -5.641  -8.469  0.00  0.00    +0.008 C 
ENDBRANCH  17  18
ENDBRANCH  14  17
ENDBRANCH  11  13
ENDBRANCH   5   7
BRANCH   3  21
ATOM     21  C   UNL     1       0.905   2.209  -3.607  0.00  0.00    +0.157 C 
BRANCH  21  22
ATOM     22  N   UNL     1       1.192   1.453  -4.828  0.00  0.00    -0.310 N 
ATOM     23  C   UNL     1       2.180   1.854  -5.652  0.00  0.00    +0.213 C 
ATOM     24  O   UNL     1       2.832   2.841  -5.383  0.00  0.00    -0.276 OA
ATOM     25  H   UNL     1       0.671   0.664  -5.044  0.00  0.00    +0.149 HD
BRANCH  23  26
ATOM     26  C   UNL     1       2.475   1.077  -6.909  0.00  0.00    +0.099 C 
BRANCH  26  27
ATOM     27  C   UNL     1       3.633   1.738  -7.659  0.00  0.00    +0.056 C 
BRANCH  27  28
ATOM     28  C   UNL     1       3.932   0.949  -8.935  0.00  0.00    +0.174 C 
ATOM     29  N   UNL     1       4.372  -0.410  -8.595  0.00  0.00    -0.363 N 
ATOM     30  C   UNL     1       5.578  -0.559  -9.064  0.00  0.00    +0.060 A 
ATOM     31  C   UNL     1       6.527  -1.680  -9.040  0.00  0.00    +0.027 A 
ATOM     32  C   UNL     1       7.735  -1.540  -9.623  0.00  0.00    +0.002 A 
ATOM     33  C   UNL     1       8.136  -0.354 -10.262  0.00  0.00    +0.002 A 
ATOM     34  C   UNL     1       7.343   0.733 -10.341  0.00  0.00    +0.027 A 
ATOM     35  C   UNL     1       6.002   0.697  -9.741  0.00  0.00    +0.060 A 
ATOM     36  N   UNL     1       5.043   1.574  -9.665  0.00  0.00    -0.363 N 
ATOM     37  H   UNL     1       3.859  -1.075  -8.110  0.00  0.00    +0.162 HD
ATOM     38  H   UNL     1       5.058   2.474 -10.025  0.00  0.00    +0.162 HD
ENDBRANCH  27  28
ENDBRANCH  26  27
ENDBRANCH  23  26
ENDBRANCH  21  22
ENDBRANCH   3  21
TORSDOF 9
