REMARK  Name = ZINC26023606
REMARK  8 active torsions:
REMARK  status: ('A' for Active; 'I' for Inactive)
REMARK    1  A    between atoms: C_1  and  C_2
REMARK    2  A    between atoms: C_5  and  C_9
REMARK    3  A    between atoms: C_7  and  O_8
REMARK    4  A    between atoms: C_9  and  O_11
REMARK    5  A    between atoms: O_11  and  C_12
REMARK    6  A    between atoms: C_12  and  C_13
REMARK    7  A    between atoms: N_15  and  C_16
REMARK    8  A    between atoms: C_19  and  C_22
REMARK                            x       y       z     vdW  Elec       q    Type
REMARK                         _______ _______ _______ _____ _____    ______ ____
ROOT
ATOM      1  O   UNL     1      -2.420   0.986   0.019  0.00  0.00    -0.452 OA
ENDROOT
BRANCH   1   2
ATOM      2  C   UNL     1      -3.672   1.484   0.028  0.00  0.00    +0.340 C 
ATOM      3  O   UNL     1      -3.847   2.686   0.035  0.00  0.00    -0.245 OA
BRANCH   2   8
ATOM      4  C   UNL     1      -8.182  -2.094   0.029  0.00  0.00    +0.047 C 
ATOM      5  C   UNL     1      -7.003  -1.156   0.029  0.00  0.00    -0.009 A 
ATOM      6  C   UNL     1      -5.717  -1.666   0.020  0.00  0.00    +0.008 A 
ATOM      7  C   UNL     1      -4.633  -0.814   0.014  0.00  0.00    +0.015 A 
ATOM      8  C   UNL     1      -4.831   0.568   0.028  0.00  0.00    +0.062 A 
ATOM      9  C   UNL     1      -6.129   1.081   0.037  0.00  0.00    +0.060 A 
ATOM     10  C   UNL     1      -7.211   0.216   0.037  0.00  0.00    +0.121 A 
BRANCH  10  11
ATOM     11  O   UNL     1      -8.476   0.712   0.046  0.00  0.00    -0.506 OA
ATOM     12  H   UNL     1      -8.641   1.799   0.052  0.00  0.00    +0.292 HD
ENDBRANCH  10  11
ENDBRANCH   2   8
ENDBRANCH   1   2
BRANCH   1  13
ATOM     13  C   UNL     1      -1.330   1.944   0.019  0.00  0.00    +0.328 C 
BRANCH  13  14
ATOM     14  C   UNL     1      -0.014   1.209   0.009  0.00  0.00    +0.251 C 
ATOM     15  O   UNL     1       0.002  -0.004   0.002  0.00  0.00    -0.272 OA
ATOM     16  N   UNL     1       1.143   1.898   0.001  0.00  0.00    -0.310 N 
ATOM     17  H   UNL     1       1.129   2.998   0.007  0.00  0.00    +0.149 HD
BRANCH  16  18
ATOM     18  C   UNL     1       2.422   1.183  -0.015  0.00  0.00    +0.073 C 
ATOM     19  C   UNL     1       2.819   0.817   1.417  0.00  0.00    +0.022 C 
ATOM     20  C   UNL     1       2.959   2.092   2.250  0.00  0.00    +0.005 C 
ATOM     21  C   UNL     1       4.037   2.988   1.634  0.00  0.00    -0.014 C 
ATOM     22  C   UNL     1       3.639   3.354   0.203  0.00  0.00    +0.005 C 
ATOM     23  C   UNL     1       3.499   2.078  -0.630  0.00  0.00    +0.022 C 
ATOM     24  C   UNL     1       4.176   4.264   2.467  0.00  0.00    +0.007 C 
ENDBRANCH  16  18
ENDBRANCH  13  14
ENDBRANCH   1  13
TORSDOF 6
