REMARK  Name = ZINC07889410
REMARK  6 active torsions:
REMARK  status: ('A' for Active; 'I' for Inactive)
REMARK    1  A    between atoms: C_1  and  O_2
REMARK    2  A    between atoms: O_2  and  C_3
REMARK    3  A    between atoms: C_6  and  N_9
REMARK    4  A    between atoms: C_10  and  C_21
REMARK    5  A    between atoms: C_22  and  C_23
REMARK    6  A    between atoms: C_28  and  N_29
REMARK                            x       y       z     vdW  Elec       q    Type
REMARK                         _______ _______ _______ _____ _____    ______ ____
ROOT
ATOM      1  N   UNL     1      -4.605  -2.559   0.007  0.00  0.00    -0.245 N 
ATOM      2  C   UNL     1      -4.874  -3.996  -0.057  0.00  0.00    +0.190 C 
ATOM      3  N   UNL     1      -6.181  -4.242  -0.676  0.00  0.00    -0.322 N 
ATOM      4  C   UNL     1      -7.259  -3.446  -0.304  0.00  0.00    +0.041 A 
ATOM      5  C   UNL     1      -8.561  -3.917  -0.344  0.00  0.00    +0.024 A 
ATOM      6  C   UNL     1      -9.600  -3.085   0.025  0.00  0.00    +0.002 A 
ATOM      7  C   UNL     1      -9.351  -1.785   0.434  0.00  0.00    +0.001 A 
ATOM      8  C   UNL     1      -8.060  -1.301   0.483  0.00  0.00    +0.015 A 
ATOM      9  C   UNL     1      -7.001  -2.131   0.118  0.00  0.00    +0.058 A 
ATOM     10  C   UNL     1      -5.603  -1.670   0.182  0.00  0.00    +0.254 C 
ATOM     11  O   UNL     1      -5.351  -0.498   0.387  0.00  0.00    -0.270 OA
ATOM     12  H   UNL     1      -6.292  -4.947  -1.333  0.00  0.00    +0.148 HD
ENDROOT
BRANCH   1  16
ATOM     13  C   UNL     1      -0.681  -1.195  -0.341  0.00  0.00    +0.120 A 
ATOM     14  C   UNL     1      -1.339  -1.109   0.877  0.00  0.00    +0.047 A 
ATOM     15  C   UNL     1      -2.639  -1.561   0.993  0.00  0.00    +0.027 A 
ATOM     16  C   UNL     1      -3.287  -2.101  -0.110  0.00  0.00    +0.039 A 
ATOM     17  C   UNL     1      -2.628  -2.186  -1.329  0.00  0.00    +0.027 A 
ATOM     18  C   UNL     1      -1.330  -1.729  -1.445  0.00  0.00    +0.047 A 
BRANCH  13  20
ATOM     19  C   UNL     1       1.206  -0.212   0.722  0.00  0.00    +0.277 C 
ATOM     20  O   UNL     1       0.599  -0.750  -0.455  0.00  0.00    -0.495 OA
ENDBRANCH  13  20
ENDBRANCH   1  16
BRANCH   2  21
ATOM     21  C   UNL     1      -4.871  -4.567   1.338  0.00  0.00    +0.016 C 
ATOM     22  C   UNL     1      -4.007  -5.518   1.663  0.00  0.00    +0.009 C 
BRANCH  22  23
ATOM     23  C   UNL     1      -4.005  -6.078   3.031  0.00  0.00    +0.005 A 
ATOM     24  C   UNL     1      -5.091  -5.861   3.879  0.00  0.00    +0.010 A 
ATOM     25  C   UNL     1      -5.083  -6.386   5.155  0.00  0.00    +0.001 A 
ATOM     26  C   UNL     1      -3.999  -7.127   5.594  0.00  0.00    +0.002 A 
ATOM     27  C   UNL     1      -2.919  -7.345   4.758  0.00  0.00    +0.033 A 
ATOM     28  C   UNL     1      -2.918  -6.830   3.478  0.00  0.00    +0.133 A 
BRANCH  28  29
ATOM     29  N   UNL     1      -1.764  -7.070   2.583  0.00  0.00    +0.057 N 
ATOM     30  O   UNL     1      -1.184  -8.131   2.615  0.00  0.00    -0.126 OA
ATOM     31  O   UNL     1      -1.400  -6.205   1.821  0.00  0.00    -0.126 OA
ENDBRANCH  28  29
ENDBRANCH  22  23
ENDBRANCH   2  21
TORSDOF 5
