REMARK  Name = ZINC05044923
REMARK  10 active torsions:
REMARK  status: ('A' for Active; 'I' for Inactive)
REMARK    1  A    between atoms: C_1  and  C_2
REMARK    2  A    between atoms: C_2  and  C_3
REMARK    3  A    between atoms: C_2  and  C_4
REMARK    4  A    between atoms: C_2  and  C_5
REMARK    5  A    between atoms: C_12  and  N_32
REMARK    6  A    between atoms: C_13  and  C_30
REMARK    7  A    between atoms: C_14  and  C_16
REMARK    8  A    between atoms: C_20  and  O_22
REMARK    9  A    between atoms: O_22  and  C_23
REMARK   10  A    between atoms: C_23  and  C_24
REMARK                            x       y       z     vdW  Elec       q    Type
REMARK                         _______ _______ _______ _____ _____    ______ ____
ROOT
ATOM      1  C   UNL     1       0.684  -0.812  -2.058  0.00  0.00    +0.076 A 
ATOM      2  C   UNL     1       0.907  -2.183  -2.083  0.00  0.00    +0.050 A 
ATOM      3  C   UNL     1       1.532  -2.489  -3.259  0.00  0.00    +0.222 A 
ATOM      4  N   UNL     1       1.692  -1.344  -3.943  0.00  0.00    -0.246 N 
ATOM      5  H   UNL     1       2.107  -1.253  -4.816  0.00  0.00    +0.192 HD
ATOM      6  N   UNL     1       1.149  -0.304  -3.174  0.00  0.00    -0.175 NA
ATOM      7  O   UNL     1       1.892  -3.754  -3.590  0.00  0.00    -0.423 OA
ATOM      8  C   UNL     1       1.869  -4.685  -2.615  0.00  0.00    +0.200 C 
ATOM      9  C   UNL     1       1.272  -4.504  -1.416  0.00  0.00    +0.098 C 
ATOM     10  C   UNL     1       0.558  -3.225  -1.052  0.00  0.00    +0.101 C 
ENDROOT
BRANCH  10  11
ATOM     11  C   UNL     1      -0.931  -3.457  -1.047  0.00  0.00    -0.031 A 
ATOM     12  C   UNL     1      -1.601  -3.672  -2.237  0.00  0.00    +0.005 A 
ATOM     13  C   UNL     1      -2.967  -3.885  -2.236  0.00  0.00    +0.004 A 
ATOM     14  C   UNL     1      -3.667  -3.882  -1.044  0.00  0.00    +0.045 A 
ATOM     15  C   UNL     1      -2.997  -3.666   0.151  0.00  0.00    +0.121 A 
ATOM     16  C   UNL     1      -1.625  -3.459   0.147  0.00  0.00    +0.050 A 
BRANCH  15  17
ATOM     17  O   UNL     1      -3.683  -3.663   1.325  0.00  0.00    -0.487 OA
BRANCH  17  18
ATOM     18  C   UNL     1      -5.092  -3.888   1.253  0.00  0.00    +0.264 C 
BRANCH  18  19
ATOM     19  C   UNL     1      -5.678  -3.849   2.641  0.00  0.00    -0.010 A 
ATOM     20  C   UNL     1      -5.758  -5.009   3.390  0.00  0.00    +0.007 A 
ATOM     21  C   UNL     1      -6.296  -4.973   4.663  0.00  0.00    +0.000 A 
ATOM     22  C   UNL     1      -6.752  -3.778   5.187  0.00  0.00    +0.000 A 
ATOM     23  C   UNL     1      -6.671  -2.619   4.439  0.00  0.00    +0.000 A 
ATOM     24  C   UNL     1      -6.130  -2.654   3.167  0.00  0.00    +0.007 A 
ENDBRANCH  18  19
ENDBRANCH  17  18
ENDBRANCH  15  17
ENDBRANCH  10  11
BRANCH   1  26
ATOM     25  C   UNL     1      -1.466  -0.406  -0.891  0.00  0.00    +0.017 C 
ATOM     26  C   UNL     1       0.020  -0.044  -0.944  0.00  0.00    +0.007 C 
ATOM     27  C   UNL     1       0.171   1.457  -1.199  0.00  0.00    +0.017 C 
ATOM     28  C   UNL     1       0.680  -0.404   0.388  0.00  0.00    +0.017 C 
ENDBRANCH   1  26
BRANCH   8  29
ATOM     29  N   UNL     1       2.489  -5.886  -2.853  0.00  0.00    -0.328 N 
ATOM     30  H   UNL     1       2.926  -6.046  -3.704  0.00  0.00    +0.145 HD
ATOM     31  H   UNL     1       2.489  -6.575  -2.171  0.00  0.00    +0.145 HD
ENDBRANCH   8  29
BRANCH   9  32
ATOM     32  C   UNL     1       1.317  -5.565  -0.456  0.00  0.00    +0.101 C 
ATOM     33  N   UNL     1       1.353  -6.407   0.306  0.00  0.00    -0.191 NA
ENDBRANCH   9  32
TORSDOF 7
