REMARK  Name = ZINC57349228
REMARK  5 active torsions:
REMARK  status: ('A' for Active; 'I' for Inactive)
REMARK    1  A    between atoms: C_1  and  C_2
REMARK    2  A    between atoms: C_4  and  C_7
REMARK    3  A    between atoms: N_9  and  C_10
REMARK    4  A    between atoms: C_14  and  C_16
REMARK    5  A    between atoms: C_16  and  C_23
REMARK                            x       y       z     vdW  Elec       q    Type
REMARK                         _______ _______ _______ _____ _____    ______ ____
ROOT
ATOM      1  C   UNL     1      -1.678  -5.754   0.070  0.00  0.00    +0.034 A 
ATOM      2  C   UNL     1      -3.066  -5.685   0.066  0.00  0.00    +0.023 A 
ATOM      3  C   UNL     1      -3.813  -6.843   0.153  0.00  0.00    +0.002 A 
ATOM      4  C   UNL     1      -3.182  -8.070   0.244  0.00  0.00    +0.006 A 
ATOM      5  C   UNL     1      -1.801  -8.142   0.248  0.00  0.00    -0.014 A 
ATOM      6  C   UNL     1      -1.048  -6.988   0.156  0.00  0.00    +0.029 A 
ENDROOT
BRANCH   5   7
ATOM      7  C   UNL     1      -1.118  -9.482   0.348  0.00  0.00    +0.135 C 
ATOM      8  C   UNL     1      -0.357  -9.596   1.654  0.00  0.00    +0.248 C 
ATOM      9  O   UNL     1       0.563  -8.902   2.029  0.00  0.00    -0.273 OA
ATOM     10  N   UNL     1      -0.918 -10.630   2.313  0.00  0.00    -0.238 N 
ATOM     11  C   UNL     1      -1.916 -11.178   1.612  0.00  0.00    +0.307 C 
ATOM     12  O   UNL     1      -2.573 -12.125   1.999  0.00  0.00    -0.252 OA
ATOM     13  N   UNL     1      -2.112 -10.566   0.430  0.00  0.00    -0.282 N 
ATOM     14  C   UNL     1      -0.183  -9.698  -0.844  0.00  0.00    +0.047 C 
ATOM     15  H   UNL     1      -0.632 -10.938   3.187  0.00  0.00    +0.159 HD
ATOM     16  H   UNL     1      -2.778 -10.793  -0.237  0.00  0.00    +0.152 HD
ENDBRANCH   5   7
BRANCH   1  19
ATOM     17  C   UNL     1      -1.350  -3.453   0.575  0.00  0.00    +0.270 C 
ATOM     18  O   UNL     1      -2.439  -3.428   1.114  0.00  0.00    -0.268 OA
ATOM     19  N   UNL     1      -0.918  -4.583  -0.018  0.00  0.00    -0.280 N 
ATOM     20  H   UNL     1      -0.080  -4.585  -0.506  0.00  0.00    +0.155 HD
BRANCH  17  24
ATOM     21  C   UNL     1       0.286   1.285   1.382  0.00  0.00    +0.089 C 
ATOM     22  C   UNL     1       0.208  -0.151   0.933  0.00  0.00    +0.135 A 
ATOM     23  C   UNL     1      -0.821  -0.990   1.150  0.00  0.00    +0.080 A 
ATOM     24  C   UNL     1      -0.497  -2.240   0.570  0.00  0.00    +0.168 A 
ATOM     25  N   UNL     1       0.692  -2.134   0.027  0.00  0.00    -0.073 NA
ATOM     26  O   UNL     1       1.151  -0.812   0.245  0.00  0.00    -0.359 OA
ENDBRANCH  17  24
ENDBRANCH   1  19
TORSDOF 3
