REMARK  Name = ZINC62959244
REMARK  5 active torsions:
REMARK  status: ('A' for Active; 'I' for Inactive)
REMARK    1  A    between atoms: C_1  and  C_2
REMARK    2  A    between atoms: C_2  and  C_3
REMARK    3  A    between atoms: C_3  and  C_20
REMARK    4  A    between atoms: N_6  and  C_9
REMARK    5  A    between atoms: C_15  and  C_17
REMARK                            x       y       z     vdW  Elec       q    Type
REMARK                         _______ _______ _______ _____ _____    ______ ____
ROOT
ATOM      1  C   UNL     1       0.765  -0.453   1.225  0.00  0.00    -0.036 C 
ATOM      2  C   UNL     1       2.206   0.066   1.236  0.00  0.00    -0.012 C 
ATOM      3  C   UNL     1       2.947  -0.528   2.436  0.00  0.00    -0.078 C 
ATOM      4  N   UNL     1       2.954  -1.992   2.336  0.00  0.00    +0.382 N 
ATOM      5  C   UNL     1       1.579  -2.502   2.397  0.00  0.00    -0.078 C 
ATOM      6  C   UNL     1       0.785  -1.984   1.196  0.00  0.00    -0.012 C 
ATOM      7  C   UNL     1       0.038   0.025   2.484  0.00  0.00    +0.011 C 
ATOM      8  H   UNL     1       3.375  -2.267   1.461  0.00  0.00    -0.081 HD
ENDROOT
BRANCH   4   9
ATOM      9  C   UNL     1       3.733  -2.554   3.447  0.00  0.00    -0.055 C 
ATOM     10  C   UNL     1       3.191  -2.016   4.773  0.00  0.00    -0.014 C 
ATOM     11  C   UNL     1       4.002  -2.601   5.931  0.00  0.00    -0.002 C 
ATOM     12  C   UNL     1       5.470  -2.199   5.780  0.00  0.00    +0.001 C 
ATOM     13  C   UNL     1       6.012  -2.737   4.454  0.00  0.00    +0.013 C 
ATOM     14  C   UNL     1       5.201  -2.152   3.296  0.00  0.00    +0.089 C 
BRANCH  14  15
ATOM     15  C   UNL     1       5.735  -2.682   1.990  0.00  0.00    +0.357 C 
ATOM     16  O   UNL     1       6.542  -2.028   1.351  0.00  0.00    -0.246 OA
ATOM     17  O   UNL     1       5.361  -3.764   1.573  0.00  0.00    -0.246 OA
ENDBRANCH  14  15
ENDBRANCH   4   9
BRANCH   1  19
ATOM     18  C   UNL     1       0.023   1.603   0.016  0.00  0.00    +0.004 C 
ATOM     19  C   UNL     1       0.041   0.073  -0.015  0.00  0.00    +0.003 C 
ENDBRANCH   1  19
TORSDOF 3
