REMARK  Name = ZINC41523145
REMARK  6 active torsions:
REMARK  status: ('A' for Active; 'I' for Inactive)
REMARK    1  A    between atoms: C_1  and  C_2
REMARK    2  A    between atoms: C_2  and  C_4
REMARK    3  A    between atoms: C_2  and  N_12
REMARK    4  A    between atoms: C_7  and  C_10
REMARK    5  A    between atoms: N_15  and  C_16
REMARK    6  A    between atoms: C_16  and  C_17
REMARK                            x       y       z     vdW  Elec       q    Type
REMARK                         _______ _______ _______ _____ _____    ______ ____
ROOT
ATOM      1  N   UNL     1       0.711  -0.489   1.189  0.00  0.00    -0.293 N 
ATOM      2  C   UNL     1       0.051  -0.633   2.355  0.00  0.00    +0.300 C 
ATOM      3  O   UNL     1      -1.132  -0.361   2.423  0.00  0.00    -0.253 OA
ATOM      4  N   UNL     1       0.703  -1.080   3.447  0.00  0.00    -0.299 N 
ATOM      5  H   UNL     1       1.654  -0.707   1.135  0.00  0.00    +0.151 HD
ATOM      6  H   UNL     1       1.647  -1.298   3.394  0.00  0.00    +0.150 HD
ENDROOT
BRANCH   1   8
ATOM      7  C   UNL     1      -0.019   1.526   0.010  0.00  0.00    +0.033 C 
ATOM      8  C   UNL     1       0.002  -0.004   0.002  0.00  0.00    +0.102 C 
BRANCH   8   9
ATOM      9  C   UNL     1       0.707  -0.490  -1.238  0.00  0.00    -0.027 A 
ATOM     10  C   UNL     1       2.090  -0.509  -1.280  0.00  0.00    +0.007 A 
ATOM     11  C   UNL     1       2.742  -0.953  -2.412  0.00  0.00    +0.019 A 
ATOM     12  C   UNL     1       2.004  -1.384  -3.516  0.00  0.00    +0.052 A 
ATOM     13  C   UNL     1       0.609  -1.362  -3.466  0.00  0.00    +0.019 A 
ATOM     14  C   UNL     1      -0.031  -0.920  -2.326  0.00  0.00    +0.007 A 
BRANCH  12  15
ATOM     15  C   UNL     1       2.674  -1.845  -4.694  0.00  0.00    +0.099 C 
ATOM     16  N   UNL     1       3.206  -2.211  -5.629  0.00  0.00    -0.191 NA
ENDBRANCH  12  15
ENDBRANCH   8   9
ENDBRANCH   1   8
BRANCH   4  17
ATOM     17  C   UNL     1      -0.014  -1.237   4.715  0.00  0.00    +0.111 C 
BRANCH  17  18
ATOM     18  C   UNL     1       0.950  -1.754   5.785  0.00  0.00    +0.034 C 
ATOM     19  C   UNL     1       0.199  -2.003   7.116  0.00  0.00    +0.035 C 
ATOM     20  C   UNL     1       1.212  -1.478   8.164  0.00  0.00    +0.160 C 
ATOM     21  O   UNL     1       1.800  -0.328   7.518  0.00  0.00    -0.379 OA
ATOM     22  C   UNL     1       1.996  -0.678   6.135  0.00  0.00    +0.165 C 
ENDBRANCH  17  18
ENDBRANCH   4  17
TORSDOF 5
