REMARK  Name = ZINC28916706
REMARK  9 active torsions:
REMARK  status: ('A' for Active; 'I' for Inactive)
REMARK    1  A    between atoms: C_1  and  C_2
REMARK    2  A    between atoms: C_3  and  C_28
REMARK    3  A    between atoms: C_4  and  C_18
REMARK    4  A    between atoms: N_9  and  C_10
REMARK    5  A    between atoms: C_15  and  O_16
REMARK    6  A    between atoms: O_16  and  C_17
REMARK    7  A    between atoms: C_22  and  N_24
REMARK    8  A    between atoms: N_30  and  C_31
REMARK    9  A    between atoms: N_30  and  C_32
REMARK                            x       y       z     vdW  Elec       q    Type
REMARK                         _______ _______ _______ _____ _____    ______ ____
ROOT
ATOM      1  C   UNL     1      -0.033   1.508   0.101  0.00  0.00    +0.062 C 
ATOM      2  C   UNL     1       0.005   0.003   0.047  0.00  0.00    +0.025 C 
ATOM      3  C   UNL     1      -1.153  -0.690   0.015  0.00  0.00    +0.056 C 
ATOM      4  C   UNL     1      -1.069  -2.202  -0.039  0.00  0.00    +0.139 C 
ATOM      5  N   UNL     1       0.279  -2.796  -0.052  0.00  0.00    -0.315 N 
ATOM      6  C   UNL     1       1.344  -1.971  -0.015  0.00  0.00    +0.142 C 
ATOM      7  S   UNL     1       2.916  -2.647  -0.031  0.00  0.00    -0.018 S 
ATOM      8  N   UNL     1       1.212  -0.639   0.026  0.00  0.00    -0.252 N 
ATOM      9  H   UNL     1       0.397  -3.758  -0.085  0.00  0.00    +0.149 HD
ENDROOT
BRANCH   4  10
ATOM     10  C   UNL     1      -1.806  -2.751   1.156  0.00  0.00    -0.020 A 
ATOM     11  C   UNL     1      -1.237  -2.675   2.414  0.00  0.00    +0.007 A 
ATOM     12  C   UNL     1      -1.913  -3.178   3.509  0.00  0.00    +0.022 A 
ATOM     13  C   UNL     1      -3.159  -3.758   3.347  0.00  0.00    +0.071 A 
ATOM     14  C   UNL     1      -3.727  -3.834   2.089  0.00  0.00    +0.145 A 
ATOM     15  C   UNL     1      -3.053  -3.325   0.994  0.00  0.00    +0.040 A 
ATOM     16 CL   UNL     1      -4.008  -4.390   4.723  0.00  0.00    -0.081 Cl
BRANCH  14  17
ATOM     17  N   UNL     1      -5.060  -4.453   1.915  0.00  0.00    +0.058 N 
ATOM     18  O   UNL     1      -5.557  -4.520   0.814  0.00  0.00    -0.126 OA
ATOM     19  O   UNL     1      -5.652  -4.894   2.873  0.00  0.00    -0.126 OA
ENDBRANCH  14  17
ENDBRANCH   4  10
BRANCH   8  20
ATOM     20  C   UNL     1       2.377   0.141   0.056  0.00  0.00    +0.082 A 
ATOM     21  C   UNL     1       2.956   0.480   1.270  0.00  0.00    +0.027 A 
ATOM     22  C   UNL     1       4.104   1.249   1.296  0.00  0.00    +0.002 A 
ATOM     23  C   UNL     1       4.678   1.682   0.115  0.00  0.00    +0.004 A 
ATOM     24  C   UNL     1       4.106   1.348  -1.099  0.00  0.00    +0.047 A 
ATOM     25  C   UNL     1       2.958   0.573  -1.134  0.00  0.00    +0.142 A 
BRANCH  25  26
ATOM     26  O   UNL     1       2.399   0.238  -2.327  0.00  0.00    -0.493 OA
ATOM     27  C   UNL     1       3.050   0.716  -3.506  0.00  0.00    +0.277 C 
ENDBRANCH  25  26
ENDBRANCH   8  20
BRANCH   3  28
ATOM     28  C   UNL     1      -2.404  -0.027   0.032  0.00  0.00    +0.246 C 
ATOM     29  O   UNL     1      -3.065   0.002   1.054  0.00  0.00    -0.270 OA
ATOM     30  N   UNL     1      -2.864   0.574  -1.084  0.00  0.00    -0.304 N 
ATOM     31  C   UNL     1      -4.095   1.366  -1.036  0.00  0.00    +0.132 C 
ATOM     32  C   UNL     1      -2.131   0.434  -2.345  0.00  0.00    +0.132 C 
ENDBRANCH   3  28
TORSDOF 5
