REMARK  Name = ZINC66859943
REMARK  9 active torsions:
REMARK  status: ('A' for Active; 'I' for Inactive)
REMARK    1  A    between atoms: C_1  and  C_2
REMARK    2  A    between atoms: C_2  and  C_3
REMARK    3  A    between atoms: C_2  and  N_4
REMARK    4  A    between atoms: C_5  and  C_7
REMARK    5  A    between atoms: C_10  and  N_16
REMARK    6  A    between atoms: C_11  and  N_13
REMARK    7  A    between atoms: N_16  and  C_17
REMARK    8  A    between atoms: C_17  and  C_18
REMARK    9  A    between atoms: C_18  and  O_28
REMARK                            x       y       z     vdW  Elec       q    Type
REMARK                         _______ _______ _______ _____ _____    ______ ____
ROOT
ATOM      1  C   UNL     1      -3.194  -2.049  -0.844  0.00  0.00    +0.039 A 
ATOM      2  C   UNL     1      -4.160  -1.389  -0.078  0.00  0.00    +0.015 A 
ATOM      3  C   UNL     1      -5.420  -1.926   0.049  0.00  0.00    +0.026 A 
ATOM      4  C   UNL     1      -5.734  -3.127  -0.583  0.00  0.00    +0.058 A 
ATOM      5  C   UNL     1      -4.774  -3.787  -1.345  0.00  0.00    +0.148 A 
ATOM      6  C   UNL     1      -3.514  -3.251  -1.481  0.00  0.00    +0.047 A 
ENDROOT
BRANCH   1   8
ATOM      7  N   UNL     1      -1.536  -0.316  -0.367  0.00  0.00    -0.309 N 
ATOM      8  C   UNL     1      -1.843  -1.474  -0.982  0.00  0.00    +0.244 C 
ATOM      9  O   UNL     1      -1.005  -2.047  -1.653  0.00  0.00    -0.270 OA
ATOM     10  H   UNL     1      -2.204   0.141   0.168  0.00  0.00    +0.149 HD
BRANCH   7  12
ATOM     11  C   UNL     1      -0.257   1.767  -0.284  0.00  0.00    +0.027 C 
ATOM     12  C   UNL     1      -0.194   0.255  -0.505  0.00  0.00    +0.067 C 
ATOM     13  C   UNL     1       0.737  -0.374   0.535  0.00  0.00    +0.027 C 
ENDBRANCH   7  12
ENDBRANCH   1   8
BRANCH   5  14
ATOM     14  N   UNL     1      -5.111  -5.063  -2.015  0.00  0.00    +0.058 N 
ATOM     15  O   UNL     1      -4.287  -5.945  -2.084  0.00  0.00    -0.126 OA
ATOM     16  O   UNL     1      -6.210  -5.223  -2.492  0.00  0.00    -0.126 OA
ENDBRANCH   5  14
BRANCH   4  17
ATOM     17  N   UNL     1      -7.008  -3.668  -0.452  0.00  0.00    -0.339 N 
ATOM     18  H   UNL     1      -7.226  -4.506  -0.889  0.00  0.00    +0.146 HD
BRANCH  17  19
ATOM     19  C   UNL     1      -8.021  -2.972   0.346  0.00  0.00    +0.141 C 
BRANCH  19  20
ATOM     20  C   UNL     1      -9.308  -3.799   0.369  0.00  0.00    +0.106 C 
ATOM     21  C   UNL     1      -9.731  -4.113  -1.064  0.00  0.00    +0.041 C 
ATOM     22  C   UNL     1     -11.126  -4.748  -1.029  0.00  0.00    +0.008 C 
ATOM     23  C   UNL     1     -12.134  -3.673  -0.626  0.00  0.00    +0.035 C 
ATOM     24  C   UNL     1     -11.683  -2.967   0.626  0.00  0.00    -0.041 A 
ATOM     25  C   UNL     1     -10.385  -3.022   1.081  0.00  0.00    -0.011 A 
ATOM     26  C   UNL     1     -10.033  -2.342   2.240  0.00  0.00    +0.007 A 
ATOM     27  C   UNL     1     -10.975  -1.616   2.940  0.00  0.00    +0.000 A 
ATOM     28  C   UNL     1     -12.279  -1.565   2.485  0.00  0.00    +0.000 A 
ATOM     29  C   UNL     1     -12.630  -2.237   1.333  0.00  0.00    +0.004 A 
BRANCH  20  30
ATOM     30  O   UNL     1      -9.070  -5.022   1.069  0.00  0.00    -0.382 OA
ATOM     31  H   UNL     1      -8.788  -4.902   1.986  0.00  0.00    +0.211 HD
ENDBRANCH  20  30
ENDBRANCH  19  20
ENDBRANCH  17  19
ENDBRANCH   4  17
TORSDOF 7
