REMARK  Name = ZINC45471460
REMARK  11 active torsions:
REMARK  status: ('A' for Active; 'I' for Inactive)
REMARK    1  A    between atoms: C_1  and  C_2
REMARK    2  A    between atoms: C_2  and  C_3
REMARK    3  A    between atoms: C_2  and  C_4
REMARK    4  A    between atoms: C_7  and  C_10
REMARK    5  A    between atoms: C_12  and  C_15
REMARK    6  A    between atoms: C_15  and  N_16
REMARK    7  A    between atoms: N_16  and  C_17
REMARK    8  A    between atoms: C_17  and  C_19
REMARK    9  A    between atoms: C_17  and  C_26
REMARK   10  A    between atoms: C_26  and  C_27
REMARK   11  A    between atoms: C_26  and  C_28
REMARK                            x       y       z     vdW  Elec       q    Type
REMARK                         _______ _______ _______ _____ _____    ______ ____
ROOT
ATOM      1  C   UNL     1      -8.286  -3.978  -2.068  0.00  0.00    +0.019 C 
ENDROOT
BRANCH   1   4
ATOM      2  C   UNL     1      -5.623  -1.757  -0.995  0.00  0.00    +0.202 A 
ATOM      3  N   UNL     1      -6.129  -2.750  -1.748  0.00  0.00    -0.193 NA
ATOM      4  C   UNL     1      -7.379  -2.950  -1.442  0.00  0.00    +0.211 A 
ATOM      5  O   UNL     1      -7.723  -2.088  -0.476  0.00  0.00    -0.340 OA
ATOM      6  N   UNL     1      -6.563  -1.320  -0.193  0.00  0.00    -0.056 NA
BRANCH   2  10
ATOM      7  C   UNL     1      -1.635  -0.292  -1.175  0.00  0.00    -0.045 A 
ATOM      8  C   UNL     1      -2.532   0.260  -0.279  0.00  0.00    +0.004 A 
ATOM      9  C   UNL     1      -3.828  -0.211  -0.217  0.00  0.00    +0.012 A 
ATOM     10  C   UNL     1      -4.231  -1.246  -1.058  0.00  0.00    +0.022 A 
ATOM     11  C   UNL     1      -3.324  -1.799  -1.959  0.00  0.00    +0.012 A 
ATOM     12  C   UNL     1      -2.032  -1.316  -2.017  0.00  0.00    +0.004 A 
BRANCH   7  14
ATOM     13  C   UNL     1      -0.240   1.714  -1.594  0.00  0.00    +0.012 C 
ATOM     14  C   UNL     1      -0.222   0.226  -1.238  0.00  0.00    +0.013 C 
ATOM     15  C   UNL     1       0.454   0.035   0.121  0.00  0.00    +0.012 C 
ENDBRANCH   7  14
ENDBRANCH   2  10
ENDBRANCH   1   4
BRANCH   1  16
ATOM     16  N   UNL     1      -8.198  -5.234  -1.313  0.00  0.00    +0.390 N 
ATOM     17  H   UNL     1      -7.251  -5.582  -1.347  0.00  0.00    -0.084 HD
ATOM     18  H   UNL     1      -8.461  -5.069  -0.353  0.00  0.00    -0.084 HD
BRANCH  16  19
ATOM     19  C   UNL     1      -9.106  -6.226  -1.905  0.00  0.00    -0.038 C 
BRANCH  19  20
ATOM     20  C   UNL     1     -10.531  -5.769  -1.730  0.00  0.00    -0.061 A 
ATOM     21  C   UNL     1     -10.925  -5.169  -0.549  0.00  0.00    +0.005 A 
ATOM     22  C   UNL     1     -12.232  -4.750  -0.388  0.00  0.00    +0.038 A 
ATOM     23  C   UNL     1     -13.147  -4.931  -1.411  0.00  0.00    +0.123 A 
ATOM     24  C   UNL     1     -12.752  -5.532  -2.594  0.00  0.00    +0.038 A 
ATOM     25  C   UNL     1     -11.443  -5.946  -2.754  0.00  0.00    +0.005 A 
ATOM     26  F   UNL     1     -14.425  -4.521  -1.255  0.00  0.00    -0.205 F 
ENDBRANCH  19  20
BRANCH  19  27
ATOM     27  C   UNL     1      -8.913  -7.574  -1.207  0.00  0.00    -0.027 C 
ATOM     28  C   UNL     1      -9.893  -8.595  -1.790  0.00  0.00    +0.006 C 
ATOM     29  C   UNL     1      -7.479  -8.061  -1.425  0.00  0.00    +0.006 C 
ENDBRANCH  19  27
ENDBRANCH  16  19
ENDBRANCH   1  16
TORSDOF 7
