REMARK  Name = ZINC66357296
REMARK  9 active torsions:
REMARK  status: ('A' for Active; 'I' for Inactive)
REMARK    1  A    between atoms: C_1  and  C_2
REMARK    2  A    between atoms: C_2  and  N_3
REMARK    3  A    between atoms: N_3  and  C_4
REMARK    4  A    between atoms: C_4  and  C_5
REMARK    5  A    between atoms: C_11  and  C_13
REMARK    6  A    between atoms: C_13  and  N_14
REMARK    7  A    between atoms: N_17  and  C_18
REMARK    8  A    between atoms: C_18  and  C_19
REMARK    9  A    between atoms: C_24  and  C_28
REMARK                            x       y       z     vdW  Elec       q    Type
REMARK                         _______ _______ _______ _____ _____    ______ ____
ROOT
ATOM      1  N   UNL     1      -2.026  -0.790  -3.684  0.00  0.00    -0.291 N 
ATOM      2  C   UNL     1      -3.343  -0.657  -3.940  0.00  0.00    +0.300 C 
ATOM      3  O   UNL     1      -4.096  -0.274  -3.065  0.00  0.00    -0.253 OA
ATOM      4  N   UNL     1      -3.825  -0.949  -5.164  0.00  0.00    -0.294 N 
ATOM      5  H   UNL     1      -1.425  -1.096  -4.382  0.00  0.00    +0.151 HD
ATOM      6  H   UNL     1      -3.224  -1.255  -5.862  0.00  0.00    +0.151 HD
ENDROOT
BRANCH   1   7
ATOM      7  C   UNL     1      -1.502  -0.473  -2.354  0.00  0.00    +0.201 C 
BRANCH   7   9
ATOM      8  N   UNL     1       0.688  -0.476  -1.203  0.00  0.00    -0.296 N 
ATOM      9  C   UNL     1      -0.013  -0.705  -2.332  0.00  0.00    +0.233 C 
ATOM     10  O   UNL     1       0.555  -1.096  -3.330  0.00  0.00    -0.274 OA
BRANCH   8  12
ATOM     11  C   UNL     1      -0.019   1.526   0.010  0.00  0.00    +0.024 C 
ATOM     12  C   UNL     1       0.002  -0.004   0.002  0.00  0.00    +0.105 C 
ENDBRANCH   8  12
BRANCH   8  13
ATOM     13  C   UNL     1       2.135  -0.701  -1.182  0.00  0.00    +0.142 C 
BRANCH  13  14
ATOM     14  C   UNL     1       2.417  -2.123  -0.770  0.00  0.00    -0.030 A 
ATOM     15  C   UNL     1       2.576  -2.436   0.567  0.00  0.00    +0.005 A 
ATOM     16  C   UNL     1       2.835  -3.741   0.945  0.00  0.00    +0.000 A 
ATOM     17  C   UNL     1       2.933  -4.732  -0.013  0.00  0.00    +0.000 A 
ATOM     18  C   UNL     1       2.773  -4.418  -1.350  0.00  0.00    +0.000 A 
ATOM     19  C   UNL     1       2.510  -3.115  -1.728  0.00  0.00    +0.005 A 
ENDBRANCH  13  14
ENDBRANCH   8  13
ENDBRANCH   7   9
ENDBRANCH   1   7
BRANCH   4  20
ATOM     20  C   UNL     1      -5.256  -0.804  -5.441  0.00  0.00    +0.160 C 
BRANCH  20  21
ATOM     21  C   UNL     1      -5.532  -1.191  -6.872  0.00  0.00    +0.051 A 
ATOM     22  C   UNL     1      -5.598  -0.340  -7.919  0.00  0.00    +0.115 A 
ATOM     23  N   UNL     1      -5.866  -1.090  -9.032  0.00  0.00    -0.308 N 
ATOM     24  C   UNL     1      -6.037  -0.763 -10.346  0.00  0.00    +0.093 A 
ATOM     25  C   UNL     1      -6.298  -1.718 -11.264  0.00  0.00    +0.021 A 
ATOM     26  C   UNL     1      -6.397  -3.065 -10.876  0.00  0.00    -0.046 A 
ATOM     27  C   UNL     1      -6.229  -3.404  -9.570  0.00  0.00    +0.048 A 
ATOM     28  C   UNL     1      -5.956  -2.395  -8.624  0.00  0.00    +0.116 A 
ATOM     29  N   UNL     1      -5.746  -2.432  -7.316  0.00  0.00    -0.342 N 
ATOM     30  C   UNL     1      -6.689  -4.128 -11.903  0.00  0.00    +0.044 C 
ATOM     31  H   UNL     1      -5.749  -3.232  -6.768  0.00  0.00    +0.167 HD
ENDBRANCH  20  21
ENDBRANCH   4  20
TORSDOF 7
