REMARK  Name = ZINC44606667
REMARK  18 active torsions:
REMARK  status: ('A' for Active; 'I' for Inactive)
REMARK    1  A    between atoms: C_4  and  C_7
REMARK    2  A    between atoms: C_7  and  C_8
REMARK    3  A    between atoms: C_8  and  C_9
REMARK    4  A    between atoms: C_9  and  C_11
REMARK    5  A    between atoms: C_9  and  O_37
REMARK    6  A    between atoms: C_12  and  C_13
REMARK    7  A    between atoms: C_15  and  O_36
REMARK    8  A    between atoms: C_20  and  C_22
REMARK    9  A    between atoms: C_22  and  C_23
REMARK   10  A    between atoms: C_24  and  C_25
REMARK   11  A    between atoms: C_25  and  C_26
REMARK   12  A    between atoms: C_26  and  C_27
REMARK   13  A    between atoms: C_27  and  C_28
REMARK   14  A    between atoms: N_30  and  CA_31
REMARK   15  A    between atoms: CA_31  and  CB_32
REMARK   16  A    between atoms: CA_31  and  C_34
REMARK   17  A    between atoms: CB_32  and  OG_33
REMARK   18  A    between atoms: C_34  and  O_35
REMARK                            x       y       z     vdW  Elec       q    Type
REMARK                         _______ _______ _______ _____ _____    ______ ____
ROOT
ATOM      1  C   UNK A   0       6.482  -3.682   4.912  0.00  0.00    +0.051 C 
ATOM      2  C   UNK A   0       5.539  -4.553   5.780  0.00  0.00    +0.129 C 
ATOM      3  C   UNK A   0       6.501  -5.102   6.864  0.00  0.00    +0.106 C 
ATOM      4  C   UNK A   0       7.798  -5.367   6.120  0.00  0.00    +0.140 C 
ATOM      5  O   UNK A   0       8.664  -6.143   6.445  0.00  0.00    -0.297 OA
ATOM      6  C   UNK A   0       7.806  -4.475   4.893  0.00  0.00    +0.068 C 
ENDROOT
BRANCH   2   7
ATOM      7  O   UNK A   0       4.508  -3.757   6.367  0.00  0.00    -0.391 OA
ATOM      8  H   UNK A   0       3.892  -4.256   6.920  0.00  0.00    +0.210 HD
ENDBRANCH   2   7
BRANCH   1  10
ATOM      9  C   UNK A   0       5.714  -2.345   3.019  0.00  0.00    -0.000 C 
ATOM     10  C   UNK A   0       5.933  -3.537   3.516  0.00  0.00    -0.022 C 
BRANCH   9  11
ATOM     11  C   UNK A   0       5.164  -2.199   1.624  0.00  0.00    +0.137 C 
BRANCH  11  12
ATOM     12  O   UNK A   0       6.089  -1.461   0.822  0.00  0.00    -0.388 OA
ATOM     13  H   UNK A   0       6.271  -0.570   1.152  0.00  0.00    +0.210 HD
ENDBRANCH  11  12
BRANCH  11  14
ATOM     14  C   UNK A   0       3.828  -1.455   1.677  0.00  0.00    +0.040 C 
BRANCH  14  15
ATOM     15  C   UNK A   0       3.210  -1.417   0.278  0.00  0.00    +0.038 C 
BRANCH  15  19
ATOM     16  C   UNK A   0      -0.520   0.660   0.424  0.00  0.00    +0.000 A 
ATOM     17  C   UNK A   0       0.649   1.356   0.180  0.00  0.00    +0.000 A 
ATOM     18  C   UNK A   0       1.856   0.684   0.133  0.00  0.00    +0.003 A 
ATOM     19  C   UNK A   0       1.894  -0.684   0.330  0.00  0.00    -0.047 A 
ATOM     20  C   UNK A   0       0.725  -1.380   0.575  0.00  0.00    +0.003 A 
ATOM     21  C   UNK A   0      -0.482  -0.708   0.621  0.00  0.00    +0.000 A 
ENDBRANCH  15  19
ENDBRANCH  14  15
ENDBRANCH  11  14
ENDBRANCH   9  11
ENDBRANCH   1  10
BRANCH   6  22
ATOM     22  C   UNK A   0       8.993  -3.511   4.951  0.00  0.00    +0.038 C 
BRANCH  22  23
ATOM     23  C   UNK A   0      10.277  -4.287   4.809  0.00  0.00    -0.030 C 
ATOM     24  C   UNK A   0      11.158  -3.936   3.905  0.00  0.00    -0.031 C 
BRANCH  24  25
ATOM     25  C   UNK A   0      10.968  -2.662   3.123  0.00  0.00    +0.027 C 
BRANCH  25  26
ATOM     26  C   UNK A   0      12.225  -1.798   3.243  0.00  0.00    +0.013 C 
BRANCH  26  27
ATOM     27  C   UNK A   0      12.032  -0.504   2.449  0.00  0.00    +0.096 C 
BRANCH  27  28
ATOM     28  C   UNK A   0      13.270   0.347   2.567  0.00  0.00    +0.213 C 
ATOM     29  O   UNK A   0      14.214  -0.043   3.222  0.00  0.00    -0.276 OA
ATOM     30  N   SER A   1      13.329   1.541   1.945  0.00  0.00    -0.308 N 
ATOM     31  H   SER A   1      12.574   1.853   1.422  0.00  0.00    +0.149 HD
BRANCH  30  32
ATOM     32  CA  SER A   1      14.533   2.368   2.060  0.00  0.00    +0.124 C 
BRANCH  32  33
ATOM     33  C   SER A   1      14.457   3.203   3.340  0.00  0.00    +0.180 C 
BRANCH  33  34
ATOM     34  O   SER A   1      13.371   4.127   3.243  0.00  0.00    -0.393 OA
ATOM     35  H   SER A   1      13.264   4.691   4.021  0.00  0.00    +0.209 HD
ENDBRANCH  33  34
ENDBRANCH  32  33
BRANCH  32  36
ATOM     36  CB  SER A   1      14.629   3.299   0.849  0.00  0.00    +0.180 C 
BRANCH  36  37
ATOM     37  OG  SER A   1      13.536   4.218   0.866  0.00  0.00    -0.393 OA
ATOM     38  H   SER A   1      13.533   4.840   0.126  0.00  0.00    +0.209 HD
ENDBRANCH  36  37
ENDBRANCH  32  36
ENDBRANCH  30  32
ENDBRANCH  27  28
ENDBRANCH  26  27
ENDBRANCH  25  26
ENDBRANCH  24  25
ENDBRANCH  22  23
ENDBRANCH   6  22
TORSDOF 18
