REMARK  Name = ZINC20558233
REMARK  5 active torsions:
REMARK  status: ('A' for Active; 'I' for Inactive)
REMARK    1  A    between atoms: C_4  and  C_7
REMARK    2  A    between atoms: C_7  and  N_8
REMARK    3  A    between atoms: C_20  and  C_28
REMARK    4  A    between atoms: C_22  and  C_26
REMARK    5  A    between atoms: C_23  and  N_25
REMARK                            x       y       z     vdW  Elec       q    Type
REMARK                         _______ _______ _______ _____ _____    ______ ____
ROOT
ATOM      1  N   UNL     1       0.996   3.284  -0.039  0.00  0.00    -0.198 N 
ATOM      2  C   UNL     1       0.877   1.904  -0.244  0.00  0.00    +0.062 A 
ATOM      3  C   UNL     1      -0.394   1.354  -0.354  0.00  0.00    +0.025 A 
ATOM      4  C   UNL     1      -0.547  -0.006  -0.535  0.00  0.00    +0.002 A 
ATOM      5  C   UNL     1       0.566  -0.826  -0.608  0.00  0.00    +0.001 A 
ATOM      6  C   UNL     1       1.832  -0.292  -0.504  0.00  0.00    +0.013 A 
ATOM      7  C   UNL     1       2.004   1.086  -0.324  0.00  0.00    +0.042 A 
ATOM      8  C   UNL     1       3.390   1.605  -0.239  0.00  0.00    +0.162 C 
ATOM      9  C   UNL     1       3.656   2.808   0.260  0.00  0.00    +0.141 C 
ATOM     10  S   UNL     1       2.314   3.809   0.833  0.00  0.00    +0.076 S 
ATOM     11  O   UNL     1       2.583   5.141   0.419  0.00  0.00    -0.150 OA
ATOM     12  O   UNL     1       2.081   3.457   2.190  0.00  0.00    -0.150 OA
ATOM     13  C   UNL     1       5.061   3.336   0.350  0.00  0.00    +0.121 C 
ATOM     14  C   UNL     1       6.048   2.208   0.224  0.00  0.00    +0.099 C 
ATOM     15  C   UNL     1       5.658   1.013  -0.287  0.00  0.00    +0.199 C 
ATOM     16  O   UNL     1       4.395   0.808  -0.692  0.00  0.00    -0.439 OA
ENDROOT
BRANCH  13  17
ATOM     17  C   UNL     1       5.294   4.327  -0.761  0.00  0.00    +0.002 A 
ATOM     18  C   UNL     1       5.168   3.930  -2.079  0.00  0.00    +0.007 A 
ATOM     19  C   UNL     1       5.382   4.839  -3.098  0.00  0.00    +0.000 A 
ATOM     20  C   UNL     1       5.720   6.146  -2.801  0.00  0.00    +0.003 A 
ATOM     21  C   UNL     1       5.846   6.545  -1.484  0.00  0.00    +0.038 A 
ATOM     22  C   UNL     1       5.628   5.637  -0.462  0.00  0.00    +0.128 A 
ATOM     23  F   UNL     1       5.746   6.027   0.826  0.00  0.00    -0.205 F 
ENDBRANCH  13  17
BRANCH  15  24
ATOM     24  N   UNL     1       6.573  -0.005  -0.392  0.00  0.00    -0.328 N 
ATOM     25  H   UNL     1       6.268  -0.978  -0.804  0.00  0.00    +0.145 HD
ATOM     26  H   UNL     1       7.610   0.152  -0.062  0.00  0.00    +0.145 HD
ENDBRANCH  15  24
BRANCH  14  27
ATOM     27  C   UNL     1       7.404   2.396   0.644  0.00  0.00    +0.101 C 
ATOM     28  N   UNL     1       8.480   2.546   0.978  0.00  0.00    -0.191 NA
ENDBRANCH  14  27
BRANCH   1  29
ATOM     29  C   UNL     1       0.005   4.225  -0.569  0.00  0.00    +0.166 C 
BRANCH  29  33
ATOM     30  C   UNL     1       0.905   5.091  -4.654  0.00  0.00    +0.000 A 
ATOM     31  C   UNL     1       0.166   3.968  -4.332  0.00  0.00    +0.000 A 
ATOM     32  C   UNL     1      -0.125   3.688  -3.010  0.00  0.00    +0.005 A 
ATOM     33  C   UNL     1       0.323   4.530  -2.010  0.00  0.00    -0.028 A 
ATOM     34  C   UNL     1       1.058   5.656  -2.332  0.00  0.00    +0.005 A 
ATOM     35  C   UNL     1       1.354   5.933  -3.654  0.00  0.00    +0.000 A 
ENDBRANCH  29  33
ENDBRANCH   1  29
TORSDOF 5
