REMARK  Name = ZINC63801429
REMARK  6 active torsions:
REMARK  status: ('A' for Active; 'I' for Inactive)
REMARK    1  A    between atoms: C_7  and  C_10
REMARK    2  A    between atoms: C_10  and  C_11
REMARK    3  A    between atoms: N_13  and  N_14
REMARK    4  A    between atoms: C_15  and  C_17
REMARK    5  A    between atoms: C_17  and  O_18
REMARK    6  A    between atoms: O_18  and  C_19
REMARK                            x       y       z     vdW  Elec       q    Type
REMARK                         _______ _______ _______ _____ _____    ______ ____
ROOT
ATOM      1  C   UNL     1       0.460  -3.646  -1.440  0.00  0.00    +0.233 C 
ATOM      2  O   UNL     1       1.006  -3.075  -2.360  0.00  0.00    -0.274 OA
ATOM      3  N   UNL     1      -0.353  -4.693  -1.684  0.00  0.00    -0.234 N 
ATOM      4  H   UNL     1      -0.790  -5.150  -0.948  0.00  0.00    +0.173 HD
ENDROOT
BRANCH   3   5
ATOM      5  N   UNL     1      -0.567  -5.122  -3.001  0.00  0.00    -0.232 N 
ATOM      6  C   UNL     1      -1.380  -6.168  -3.245  0.00  0.00    +0.267 C 
ATOM      7  O   UNL     1      -1.926  -6.740  -2.325  0.00  0.00    -0.271 OA
ATOM      8  H   UNL     1      -0.131  -4.665  -3.737  0.00  0.00    +0.173 HD
BRANCH   6   9
ATOM      9  C   UNL     1      -1.611  -6.629  -4.661  0.00  0.00    +0.326 C 
BRANCH   9  10
ATOM     10  O   UNL     1      -2.503  -7.745  -4.660  0.00  0.00    -0.480 OA
BRANCH  10  11
ATOM     11  C   UNL     1      -2.818  -8.286  -5.867  0.00  0.00    +0.156 A 
ATOM     12  C   UNL     1      -2.274  -7.757  -7.028  0.00  0.00    +0.050 A 
ATOM     13  C   UNL     1      -2.594  -8.307  -8.254  0.00  0.00    +0.019 A 
ATOM     14  C   UNL     1      -3.457  -9.386  -8.325  0.00  0.00    +0.021 A 
ATOM     15  C   UNL     1      -4.002  -9.917  -7.170  0.00  0.00    +0.057 A 
ATOM     16  C   UNL     1      -3.679  -9.373  -5.939  0.00  0.00    +0.166 A 
ATOM     17  F   UNL     1      -4.206  -9.895  -4.810  0.00  0.00    -0.202 F 
ATOM     18 BR   UNL     1      -3.894 -10.136 -10.005  0.00  0.00    -0.050 Br
ENDBRANCH  10  11
ENDBRANCH   9  10
ENDBRANCH   6   9
ENDBRANCH   3   5
BRANCH   1  19
ATOM     19  C   UNL     1       0.691  -3.186  -0.024  0.00  0.00    +0.130 C 
BRANCH  19  26
ATOM     20  C   UNL     1      -0.016   1.348   0.009  0.00  0.00    +0.001 A 
ATOM     21  C   UNL     1       1.166   2.101   0.002  0.00  0.00    +0.002 A 
ATOM     22  C   UNL     1       2.391   1.535  -0.013  0.00  0.00    +0.026 A 
ATOM     23  C   UNL     1       2.529   0.120  -0.022  0.00  0.00    +0.043 A 
ATOM     24  N   UNL     1       3.587  -0.654  -0.037  0.00  0.00    -0.380 N 
ATOM     25  C   UNL     1       3.143  -2.053  -0.041  0.00  0.00    +0.145 C 
ATOM     26  C   UNL     1       1.631  -2.008  -0.025  0.00  0.00    -0.033 C 
ATOM     27  C   UNL     1       1.295  -0.698  -0.014  0.00  0.00    -0.001 A 
ATOM     28  C   UNL     1       0.002  -0.004   0.002  0.00  0.00    +0.010 A 
ATOM     29  H   UNL     1       4.509  -0.353  -0.045  0.00  0.00    +0.160 HD
ENDBRANCH  19  26
ENDBRANCH   1  19
TORSDOF 6
