REMARK  Name = ZINC59461651
REMARK  7 active torsions:
REMARK  status: ('A' for Active; 'I' for Inactive)
REMARK    1  A    between atoms: C_7  and  N_15
REMARK    2  A    between atoms: C_10  and  S_11
REMARK    3  A    between atoms: N_15  and  N_16
REMARK    4  A    between atoms: C_18  and  C_26
REMARK    5  A    between atoms: N_20  and  C_23
REMARK    6  A    between atoms: C_23  and  N_25
REMARK    7  A    between atoms: C_29  and  N_32
REMARK                            x       y       z     vdW  Elec       q    Type
REMARK                         _______ _______ _______ _____ _____    ______ ____
ROOT
ATOM      1  N   UNL     1       0.177  -4.132  -0.063  0.00  0.00    -0.175 NA
ATOM      2  C   UNL     1      -0.934  -4.844  -0.057  0.00  0.00    +0.173 C 
ATOM      3  C   UNL     1      -1.060  -6.316  -0.100  0.00  0.00    +0.122 C 
ATOM      4  N   UNL     1      -2.336  -6.597  -0.076  0.00  0.00    -0.168 NA
ATOM      5  N   UNL     1      -3.109  -5.439  -0.019  0.00  0.00    -0.134 N 
ATOM      6  C   UNL     1      -2.318  -4.348   0.001  0.00  0.00    +0.294 C 
ATOM      7  O   UNL     1      -2.676  -3.184   0.053  0.00  0.00    -0.266 OA
ENDROOT
BRANCH   3   8
ATOM      8  C   UNL     1       0.053  -7.292  -0.160  0.00  0.00    +0.004 A 
ATOM      9  C   UNL     1       1.374  -6.846  -0.174  0.00  0.00    +0.012 A 
ATOM     10  C   UNL     1       2.407  -7.760  -0.230  0.00  0.00    +0.033 A 
ATOM     11  C   UNL     1       2.133  -9.115  -0.271  0.00  0.00    +0.126 A 
ATOM     12  C   UNL     1       0.825  -9.563  -0.257  0.00  0.00    +0.033 A 
ATOM     13  C   UNL     1      -0.216  -8.660  -0.195  0.00  0.00    +0.012 A 
BRANCH  11  14
ATOM     14  N   UNL     1       3.246 -10.090  -0.331  0.00  0.00    +0.056 N 
ATOM     15  O   UNL     1       4.390  -9.701  -0.343  0.00  0.00    -0.126 OA
ATOM     16  O   UNL     1       3.009 -11.275  -0.367  0.00  0.00    -0.126 OA
ENDBRANCH  11  14
ENDBRANCH   3   8
BRANCH   1  17
ATOM     17  N   UNL     1       0.118  -2.844  -0.016  0.00  0.00    -0.236 N 
ATOM     18  H   UNL     1      -0.743  -2.399   0.025  0.00  0.00    +0.174 HD
BRANCH  17  25
ATOM     19  C   UNL     1      -0.014   1.355   0.137  0.00  0.00    +0.001 A 
ATOM     20  C   UNL     1       1.171   2.088   0.130  0.00  0.00    +0.001 A 
ATOM     21  C   UNL     1       2.380   1.465   0.074  0.00  0.00    +0.010 A 
ATOM     22  C   UNL     1       2.437   0.061   0.022  0.00  0.00    +0.011 A 
ATOM     23  C   UNL     1       1.231  -0.683   0.029  0.00  0.00    +0.007 A 
ATOM     24  C   UNL     1       0.004  -0.006   0.088  0.00  0.00    +0.010 A 
ATOM     25  C   UNL     1       1.288  -2.093  -0.022  0.00  0.00    +0.056 A 
ATOM     26  C   UNL     1       2.517  -2.719  -0.080  0.00  0.00    +0.027 A 
ATOM     27  C   UNL     1       3.693  -1.977  -0.086  0.00  0.00    +0.032 A 
ATOM     28  C   UNL     1       3.667  -0.616  -0.036  0.00  0.00    +0.127 A 
BRANCH  28  29
ATOM     29  S   UNL     1       5.175   0.296  -0.047  0.00  0.00    +0.140 S 
ATOM     30  O   UNL     1       5.487   0.612   1.339  0.00  0.00    -0.140 OA
ATOM     31  O   UNL     1       6.183  -0.562  -0.649  0.00  0.00    -0.140 OA
ATOM     32  O   UNL     1       4.938   1.494  -0.837  0.00  0.00    -0.043 OA
ENDBRANCH  28  29
ENDBRANCH  17  25
ENDBRANCH   1  17
BRANCH   5  33
ATOM     33  C   UNL     1      -4.456  -5.413   0.016  0.00  0.00    +0.158 C 
ATOM     34  S   UNL     1      -5.282  -3.915   0.084  0.00  0.00    -0.017 S 
BRANCH  33  35
ATOM     35  N   UNL     1      -5.153  -6.567  -0.003  0.00  0.00    -0.339 N 
ATOM     36  H   UNL     1      -4.684  -7.415  -0.041  0.00  0.00    +0.144 HD
ATOM     37  H   UNL     1      -6.122  -6.548   0.022  0.00  0.00    +0.144 HD
ENDBRANCH  33  35
ENDBRANCH   5  33
TORSDOF 7
