REMARK  Name = ZINC14394602
REMARK  9 active torsions:
REMARK  status: ('A' for Active; 'I' for Inactive)
REMARK    1  A    between atoms: C_1  and  C_2
REMARK    2  A    between atoms: C_7  and  N_12
REMARK    3  A    between atoms: C_9  and  C_11
REMARK    4  A    between atoms: N_12  and  C_13
REMARK    5  A    between atoms: C_13  and  N_15
REMARK    6  A    between atoms: N_15  and  N_16
REMARK    7  A    between atoms: C_17  and  C_19
REMARK    8  A    between atoms: C_19  and  N_20
REMARK    9  A    between atoms: N_27  and  C_30
REMARK                            x       y       z     vdW  Elec       q    Type
REMARK                         _______ _______ _______ _____ _____    ______ ____
ROOT
ATOM      1  N   UNL     1       2.342  -0.403  -0.022  0.00  0.00    -0.234 N 
ATOM      2  C   UNL     1       3.518  -1.061  -0.037  0.00  0.00    +0.249 C 
ATOM      3  O   UNL     1       4.560  -0.441  -0.044  0.00  0.00    -0.272 OA
ATOM      4  H   UNL     1       1.509  -0.900  -0.017  0.00  0.00    +0.173 HD
ENDROOT
BRANCH   1   5
ATOM      5  N   UNL     1       2.323   0.998  -0.015  0.00  0.00    -0.246 N 
ATOM      6  H   UNL     1       3.156   1.494  -0.020  0.00  0.00    +0.172 HD
BRANCH   5   7
ATOM      7  C   UNL     1       1.147   1.655   0.000  0.00  0.00    +0.147 C 
ATOM      8  S   UNL     1       1.124   3.367   0.009  0.00  0.00    -0.017 S 
BRANCH   7   9
ATOM      9  N   UNL     1      -0.011   0.966   0.007  0.00  0.00    -0.322 N 
ATOM     10  H   UNL     1       0.002  -0.004   0.002  0.00  0.00    +0.148 HD
BRANCH   9  16
ATOM     11  C   UNL     1      -4.786   0.637   1.248  0.00  0.00    +0.008 C 
ATOM     12  C   UNL     1      -3.705   1.533   0.638  0.00  0.00    -0.009 C 
ATOM     13  C   UNL     1      -4.096   1.899  -0.796  0.00  0.00    +0.003 C 
ATOM     14  C   UNL     1      -3.015   2.794  -1.405  0.00  0.00    +0.002 C 
ATOM     15  C   UNL     1      -1.680   2.047  -1.416  0.00  0.00    +0.022 C 
ATOM     16  C   UNL     1      -1.290   1.681   0.017  0.00  0.00    +0.075 C 
ATOM     17  C   UNL     1      -2.370   0.786   0.627  0.00  0.00    +0.009 C 
ATOM     18  C   UNL     1      -2.506  -0.490  -0.206  0.00  0.00    +0.009 C 
ENDBRANCH   9  16
ENDBRANCH   7   9
ENDBRANCH   5   7
ENDBRANCH   1   5
BRANCH   2  19
ATOM     19  C   UNL     1       3.539  -2.568  -0.045  0.00  0.00    +0.224 C 
BRANCH  19  20
ATOM     20  N   UNL     1       4.926  -3.038  -0.061  0.00  0.00    -0.283 N 
ATOM     21  C   UNL     1       5.709  -3.305   1.059  0.00  0.00    +0.070 A 
ATOM     22  C   UNL     1       5.475  -3.228   2.424  0.00  0.00    +0.028 A 
ATOM     23  C   UNL     1       6.476  -3.567   3.313  0.00  0.00    +0.002 A 
ATOM     24  C   UNL     1       7.711  -3.985   2.848  0.00  0.00    +0.002 A 
ATOM     25  C   UNL     1       7.953  -4.065   1.491  0.00  0.00    +0.028 A 
ATOM     26  C   UNL     1       6.955  -3.726   0.590  0.00  0.00    +0.070 A 
ATOM     27  N   UNL     1       6.891  -3.701  -0.801  0.00  0.00    -0.295 N 
ATOM     28  C   UNL     1       5.660  -3.290  -1.161  0.00  0.00    +0.330 A 
ATOM     29  O   UNL     1       5.272  -3.162  -2.308  0.00  0.00    -0.246 OA
ATOM     30  C   UNL     1       7.974  -4.067  -1.716  0.00  0.00    +0.154 C 
ENDBRANCH  19  20
ENDBRANCH   2  19
TORSDOF 6
