REMARK  Name = ZINC12511484
REMARK  6 active torsions:
REMARK  status: ('A' for Active; 'I' for Inactive)
REMARK    1  A    between atoms: C_1  and  C_2
REMARK    2  A    between atoms: C_4  and  C_17
REMARK    3  A    between atoms: C_5  and  C_16
REMARK    4  A    between atoms: N_6  and  C_7
REMARK    5  A    between atoms: C_17  and  C_19
REMARK    6  A    between atoms: C_19  and  N_20
REMARK                            x       y       z     vdW  Elec       q    Type
REMARK                         _______ _______ _______ _____ _____    ______ ____
ROOT
ATOM      1  C   UNL     1      -0.490   4.965   2.756  0.00  0.00    +0.197 C 
ENDROOT
BRANCH   1   2
ATOM      2  N   UNL     1      -0.386   3.561   2.350  0.00  0.00    -0.216 N 
ATOM      3  C   UNL     1      -1.004   3.039   1.264  0.00  0.00    +0.251 C 
ATOM      4  O   UNL     1      -1.659   3.674   0.466  0.00  0.00    -0.272 OA
ATOM      5  C   UNL     1      -0.692   1.571   1.285  0.00  0.00    +0.138 C 
ATOM      6  C   UNL     1      -0.013   1.090   0.008  0.00  0.00    +0.040 C 
ATOM      7  C   UNL     1      -0.712   1.583  -1.242  0.00  0.00    +0.003 C 
ATOM      8  C   UNL     1      -2.053   0.926  -1.505  0.00  0.00    +0.005 C 
ATOM      9  C   UNL     1      -3.110   1.433  -0.525  0.00  0.00    +0.035 C 
ATOM     10  C   UNL     1      -2.999   0.658   0.771  0.00  0.00    -0.042 A 
ATOM     11  C   UNL     1      -1.910   0.732   1.590  0.00  0.00    -0.012 A 
ATOM     12  C   UNL     1      -1.892  -0.000   2.774  0.00  0.00    +0.006 A 
ATOM     13  C   UNL     1      -2.961  -0.803   3.117  0.00  0.00    +0.000 A 
ATOM     14  C   UNL     1      -4.058  -0.884   2.280  0.00  0.00    +0.000 A 
ATOM     15  C   UNL     1      -4.076  -0.156   1.107  0.00  0.00    +0.004 A 
ATOM     16  N   UNL     1       0.263   1.433   2.405  0.00  0.00    -0.281 N 
ATOM     17  C   UNL     1       0.327   2.636   3.001  0.00  0.00    +0.310 C 
ATOM     18  O   UNL     1       0.969   2.862   4.009  0.00  0.00    -0.252 OA
ATOM     19  H   UNL     1       0.744   0.628   2.646  0.00  0.00    +0.152 HD
ENDBRANCH   1   2
BRANCH   1  20
ATOM     20  C   UNL     1       0.609   5.760   2.101  0.00  0.00    +0.183 C 
ATOM     21  O   UNL     1       1.403   5.209   1.367  0.00  0.00    -0.290 OA
BRANCH  20  25
ATOM     22  C   UNL     1      -0.254  10.466   3.853  0.00  0.00    +0.064 C 
ATOM     23  C   UNL     1       0.324   9.274   3.135  0.00  0.00    +0.022 A 
ATOM     24  C   UNL     1      -0.153   8.020   3.200  0.00  0.00    +0.034 A 
ATOM     25  C   UNL     1       0.720   7.199   2.350  0.00  0.00    +0.040 A 
ATOM     26  C   UNL     1       1.665   8.064   1.830  0.00  0.00    +0.031 A 
ATOM     27  N   UNL     1       1.413   9.297   2.309  0.00  0.00    -0.317 N 
ATOM     28  C   UNL     1       2.783   7.692   0.890  0.00  0.00    +0.064 C 
BRANCH  27  29
ATOM     29  C   UNL     1       2.161  10.443   2.002  0.00  0.00    +0.050 A 
ATOM     30  C   UNL     1       3.485  10.537   2.410  0.00  0.00    +0.030 A 
ATOM     31  C   UNL     1       4.225  11.663   2.104  0.00  0.00    +0.051 A 
ATOM     32  C   UNL     1       3.645  12.707   1.400  0.00  0.00    +0.166 A 
ATOM     33  C   UNL     1       2.315  12.617   0.995  0.00  0.00    +0.168 A 
ATOM     34  C   UNL     1       1.576  11.486   1.297  0.00  0.00    +0.075 A 
ATOM     35  O   UNL     1       1.985  13.761   0.326  0.00  0.00    -0.453 OA
ATOM     36  C   UNL     1       3.238  14.374  -0.029  0.00  0.00    +0.466 C 
ATOM     37  O   UNL     1       4.147  13.907   0.985  0.00  0.00    -0.453 OA
ENDBRANCH  27  29
ENDBRANCH  20  25
ENDBRANCH   1  20
TORSDOF 4
