REMARK  Name = ZINC65793778
REMARK  6 active torsions:
REMARK  status: ('A' for Active; 'I' for Inactive)
REMARK    1  A    between atoms: C_1  and  C_2
REMARK    2  A    between atoms: C_2  and  C_3
REMARK    3  A    between atoms: C_2  and  C_4
REMARK    4  A    between atoms: C_2  and  N_13
REMARK    5  A    between atoms: N_6  and  C_7
REMARK    6  A    between atoms: N_16  and  C_17
REMARK                            x       y       z     vdW  Elec       q    Type
REMARK                         _______ _______ _______ _____ _____    ______ ____
ROOT
ATOM      1  C   UNL     1      -0.019   1.526   0.010  0.00  0.00    +0.041 C 
ATOM      2  C   UNL     1       0.002  -0.004   0.002  0.00  0.00    +0.106 C 
ATOM      3  C   UNL     1       0.742  -0.511   1.242  0.00  0.00    +0.041 C 
ENDROOT
BRANCH   2   4
ATOM      4  N   UNL     1       0.688  -0.476  -1.203  0.00  0.00    -0.286 N 
ATOM      5  C   UNL     1       1.972  -0.132  -1.427  0.00  0.00    +0.300 C 
ATOM      6  O   UNL     1       2.561   0.570  -0.628  0.00  0.00    -0.253 OA
ATOM      7  N   UNL     1       2.602  -0.567  -2.536  0.00  0.00    -0.302 N 
ATOM      8  C   UNL     1       3.998  -0.193  -2.779  0.00  0.00    +0.129 C 
ATOM      9  H   UNL     1       0.218  -1.037  -1.840  0.00  0.00    +0.151 HD
ATOM     10  H   UNL     1       2.132  -1.127  -3.173  0.00  0.00    +0.150 HD
ENDBRANCH   2   4
BRANCH   2  11
ATOM     11  C   UNL     1      -1.412  -0.526   0.013  0.00  0.00    +0.236 C 
ATOM     12  O   UNL     1      -1.939  -0.827   1.062  0.00  0.00    -0.273 OA
ATOM     13  N   UNL     1      -2.090  -0.657  -1.144  0.00  0.00    -0.311 N 
ATOM     14  H   UNL     1      -1.669  -0.416  -1.984  0.00  0.00    +0.149 HD
BRANCH  13  15
ATOM     15  C   UNL     1      -3.465  -1.164  -1.134  0.00  0.00    +0.077 C 
ATOM     16  C   UNL     1      -3.446  -2.696  -1.153  0.00  0.00    +0.050 C 
ATOM     17  C   UNL     1      -4.884  -3.215  -1.222  0.00  0.00    +0.161 C 
ATOM     18  O   UNL     1      -5.527  -2.682  -2.382  0.00  0.00    -0.380 OA
ATOM     19  C   UNL     1      -5.616  -1.256  -2.396  0.00  0.00    +0.161 C 
ATOM     20  C   UNL     1      -4.207  -0.658  -2.374  0.00  0.00    +0.050 C 
ENDBRANCH  13  15
ENDBRANCH   2  11
TORSDOF 3
