REMARK  Name = ZINC57830773
REMARK  7 active torsions:
REMARK  status: ('A' for Active; 'I' for Inactive)
REMARK    1  A    between atoms: C_1  and  C_2
REMARK    2  A    between atoms: C_5  and  C_9
REMARK    3  A    between atoms: C_7  and  N_8
REMARK    4  A    between atoms: N_17  and  C_18
REMARK    5  A    between atoms: C_18  and  C_19
REMARK    6  A    between atoms: C_19  and  C_20
REMARK    7  A    between atoms: C_20  and  N_21
REMARK                            x       y       z     vdW  Elec       q    Type
REMARK                         _______ _______ _______ _____ _____    ______ ____
ROOT
ATOM      1  C   UNL     1       0.070  -4.257  -0.027  0.00  0.00    +0.142 A 
ATOM      2  N   UNL     1      -0.111  -5.022   1.020  0.00  0.00    -0.227 NA
ATOM      3  C   UNL     1      -0.045  -6.325   0.650  0.00  0.00    +0.093 A 
ATOM      4  C   UNL     1      -0.165  -7.529   1.351  0.00  0.00    +0.071 A 
ATOM      5  C   UNL     1      -0.048  -8.726   0.680  0.00  0.00    +0.161 A 
ATOM      6  C   UNL     1       0.190  -8.746  -0.691  0.00  0.00    +0.160 A 
ATOM      7  C   UNL     1       0.310  -7.566  -1.396  0.00  0.00    +0.069 A 
ATOM      8  C   UNL     1       0.194  -6.351  -0.735  0.00  0.00    +0.072 A 
ATOM      9  N   UNL     1       0.258  -5.031  -1.140  0.00  0.00    -0.324 N 
ATOM     10  F   UNL     1       0.303  -9.928  -1.336  0.00  0.00    -0.202 F 
ATOM     11  F   UNL     1      -0.164  -9.889   1.358  0.00  0.00    -0.202 F 
ENDROOT
BRANCH   1  16
ATOM     12  C   UNL     1       0.044   1.503   0.052  0.00  0.00    +0.045 C 
ATOM     13  C   UNL     1       0.051  -0.004   0.029  0.00  0.00    -0.030 A 
ATOM     14  C   UNL     1      -0.561  -0.711   1.047  0.00  0.00    +0.006 A 
ATOM     15  C   UNL     1      -0.558  -2.091   1.033  0.00  0.00    +0.012 A 
ATOM     16  C   UNL     1       0.065  -2.777  -0.011  0.00  0.00    +0.019 A 
ATOM     17  C   UNL     1       0.682  -2.065  -1.037  0.00  0.00    +0.034 A 
ATOM     18  C   UNL     1       0.669  -0.678  -1.017  0.00  0.00    +0.028 A 
BRANCH  18  19
ATOM     19  N   UNL     1       1.283   0.041  -2.046  0.00  0.00    -0.358 N 
ATOM     20  H   UNL     1       1.278   1.011  -2.030  0.00  0.00    +0.142 HD
ATOM     21  H   UNL     1       1.714  -0.429  -2.776  0.00  0.00    +0.142 HD
ENDBRANCH  18  19
ENDBRANCH   1  16
BRANCH   9  22
ATOM     22  C   UNL     1       0.487  -4.551  -2.505  0.00  0.00    +0.122 C 
BRANCH  22  23
ATOM     23  C   UNL     1       1.991  -4.487  -2.778  0.00  0.00    +0.002 C 
BRANCH  23  24
ATOM     24  C   UNL     1       2.230  -3.986  -4.203  0.00  0.00    -0.085 C 
BRANCH  24  25
ATOM     25  N   UNL     1       3.674  -3.925  -4.465  0.00  0.00    +0.378 N 
ATOM     26  H   UNL     1       4.109  -3.294  -3.809  0.00  0.00    -0.090 HD
ATOM     27  H   UNL     1       4.074  -4.846  -4.362  0.00  0.00    -0.090 HD
ATOM     28  H   UNL     1       3.832  -3.594  -5.405  0.00  0.00    -0.090 HD
ENDBRANCH  24  25
ENDBRANCH  23  24
ENDBRANCH  22  23
ENDBRANCH   9  22
TORSDOF 6
