REMARK  Name = ZINC66587203
REMARK  5 active torsions:
REMARK  status: ('A' for Active; 'I' for Inactive)
REMARK    1  A    between atoms: C_1  and  C_2
REMARK    2  A    between atoms: C_5  and  N_11
REMARK    3  A    between atoms: C_7  and  C_8
REMARK    4  A    between atoms: N_11  and  S_12
REMARK    5  A    between atoms: S_12  and  C_15
REMARK                            x       y       z     vdW  Elec       q    Type
REMARK                         _______ _______ _______ _____ _____    ______ ____
ROOT
ATOM      1  C   UNL     1      -0.501   1.454   0.081  0.00  0.00    +0.044 C 
ATOM      2  C   UNL     1      -0.230  -0.027   0.036  0.00  0.00    -0.038 A 
ATOM      3  C   UNL     1      -0.330  -0.711  -1.159  0.00  0.00    +0.006 A 
ATOM      4  C   UNL     1      -0.082  -2.070  -1.206  0.00  0.00    +0.027 A 
ATOM      5  C   UNL     1       0.270  -2.757  -0.050  0.00  0.00    +0.075 A 
ATOM      6  C   UNL     1       0.373  -2.079   1.155  0.00  0.00    +0.040 A 
ATOM      7  C   UNL     1       0.128  -0.707   1.201  0.00  0.00    +0.041 A 
ENDROOT
BRANCH   7   8
ATOM      8  C   UNL     1       0.243   0.025   2.481  0.00  0.00    +0.242 C 
ATOM      9  O   UNL     1       0.140   1.236   2.500  0.00  0.00    -0.270 OA
ATOM     10  N   UNL     1       0.461  -0.651   3.627  0.00  0.00    -0.325 N 
ATOM     11  H   UNL     1       0.542  -1.618   3.611  0.00  0.00    +0.145 HD
ATOM     12  H   UNL     1       0.536  -0.172   4.466  0.00  0.00    +0.145 HD
ENDBRANCH   7   8
BRANCH   5  13
ATOM     13  N   UNL     1       0.519  -4.131  -0.102  0.00  0.00    -0.097 NA
BRANCH  13  14
ATOM     14  S   UNL     1       0.395  -4.941  -1.541  0.00  0.00    +0.098 S 
ATOM     15  O   UNL     1      -0.975  -4.896  -1.915  0.00  0.00    -0.148 OA
ATOM     16  O   UNL     1       1.430  -4.442  -2.378  0.00  0.00    -0.148 OA
BRANCH  14  17
ATOM     17  C   UNL     1       0.775  -6.631  -1.222  0.00  0.00    +0.149 A 
ATOM     18  C   UNL     1      -0.058  -7.643  -0.878  0.00  0.00    +0.038 A 
ATOM     19  C   UNL     1       0.468  -8.905  -0.675  0.00  0.00    +0.025 A 
ATOM     20  C   UNL     1       1.802  -9.094  -0.826  0.00  0.00    +0.057 A 
ATOM     21  S   UNL     1       2.357  -7.457  -1.277  0.00  0.00    -0.061 S 
ATOM     22 BR   UNL     1       2.812 -10.679  -0.621  0.00  0.00    -0.043 Br
ENDBRANCH  14  17
ENDBRANCH  13  14
ENDBRANCH   5  13
TORSDOF 4
