REMARK  Name = ZINC39942804
REMARK  8 active torsions:
REMARK  status: ('A' for Active; 'I' for Inactive)
REMARK    1  A    between atoms: C_1  and  C_2
REMARK    2  A    between atoms: C_2  and  C_3
REMARK    3  A    between atoms: C_2  and  C_4
REMARK    4  A    between atoms: C_2  and  C_5
REMARK    5  A    between atoms: C_5  and  C_6
REMARK    6  A    between atoms: C_13  and  C_16
REMARK    7  A    between atoms: N_18  and  N_19
REMARK    8  A    between atoms: C_20  and  C_21
REMARK                            x       y       z     vdW  Elec       q    Type
REMARK                         _______ _______ _______ _____ _____    ______ ____
ROOT
ATOM      1  C   UNL     1       2.074  -0.073  -1.393  0.00  0.00    -0.006 C 
ATOM      2  C   UNL     1       2.675  -0.573  -2.705  0.00  0.00    +0.006 C 
ATOM      3  C   UNL     1       4.171  -0.251  -2.792  0.00  0.00    +0.033 C 
ATOM      4  C   UNL     1       4.335   1.270  -2.847  0.00  0.00    +0.156 C 
ATOM      5  C   UNL     1       3.590   1.821  -1.637  0.00  0.00    -0.011 C 
ATOM      6  C   UNL     1       4.499   2.539  -0.978  0.00  0.00    +0.150 C 
ATOM      7  N   UNL     1       5.720   2.397  -1.574  0.00  0.00    -0.149 NA
ATOM      8  N   UNL     1       5.719   1.691  -2.614  0.00  0.00    -0.179 NA
ATOM      9  C   UNL     1       2.165   1.462  -1.325  0.00  0.00    +0.039 C 
ENDROOT
BRANCH   6  10
ATOM     10  C   UNL     1       4.227   3.364   0.216  0.00  0.00    +0.283 C 
ATOM     11  O   UNL     1       3.101   3.425   0.670  0.00  0.00    -0.267 OA
ATOM     12  N   UNL     1       5.228   4.051   0.803  0.00  0.00    -0.202 N 
ATOM     13  H   UNL     1       6.126   4.003   0.441  0.00  0.00    +0.178 HD
BRANCH  12  14
ATOM     14  N   UNL     1       4.970   4.834   1.936  0.00  0.00    -0.187 NA
ATOM     15  C   UNL     1       5.934   5.495   2.501  0.00  0.00    +0.139 C 
BRANCH  15  16
ATOM     16  C   UNL     1       5.662   6.319   3.693  0.00  0.00    +0.013 A 
ATOM     17  C   UNL     1       6.696   7.037   4.300  0.00  0.00    +0.011 A 
ATOM     18  C   UNL     1       6.435   7.806   5.415  0.00  0.00    +0.001 A 
ATOM     19  C   UNL     1       5.153   7.868   5.933  0.00  0.00    +0.001 A 
ATOM     20  C   UNL     1       4.124   7.160   5.338  0.00  0.00    +0.020 A 
ATOM     21  C   UNL     1       4.369   6.391   4.218  0.00  0.00    +0.050 A 
ATOM     22 CL   UNL     1       3.075   5.510   3.467  0.00  0.00    -0.083 Cl
ENDBRANCH  15  16
ENDBRANCH  12  14
ENDBRANCH   6  10
BRANCH   1  23
ATOM     23  C   UNL     1       0.606  -0.498  -1.314  0.00  0.00    +0.010 C 
BRANCH  23  25
ATOM     24  C   UNL     1      -0.383   1.325   0.079  0.00  0.00    +0.010 C 
ATOM     25  C   UNL     1       0.046  -0.143   0.065  0.00  0.00    -0.037 C 
ATOM     26  C   UNL     1       1.124  -0.369   1.127  0.00  0.00    +0.010 C 
ATOM     27  C   UNL     1      -1.162  -1.031   0.369  0.00  0.00    +0.010 C 
ENDBRANCH  23  25
ENDBRANCH   1  23
TORSDOF 5
