REMARK  Name = ZINC12404569
REMARK  6 active torsions:
REMARK  status: ('A' for Active; 'I' for Inactive)
REMARK    1  A    between atoms: C_3  and  C_8
REMARK    2  A    between atoms: C_9  and  C_18
REMARK    3  A    between atoms: N_12  and  C_15
REMARK    4  A    between atoms: C_15  and  N_17
REMARK    5  A    between atoms: C_18  and  C_19
REMARK    6  A    between atoms: C_19  and  N_32
REMARK                            x       y       z     vdW  Elec       q    Type
REMARK                         _______ _______ _______ _____ _____    ______ ____
ROOT
ATOM      1  C   UNL     1      -1.722   0.923   1.905  0.00  0.00    +0.071 A 
ATOM      2  C   UNL     1      -0.755   1.597   1.219  0.00  0.00    +0.042 A 
ATOM      3  C   UNL     1      -0.483   2.793   1.910  0.00  0.00    +0.277 A 
ATOM      4  O   UNL     1       0.325   3.643   1.580  0.00  0.00    -0.265 OA
ATOM      5  N   UNL     1      -1.274   2.833   3.001  0.00  0.00    -0.198 N 
ATOM      6  N   UNL     1      -2.052   1.668   3.014  0.00  0.00    -0.288 N 
ATOM      7  H   UNL     1      -2.711   1.430   3.684  0.00  0.00    +0.188 HD
ENDROOT
BRANCH   1  10
ATOM      8  C   UNL     1      -4.235  -1.769   1.177  0.00  0.00    +0.002 A 
ATOM      9  C   UNL     1      -3.693  -0.552   1.536  0.00  0.00    +0.010 A 
ATOM     10  C   UNL     1      -2.308  -0.379   1.527  0.00  0.00    +0.002 A 
ATOM     11  C   UNL     1      -1.479  -1.442   1.165  0.00  0.00    +0.030 A 
ATOM     12  C   UNL     1      -2.034  -2.656   0.813  0.00  0.00    +0.042 A 
ATOM     13  C   UNL     1      -3.409  -2.820   0.819  0.00  0.00    +0.020 A 
ATOM     14 CL   UNL     1      -1.006  -3.981   0.363  0.00  0.00    -0.084 Cl
ENDBRANCH   1  10
BRANCH   5  15
ATOM     15  C   UNL     1      -1.309   3.819   3.918  0.00  0.00    +0.165 C 
ATOM     16  S   UNL     1      -0.285   5.181   3.751  0.00  0.00    -0.014 S 
BRANCH  15  17
ATOM     17  N   UNL     1      -2.151   3.734   4.967  0.00  0.00    -0.337 N 
ATOM     18  H   UNL     1      -2.732   2.963   5.062  0.00  0.00    +0.144 HD
ATOM     19  H   UNL     1      -2.177   4.444   5.627  0.00  0.00    +0.144 HD
ENDBRANCH  15  17
ENDBRANCH   5  15
BRANCH   2  20
ATOM     20  C   UNL     1      -0.097   1.143  -0.059  0.00  0.00    +0.023 C 
BRANCH  20  21
ATOM     21  C   UNL     1      -0.821   1.766  -1.254  0.00  0.00    -0.082 C 
BRANCH  21  24
ATOM     22  H   UNL     1      -0.640   1.722  -3.305  0.00  0.00    -0.090 HD
ATOM     23  H   UNL     1       0.804   1.547  -2.499  0.00  0.00    -0.090 HD
ATOM     24  N   UNL     1      -0.184   1.299  -2.498  0.00  0.00    +0.378 N 
ATOM     25  H   UNL     1      -0.273   0.278  -2.561  0.00  0.00    -0.090 HD
ENDBRANCH  21  24
ENDBRANCH  20  21
ENDBRANCH   2  20
TORSDOF 6
