REMARK  Name = ZINC36595309
REMARK  10 active torsions:
REMARK  status: ('A' for Active; 'I' for Inactive)
REMARK    1  A    between atoms: C_1  and  C_2
REMARK    2  A    between atoms: C_5  and  C_7
REMARK    3  A    between atoms: C_7  and  N_8
REMARK    4  A    between atoms: N_8  and  C_9
REMARK    5  A    between atoms: C_9  and  C_11
REMARK    6  A    between atoms: C_9  and  C_18
REMARK    7  A    between atoms: C_16  and  O_17
REMARK    8  A    between atoms: N_20  and  C_21
REMARK    9  A    between atoms: C_27  and  C_29
REMARK   10  A    between atoms: C_34  and  O_35
REMARK                            x       y       z     vdW  Elec       q    Type
REMARK                         _______ _______ _______ _____ _____    ______ ____
ROOT
ATOM      1  C   UNL     1       2.269  -2.956  -2.472  0.00  0.00    +0.196 C 
ENDROOT
BRANCH   1   2
ATOM      2  C   UNL     1       3.513  -3.776  -2.699  0.00  0.00    +0.023 A 
ATOM      3  C   UNL     1       3.696  -4.959  -2.008  0.00  0.00    +0.009 A 
ATOM      4  C   UNL     1       4.837  -5.712  -2.216  0.00  0.00    +0.001 A 
ATOM      5  C   UNL     1       5.796  -5.284  -3.115  0.00  0.00    +0.004 A 
ATOM      6  C   UNL     1       5.617  -4.103  -3.808  0.00  0.00    +0.046 A 
ATOM      7  C   UNL     1       4.471  -3.348  -3.606  0.00  0.00    +0.122 A 
BRANCH   7   8
ATOM      8  O   UNL     1       4.290  -2.189  -4.291  0.00  0.00    -0.506 OA
ATOM      9  H   UNL     1       4.648  -1.409  -3.845  0.00  0.00    +0.292 HD
ENDBRANCH   7   8
ENDBRANCH   1   2
BRANCH   1  10
ATOM     10  C   UNL     1       1.296  -3.197  -3.598  0.00  0.00    +0.238 C 
ATOM     11  O   UNL     1       0.152  -3.517  -3.352  0.00  0.00    -0.273 OA
ATOM     12  N   UNL     1       1.697  -3.057  -4.877  0.00  0.00    -0.311 N 
ATOM     13  H   UNL     1       2.641  -2.975  -5.083  0.00  0.00    +0.149 HD
BRANCH  12  14
ATOM     14  C   UNL     1       0.706  -3.029  -5.956  0.00  0.00    +0.073 C 
ATOM     15  C   UNL     1       0.366  -4.461  -6.373  0.00  0.00    +0.022 C 
ATOM     16  C   UNL     1      -0.669  -4.431  -7.500  0.00  0.00    +0.002 C 
ATOM     17  C   UNL     1      -0.095  -3.673  -8.699  0.00  0.00    +0.000 C 
ATOM     18  C   UNL     1       0.245  -2.241  -8.282  0.00  0.00    +0.002 C 
ATOM     19  C   UNL     1       1.280  -2.271  -7.155  0.00  0.00    +0.022 C 
ENDBRANCH  12  14
ENDBRANCH   1  10
BRANCH   1  20
ATOM     20  N   UNL     1       1.652  -3.345  -1.202  0.00  0.00    -0.274 N 
ATOM     21  C   UNL     1       1.204  -4.604  -1.028  0.00  0.00    +0.251 C 
ATOM     22  O   UNL     1       1.184  -5.094   0.085  0.00  0.00    -0.270 OA
BRANCH  21  23
ATOM     23  C   UNL     1       0.738  -5.388  -2.187  0.00  0.00    +0.078 A 
ATOM     24  C   UNL     1       1.388  -5.276  -3.418  0.00  0.00    +0.017 A 
ATOM     25  C   UNL     1       0.948  -6.011  -4.497  0.00  0.00    +0.001 A 
ATOM     26  C   UNL     1      -0.138  -6.862  -4.367  0.00  0.00    +0.004 A 
ATOM     27  C   UNL     1      -0.790  -6.982  -3.156  0.00  0.00    +0.046 A 
ATOM     28  C   UNL     1      -0.357  -6.253  -2.058  0.00  0.00    +0.129 A 
BRANCH  28  29
ATOM     29  O   UNL     1      -0.993  -6.374  -0.867  0.00  0.00    -0.506 OA
ATOM     30  H   UNL     1      -1.724  -5.752  -0.746  0.00  0.00    +0.292 HD
ENDBRANCH  28  29
ENDBRANCH  21  23
BRANCH  20  31
ATOM     31  C   UNL     1       1.523  -2.365  -0.120  0.00  0.00    +0.183 C 
BRANCH  31  36
ATOM     32  C   UNL     1      -2.181   0.891  -1.178  0.00  0.00    +0.086 C 
ATOM     33  C   UNL     1      -1.453  -0.313  -0.639  0.00  0.00    +0.102 A 
ATOM     34  C   UNL     1      -2.003  -1.311   0.075  0.00  0.00    +0.045 A 
ATOM     35  C   UNL     1      -0.965  -2.224   0.371  0.00  0.00    +0.046 A 
ATOM     36  C   UNL     1       0.158  -1.729  -0.179  0.00  0.00    +0.122 A 
ATOM     37  O   UNL     1      -0.145  -0.574  -0.795  0.00  0.00    -0.463 OA
ENDBRANCH  31  36
ENDBRANCH  20  31
ENDBRANCH   1  20
TORSDOF 9
