REMARK  Name = ZINC66808456
REMARK  5 active torsions:
REMARK  status: ('A' for Active; 'I' for Inactive)
REMARK    1  A    between atoms: C_1  and  C_2
REMARK    2  A    between atoms: C_2  and  C_4
REMARK    3  A    between atoms: C_2  and  N_10
REMARK    4  A    between atoms: C_4  and  C_5
REMARK    5  A    between atoms: C_15  and  C_17
REMARK                            x       y       z     vdW  Elec       q    Type
REMARK                         _______ _______ _______ _____ _____    ______ ____
ROOT
ATOM      1  N   UNL     1      -1.372  -0.511   0.012  0.00  0.00    -0.326 N 
ATOM      2  C   UNL     1      -2.070  -0.646  -1.177  0.00  0.00    +0.126 A 
ATOM      3  C   UNL     1      -3.383  -1.123  -1.179  0.00  0.00    +0.014 A 
ATOM      4  C   UNL     1      -4.043  -1.243  -2.386  0.00  0.00    +0.050 A 
ATOM      5  N   UNL     1      -3.413  -0.903  -3.502  0.00  0.00    -0.232 NA
ATOM      6  C   UNL     1      -2.167  -0.453  -3.471  0.00  0.00    +0.162 A 
ATOM      7  N   UNL     1      -1.502  -0.319  -2.333  0.00  0.00    -0.213 NA
ATOM      8  C   UNL     1      -5.439  -1.774  -2.154  0.00  0.00    +0.056 C 
ATOM      9  C   UNL     1      -5.414  -2.373  -0.732  0.00  0.00    +0.011 C 
ATOM     10  C   UNL     1      -4.287  -1.565  -0.052  0.00  0.00    +0.041 C 
ATOM     11  H   UNL     1      -1.794  -0.752   0.852  0.00  0.00    +0.148 HD
ENDROOT
BRANCH   6  12
ATOM     12  C   UNL     1      -1.501  -0.083  -4.745  0.00  0.00    +0.022 A 
ATOM     13  C   UNL     1      -2.171  -0.200  -5.966  0.00  0.00    +0.031 A 
ATOM     14  C   UNL     1      -1.514   0.155  -7.127  0.00  0.00    +0.111 A 
ATOM     15  N   UNL     1      -0.273   0.597  -7.094  0.00  0.00    -0.263 NA
ATOM     16  C   UNL     1       0.396   0.722  -5.964  0.00  0.00    +0.111 A 
ATOM     17  C   UNL     1      -0.189   0.395  -4.756  0.00  0.00    +0.031 A 
ENDBRANCH   6  12
BRANCH   1  19
ATOM     18  C   UNL     1      -0.019   1.526   0.010  0.00  0.00    +0.028 C 
ATOM     19  C   UNL     1       0.002  -0.004   0.002  0.00  0.00    +0.076 C 
BRANCH  19  20
ATOM     20  C   UNL     1       0.742  -0.511   1.242  0.00  0.00    +0.096 C 
BRANCH  20  21
ATOM     21  C   UNL     1       0.870  -2.011   1.172  0.00  0.00    +0.107 A 
ATOM     22  C   UNL     1       1.890  -2.688   0.616  0.00  0.00    +0.045 A 
ATOM     23  C   UNL     1       1.603  -4.064   0.773  0.00  0.00    +0.041 A 
ATOM     24  C   UNL     1       0.424  -4.144   1.415  0.00  0.00    +0.195 A 
ATOM     25  O   UNL     1      -0.013  -2.898   1.660  0.00  0.00    -0.468 OA
ENDBRANCH  20  21
ENDBRANCH  19  20
ENDBRANCH   1  19
TORSDOF 4
