REMARK  Name = ZINC41604342
REMARK  5 active torsions:
REMARK  status: ('A' for Active; 'I' for Inactive)
REMARK    1  A    between atoms: C_4  and  C_7
REMARK    2  A    between atoms: C_7  and  N_8
REMARK    3  A    between atoms: C_11  and  N_14
REMARK    4  A    between atoms: C_19  and  C_22
REMARK    5  A    between atoms: C_22  and  C_23
REMARK                            x       y       z     vdW  Elec       q    Type
REMARK                         _______ _______ _______ _____ _____    ______ ____
ROOT
ATOM      1  N   UNL     1       5.449  -2.776   4.914  0.00  0.00    -0.311 N 
ATOM      2  C   UNL     1       6.385  -3.713   5.264  0.00  0.00    +0.213 A 
ATOM      3  N   UNL     1       6.894  -4.498   4.335  0.00  0.00    -0.175 NA
ATOM      4  C   UNL     1       7.810  -5.421   4.652  0.00  0.00    +0.297 A 
ATOM      5  O   UNL     1       8.280  -6.145   3.788  0.00  0.00    -0.264 OA
ATOM      6  C   UNL     1       8.246  -5.555   6.045  0.00  0.00    +0.135 A 
ATOM      7  N   UNL     1       7.726  -4.766   6.947  0.00  0.00    -0.170 NA
ATOM      8  N   UNL     1       6.775  -3.813   6.560  0.00  0.00    -0.248 N 
ATOM      9  H   UNL     1       5.071  -2.192   5.589  0.00  0.00    +0.149 HD
ATOM     10  H   UNL     1       6.389  -3.222   7.225  0.00  0.00    +0.192 HD
ENDROOT
BRANCH   1  14
ATOM     11  N   UNL     1       4.153  -0.953   1.342  0.00  0.00    +0.382 N 
ATOM     12  C   UNL     1       3.203  -1.854   2.005  0.00  0.00    -0.077 C 
ATOM     13  C   UNL     1       3.614  -2.050   3.466  0.00  0.00    +0.004 C 
ATOM     14  C   UNL     1       5.019  -2.657   3.518  0.00  0.00    +0.070 C 
ATOM     15  C   UNL     1       5.987  -1.746   2.760  0.00  0.00    +0.004 C 
ATOM     16  C   UNL     1       5.489  -1.562   1.325  0.00  0.00    -0.077 C 
ATOM     17  H   UNL     1       4.190  -0.078   1.843  0.00  0.00    -0.081 HD
BRANCH  11  18
ATOM     18  C   UNL     1       3.711  -0.707  -0.038  0.00  0.00    -0.043 C 
BRANCH  18  22
ATOM     19  C   UNL     1      -0.017   1.378   0.010  0.00  0.00    +0.000 A 
ATOM     20  C   UNL     1       1.171   2.086   0.002  0.00  0.00    +0.000 A 
ATOM     21  C   UNL     1       2.377   1.411  -0.013  0.00  0.00    +0.002 A 
ATOM     22  C   UNL     1       2.396   0.029  -0.020  0.00  0.00    -0.064 A 
ATOM     23  C   UNL     1       1.208  -0.679  -0.012  0.00  0.00    +0.002 A 
ATOM     24  C   UNL     1       0.002  -0.004   0.002  0.00  0.00    +0.000 A 
ENDBRANCH  18  22
ENDBRANCH  11  18
ENDBRANCH   1  14
BRANCH   6  25
ATOM     25  C   UNL     1       9.275  -6.586   6.430  0.00  0.00    +0.137 C 
BRANCH  25  26
ATOM     26  C   UNL     1       9.535  -6.507   7.912  0.00  0.00    +0.111 A 
ATOM     27  C   UNL     1       8.880  -7.196   8.864  0.00  0.00    +0.045 A 
ATOM     28  C   UNL     1       9.444  -6.818  10.104  0.00  0.00    +0.041 A 
ATOM     29  C   UNL     1      10.410  -5.921   9.836  0.00  0.00    +0.195 A 
ATOM     30  O   UNL     1      10.464  -5.741   8.507  0.00  0.00    -0.467 OA
ENDBRANCH  25  26
ENDBRANCH   6  25
TORSDOF 5
