REMARK  Name = ZINC19219598
REMARK  9 active torsions:
REMARK  status: ('A' for Active; 'I' for Inactive)
REMARK    1  A    between atoms: C_1  and  C_2
REMARK    2  A    between atoms: C_10  and  C_35
REMARK    3  A    between atoms: C_11  and  C_12
REMARK    4  A    between atoms: C_12  and  C_14
REMARK    5  A    between atoms: C_12  and  O_34
REMARK    6  A    between atoms: C_14  and  N_15
REMARK    7  A    between atoms: C_22  and  O_33
REMARK    8  A    between atoms: C_26  and  C_32
REMARK    9  A    between atoms: C_27  and  C_31
REMARK                            x       y       z     vdW  Elec       q    Type
REMARK                         _______ _______ _______ _____ _____    ______ ____
ROOT
ATOM      1  N   UNL     1      -4.269  -1.764  -1.450  0.00  0.00    +0.382 N 
ATOM      2  C   UNL     1      -5.199  -1.990  -0.336  0.00  0.00    -0.075 C 
ATOM      3  C   UNL     1      -5.683  -3.441  -0.360  0.00  0.00    +0.029 C 
ATOM      4  C   UNL     1      -6.372  -3.724  -1.695  0.00  0.00    +0.110 C 
ATOM      5  C   UNL     1      -5.403  -3.430  -2.842  0.00  0.00    +0.029 C 
ATOM      6  C   UNL     1      -4.928  -1.978  -2.744  0.00  0.00    -0.075 C 
ATOM      7  C   UNL     1      -6.798  -5.195  -1.750  0.00  0.00    +0.084 C 
ATOM      8  C   UNL     1      -7.679  -5.487  -0.533  0.00  0.00    +0.152 C 
ATOM      9  C   UNL     1      -8.735  -4.418  -0.404  0.00  0.00    +0.023 A 
ATOM     10  C   UNL     1      -9.849  -4.673   0.379  0.00  0.00    +0.013 A 
ATOM     11  C   UNL     1     -10.832  -3.715   0.524  0.00  0.00    -0.047 A 
ATOM     12  C   UNL     1     -10.707  -2.494  -0.113  0.00  0.00    -0.044 A 
ATOM     13  C   UNL     1      -9.600  -2.234  -0.894  0.00  0.00    +0.049 A 
ATOM     14  C   UNL     1      -8.607  -3.198  -1.043  0.00  0.00    +0.127 A 
ATOM     15  O   UNL     1      -7.534  -2.907  -1.824  0.00  0.00    -0.485 OA
ATOM     16  C   UNL     1     -11.780  -1.447   0.046  0.00  0.00    +0.044 C 
ATOM     17  C   UNL     1     -12.042  -4.000   1.377  0.00  0.00    +0.044 C 
ATOM     18  H   UNL     1      -3.455  -2.499  -1.361  0.00  0.00    -0.082 HD
ENDROOT
BRANCH   8  19
ATOM     19  O   UNL     1      -8.308  -6.760  -0.696  0.00  0.00    -0.387 OA
ATOM     20  H   UNL     1      -8.984  -7.143   0.083  0.00  0.00    +0.210 HD
ENDBRANCH   8  19
BRANCH   1  21
ATOM     21  C   UNL     1      -3.677  -0.421  -1.377  0.00  0.00    -0.042 C 
BRANCH  21  22
ATOM     22  C   UNL     1      -2.534  -0.312  -2.389  0.00  0.00    +0.130 C 
BRANCH  22  33
ATOM     23  C   UNL     1      -2.005   5.849  -5.407  0.00  0.00    +0.044 C 
ATOM     24  C   UNL     1      -2.030   4.549  -4.645  0.00  0.00    -0.048 A 
ATOM     25  C   UNL     1      -2.780   3.484  -5.127  0.00  0.00    +0.004 A 
ATOM     26  C   UNL     1      -2.816   2.298  -4.451  0.00  0.00    +0.010 A 
ATOM     27  C   UNL     1      -2.097   2.155  -3.262  0.00  0.00    +0.005 A 
ATOM     28  C   UNL     1      -1.332   3.229  -2.772  0.00  0.00    +0.047 A 
ATOM     29  C   UNL     1      -1.310   4.428  -3.477  0.00  0.00    +0.029 A 
ATOM     30  N   UNL     1      -0.736   2.804  -1.606  0.00  0.00    -0.358 N 
ATOM     31  H   UNL     1      -0.076   3.483  -1.046  0.00  0.00    +0.166 HD
ATOM     32  C   UNL     1      -1.104   1.513  -1.339  0.00  0.00    +0.019 A 
ATOM     33  C   UNL     1      -1.919   1.061  -2.305  0.00  0.00    +0.007 A 
ATOM     34  C   UNL     1      -0.650   0.714  -0.145  0.00  0.00    +0.063 C 
ENDBRANCH  22  33
BRANCH  22  35
ATOM     35  O   UNL     1      -1.542  -1.297  -2.095  0.00  0.00    -0.389 OA
ATOM     36  H   UNL     1      -1.807  -2.365  -2.107  0.00  0.00    +0.210 HD
ENDBRANCH  22  35
ENDBRANCH  21  22
ENDBRANCH   1  21
TORSDOF 5
