REMARK  Name = ZINC22451395
REMARK  6 active torsions:
REMARK  status: ('A' for Active; 'I' for Inactive)
REMARK    1  A    between atoms: C_1  and  C_2
REMARK    2  A    between atoms: C_5  and  C_31
REMARK    3  A    between atoms: C_16  and  C_18
REMARK    4  A    between atoms: C_18  and  S_19
REMARK    5  A    between atoms: S_19  and  C_20
REMARK    6  A    between atoms: N_24  and  C_25
REMARK                            x       y       z     vdW  Elec       q    Type
REMARK                         _______ _______ _______ _____ _____    ______ ____
ROOT
ATOM      1  C   UNL     1      -0.025   1.117  -2.491  0.00  0.00    +0.009 C 
ATOM      2  C   UNL     1      -0.752   1.593  -1.232  0.00  0.00    +0.004 C 
ATOM      3  C   UNL     1      -0.788   3.123  -1.209  0.00  0.00    +0.009 C 
ATOM      4  C   UNL     1      -1.465   3.591   0.082  0.00  0.00    +0.004 C 
ATOM      5  C   UNL     1      -0.705   3.026   1.284  0.00  0.00    +0.111 C 
ATOM      6  N   UNL     1      -0.700   1.559   1.216  0.00  0.00    -0.301 N 
ATOM      7  C   UNL     1      -0.013   1.086   0.008  0.00  0.00    +0.111 C 
ATOM      8  C   UNL     1      -0.140   1.018   2.343  0.00  0.00    +0.198 A 
ATOM      9  N   UNL     1      -0.706   1.265   3.555  0.00  0.00    -0.295 N 
ATOM     10  H   UNL     1      -1.602   1.899   3.625  0.00  0.00    +0.172 HD
ATOM     11  C   UNL     1      -0.163   0.730   4.670  0.00  0.00    +0.253 A 
ATOM     12  O   UNL     1      -0.660   0.938   5.764  0.00  0.00    -0.268 OA
ATOM     13  C   UNL     1       0.990  -0.065   4.545  0.00  0.00    +0.094 A 
ATOM     14  C   UNL     1       1.516  -0.274   3.303  0.00  0.00    +0.060 A 
ATOM     15  N   UNL     1       0.941   0.271   2.234  0.00  0.00    -0.220 NA
ATOM     16  C   UNL     1      -1.452   5.120   0.141  0.00  0.00    +0.009 C 
ENDROOT
BRANCH  14  17
ATOM     17  C   UNL     1       2.751  -1.123   3.143  0.00  0.00    +0.133 C 
BRANCH  17  18
ATOM     18  S   UNL     1       2.289  -2.737   2.467  0.00  0.00    -0.078 S 
BRANCH  18  19
ATOM     19  C   UNL     1       3.876  -3.500   2.385  0.00  0.00    +0.214 A 
ATOM     20  N   UNL     1       5.022  -2.961   2.742  0.00  0.00    -0.101 NA
ATOM     21  N   UNL     1       5.986  -3.788   2.554  0.00  0.00    -0.022 NA
ATOM     22  N   UNL     1       5.539  -4.897   2.072  0.00  0.00    -0.038 NA
ATOM     23  N   UNL     1       4.146  -4.756   1.948  0.00  0.00    -0.187 N 
BRANCH  23  24
ATOM     24  C   UNL     1       3.232  -5.707   1.473  0.00  0.00    +0.070 A 
ATOM     25  C   UNL     1       1.961  -5.787   2.025  0.00  0.00    +0.028 A 
ATOM     26  C   UNL     1       1.061  -6.722   1.552  0.00  0.00    +0.002 A 
ATOM     27  C   UNL     1       1.429  -7.584   0.535  0.00  0.00    +0.000 A 
ATOM     28  C   UNL     1       2.696  -7.510  -0.013  0.00  0.00    +0.002 A 
ATOM     29  C   UNL     1       3.598  -6.574   0.453  0.00  0.00    +0.028 A 
ENDBRANCH  23  24
ENDBRANCH  18  19
ENDBRANCH  17  18
ENDBRANCH  14  17
TORSDOF 4
