REMARK  Name = ZINC43210544
REMARK  8 active torsions:
REMARK  status: ('A' for Active; 'I' for Inactive)
REMARK    1  A    between atoms: C_1  and  C_2
REMARK    2  A    between atoms: C_7  and  N_8
REMARK    3  A    between atoms: C_13  and  C_34
REMARK    4  A    between atoms: C_16  and  C_21
REMARK    5  A    between atoms: C_16  and  C_31
REMARK    6  A    between atoms: C_21  and  C_22
REMARK    7  A    between atoms: C_25  and  N_28
REMARK    8  A    between atoms: C_39  and  O_40
REMARK                            x       y       z     vdW  Elec       q    Type
REMARK                         _______ _______ _______ _____ _____    ______ ____
ROOT
ATOM      1  N   UNL     1       0.522  -0.195   2.376  0.00  0.00    -0.210 N 
ATOM      2  C   UNL     1      -0.714   0.055   2.918  0.00  0.00    +0.232 C 
ATOM      3  O   UNL     1      -1.772  -0.455   2.619  0.00  0.00    -0.274 OA
ATOM      4  C   UNL     1      -0.473   1.063   3.925  0.00  0.00    +0.111 C 
ATOM      5  C   UNL     1      -1.109   1.642   5.116  0.00  0.00    +0.101 C 
ATOM      6  N   UNL     1       0.014   2.318   5.845  0.00  0.00    -0.293 NA
ATOM      7  C   UNL     1       1.283   1.999   5.113  0.00  0.00    +0.138 C 
ATOM      8  C   UNL     1       0.950   0.637   4.468  0.00  0.00    +0.121 C 
ATOM      9  C   UNL     1       1.542   0.324   3.121  0.00  0.00    +0.232 C 
ATOM     10  O   UNL     1       2.688   0.500   2.769  0.00  0.00    -0.274 OA
ATOM     11  H   UNL     1      -0.134   3.314   5.894  0.00  0.00    +0.124 HD
ENDROOT
BRANCH   1  18
ATOM     12  C   UNL     1       0.579   1.250  -0.075  0.00  0.00    +0.045 C 
ATOM     13  C   UNL     1       0.751  -0.246  -0.030  0.00  0.00    -0.029 A 
ATOM     14  C   UNL     1       0.949  -0.956  -1.199  0.00  0.00    +0.005 A 
ATOM     15  C   UNL     1       1.107  -2.328  -1.158  0.00  0.00    +0.000 A 
ATOM     16  C   UNL     1       1.068  -2.996   0.053  0.00  0.00    +0.002 A 
ATOM     17  C   UNL     1       0.871  -2.292   1.225  0.00  0.00    +0.024 A 
ATOM     18  C   UNL     1       0.717  -0.913   1.187  0.00  0.00    +0.047 A 
ENDBRANCH   1  18
BRANCH   5  19
ATOM     19  C   UNL     1      -1.718   0.558   5.968  0.00  0.00    +0.012 A 
ATOM     20  C   UNL     1      -1.051   0.104   7.090  0.00  0.00    +0.009 A 
ATOM     21  C   UNL     1      -1.608  -0.890   7.872  0.00  0.00    +0.001 A 
ATOM     22  C   UNL     1      -2.834  -1.433   7.534  0.00  0.00    +0.004 A 
ATOM     23  C   UNL     1      -3.505  -0.983   6.414  0.00  0.00    +0.046 A 
ATOM     24  C   UNL     1      -2.950   0.019   5.630  0.00  0.00    +0.122 A 
BRANCH  24  25
ATOM     25  O   UNL     1      -3.611   0.468   4.531  0.00  0.00    -0.506 OA
ATOM     26  H   UNL     1      -3.399  -0.015   3.720  0.00  0.00    +0.292 HD
ENDBRANCH  24  25
ENDBRANCH   5  19
BRANCH   7  27
ATOM     27  C   UNL     1       2.434   1.857   6.076  0.00  0.00    +0.377 C 
ATOM     28  O   UNL     1       2.255   2.029   7.269  0.00  0.00    -0.244 OA
ATOM     29  O   UNL     1       3.544   1.572   5.661  0.00  0.00    -0.244 OA
ENDBRANCH   7  27
BRANCH   7  30
ATOM     30  C   UNL     1       1.584   3.067   4.059  0.00  0.00    +0.069 C 
BRANCH  30  31
ATOM     31  C   UNL     1       1.819   4.391   4.739  0.00  0.00    -0.045 A 
ATOM     32  C   UNL     1       0.757   5.245   4.974  0.00  0.00    +0.006 A 
ATOM     33  C   UNL     1       0.972   6.460   5.598  0.00  0.00    +0.033 A 
ATOM     34  C   UNL     1       2.249   6.821   5.987  0.00  0.00    +0.126 A 
ATOM     35  C   UNL     1       3.310   5.967   5.752  0.00  0.00    +0.033 A 
ATOM     36  C   UNL     1       3.094   4.750   5.132  0.00  0.00    +0.006 A 
BRANCH  34  37
ATOM     37  N   UNL     1       2.479   8.122   6.653  0.00  0.00    +0.056 N 
ATOM     38  O   UNL     1       1.551   8.869   6.858  0.00  0.00    -0.126 OA
ATOM     39  O   UNL     1       3.595   8.438   6.993  0.00  0.00    -0.126 OA
ENDBRANCH  34  37
ENDBRANCH  30  31
ENDBRANCH   7  30
TORSDOF 7
