REMARK  Name = ZINC16397437
REMARK  6 active torsions:
REMARK  status: ('A' for Active; 'I' for Inactive)
REMARK    1  A    between atoms: C_1  and  C_2
REMARK    2  A    between atoms: C_2  and  N_3
REMARK    3  A    between atoms: C_12  and  S_14
REMARK    4  A    between atoms: S_14  and  C_15
REMARK    5  A    between atoms: C_15  and  C_17
REMARK    6  A    between atoms: C_15  and  C_18
REMARK                            x       y       z     vdW  Elec       q    Type
REMARK                         _______ _______ _______ _____ _____    ______ ____
ROOT
ATOM      1  N   UNL     1      -4.064  -3.768   1.662  0.00  0.00    -0.329 N 
ATOM      2  C   UNL     1      -2.982  -2.916   1.605  0.00  0.00    +0.131 A 
ATOM      3  C   UNL     1      -1.657  -3.419   1.657  0.00  0.00    +0.040 A 
ATOM      4  C   UNL     1      -1.388  -4.787   1.766  0.00  0.00    +0.013 A 
ATOM      5  C   UNL     1      -0.093  -5.216   1.811  0.00  0.00    +0.001 A 
ATOM      6  C   UNL     1       0.962  -4.311   1.748  0.00  0.00    +0.002 A 
ATOM      7  C   UNL     1       0.733  -2.971   1.641  0.00  0.00    +0.028 A 
ATOM      8  C   UNL     1      -0.585  -2.497   1.593  0.00  0.00    +0.077 A 
ATOM      9  N   UNL     1      -0.864  -1.189   1.483  0.00  0.00    -0.222 NA
ATOM     10  C   UNL     1      -2.116  -0.774   1.444  0.00  0.00    +0.191 A 
ATOM     11  N   UNL     1      -3.153  -1.607   1.501  0.00  0.00    -0.206 NA
ATOM     12  H   UNL     1      -3.925  -4.725   1.739  0.00  0.00    +0.147 HD
ENDROOT
BRANCH   1  14
ATOM     13  C   UNL     1      -6.433  -4.376   1.689  0.00  0.00    +0.024 C 
ATOM     14  C   UNL     1      -5.425  -3.228   1.607  0.00  0.00    +0.099 C 
ENDBRANCH   1  14
BRANCH  10  15
ATOM     15  S   UNL     1      -2.429   0.955   1.304  0.00  0.00    -0.073 S 
BRANCH  15  16
ATOM     16  C   UNL     1      -0.730   1.579   1.270  0.00  0.00    +0.137 C 
ATOM     17  C   UNL     1      -0.029   1.082   0.004  0.00  0.00    +0.029 C 
BRANCH  16  18
ATOM     18  C   UNL     1      -0.749   3.086   1.275  0.00  0.00    +0.233 C 
ATOM     19  O   UNL     1      -1.712   3.682   0.841  0.00  0.00    -0.274 OA
ATOM     20  N   UNL     1       0.304   3.772   1.762  0.00  0.00    -0.270 N 
ATOM     21  C   UNL     1       1.560   3.170   2.218  0.00  0.00    +0.118 C 
ATOM     22  C   UNL     1       2.432   4.352   2.671  0.00  0.00    +0.056 C 
ATOM     23  C   UNL     1       1.571   5.572   2.438  0.00  0.00    -0.024 A 
ATOM     24  C   UNL     1       0.356   5.161   1.912  0.00  0.00    +0.040 A 
ATOM     25  C   UNL     1      -0.612   6.120   1.612  0.00  0.00    +0.024 A 
ATOM     26  C   UNL     1      -0.360   7.457   1.836  0.00  0.00    +0.002 A 
ATOM     27  C   UNL     1       0.855   7.857   2.361  0.00  0.00    +0.000 A 
ATOM     28  C   UNL     1       1.819   6.913   2.662  0.00  0.00    +0.005 A 
ENDBRANCH  16  18
ENDBRANCH  15  16
ENDBRANCH  10  15
TORSDOF 4
