REMARK  Name = ZINC14625367
REMARK  11 active torsions:
REMARK  status: ('A' for Active; 'I' for Inactive)
REMARK    1  A    between atoms: C_1  and  C_2
REMARK    2  A    between atoms: C_2  and  C_3
REMARK    3  A    between atoms: C_3  and  C_4
REMARK    4  A    between atoms: C_4  and  N_5
REMARK    5  A    between atoms: C_6  and  N_33
REMARK    6  A    between atoms: C_7  and  N_14
REMARK    7  A    between atoms: N_14  and  C_15
REMARK    8  A    between atoms: C_15  and  C_16
REMARK    9  A    between atoms: C_22  and  C_24
REMARK   10  A    between atoms: C_26  and  S_31
REMARK   11  A    between atoms: S_31  and  C_32
REMARK                            x       y       z     vdW  Elec       q    Type
REMARK                         _______ _______ _______ _____ _____    ______ ____
ROOT
ATOM      1  N   UNL     1       2.286   5.641   0.076  0.00  0.00    -0.256 N 
ATOM      2  C   UNL     1       2.118   4.406  -0.435  0.00  0.00    +0.253 C 
ATOM      3  O   UNL     1       1.002   3.929  -0.516  0.00  0.00    -0.270 OA
ENDROOT
BRANCH   1   6
ATOM      4  N   UNL     1       5.330   7.103   1.525  0.00  0.00    -0.280 N 
ATOM      5  C   UNL     1       4.059   6.585   1.433  0.00  0.00    +0.127 A 
ATOM      6  C   UNL     1       3.583   6.181   0.202  0.00  0.00    +0.140 A 
ATOM      7  C   UNL     1       4.412   6.323  -0.927  0.00  0.00    +0.277 A 
ATOM      8  O   UNL     1       4.016   5.979  -2.027  0.00  0.00    -0.266 OA
ATOM      9  N   UNL     1       5.648   6.842  -0.783  0.00  0.00    -0.273 N 
ATOM     10  H   UNL     1       6.238   6.943  -1.584  0.00  0.00    +0.173 HD
ATOM     11  C   UNL     1       6.096   7.225   0.426  0.00  0.00    +0.331 A 
ATOM     12  O   UNL     1       7.215   7.689   0.527  0.00  0.00    -0.246 OA
BRANCH   5  13
ATOM     13  N   UNL     1       3.274   6.466   2.555  0.00  0.00    -0.343 N 
ATOM     14  H   UNL     1       2.476   5.915   2.532  0.00  0.00    +0.144 HD
ATOM     15  H   UNL     1       3.517   6.934   3.369  0.00  0.00    +0.144 HD
ENDBRANCH   5  13
BRANCH   4  16
ATOM     16  C   UNL     1       5.849   7.530   2.826  0.00  0.00    +0.128 C 
BRANCH  16  17
ATOM     17  C   UNL     1       5.500   9.002   3.056  0.00  0.00    +0.021 C 
BRANCH  17  19
ATOM     18  C   UNL     1       5.694  10.921   4.645  0.00  0.00    +0.004 C 
ATOM     19  C   UNL     1       6.043   9.449   4.415  0.00  0.00    -0.002 C 
ENDBRANCH  17  19
ENDBRANCH  16  17
ENDBRANCH   4  16
ENDBRANCH   1   6
BRANCH   2  20
ATOM     20  C   UNL     1       3.288   3.630  -0.895  0.00  0.00    +0.057 A 
ATOM     21  C   UNL     1       4.517   3.768  -0.249  0.00  0.00    +0.029 A 
ATOM     22  C   UNL     1       5.611   3.038  -0.687  0.00  0.00    +0.008 A 
ATOM     23  C   UNL     1       5.481   2.166  -1.763  0.00  0.00    +0.016 A 
ATOM     24  C   UNL     1       4.265   2.033  -2.407  0.00  0.00    +0.022 A 
ATOM     25  C   UNL     1       3.168   2.756  -1.978  0.00  0.00    +0.053 A 
ATOM     26 CL   UNL     1       1.643   2.580  -2.787  0.00  0.00    -0.083 Cl
BRANCH  22  27
ATOM     27  S   UNL     1       7.166   3.207   0.125  0.00  0.00    -0.129 S 
ATOM     28  C   UNL     1       8.260   2.081  -0.783  0.00  0.00    +0.090 C 
ENDBRANCH  22  27
ENDBRANCH   2  20
BRANCH   1  29
ATOM     29  C   UNL     1       1.123   6.424   0.499  0.00  0.00    +0.149 C 
BRANCH  29  30
ATOM     30  C   UNL     1       0.615   7.239  -0.662  0.00  0.00    -0.030 A 
ATOM     31  C   UNL     1       1.164   8.479  -0.929  0.00  0.00    +0.005 A 
ATOM     32  C   UNL     1       0.702   9.224  -1.998  0.00  0.00    +0.000 A 
ATOM     33  C   UNL     1      -0.317   8.733  -2.794  0.00  0.00    +0.000 A 
ATOM     34  C   UNL     1      -0.869   7.495  -2.524  0.00  0.00    +0.000 A 
ATOM     35  C   UNL     1      -0.403   6.748  -1.458  0.00  0.00    +0.005 A 
ENDBRANCH  29  30
ENDBRANCH   1  29
TORSDOF 9
