REMARK  Name = ZINC00491835
REMARK  7 active torsions:
REMARK  status: ('A' for Active; 'I' for Inactive)
REMARK    1  A    between atoms: C_1  and  C_2
REMARK    2  A    between atoms: C_5  and  C_23
REMARK    3  A    between atoms: C_6  and  N_8
REMARK    4  A    between atoms: C_9  and  C_11
REMARK    5  A    between atoms: C_11  and  C_12
REMARK    6  A    between atoms: C_12  and  C_13
REMARK    7  A    between atoms: N_15  and  N_16
REMARK                            x       y       z     vdW  Elec       q    Type
REMARK                         _______ _______ _______ _____ _____    ______ ____
ROOT
ATOM      1  C   UNL     1       0.009   1.480  -0.004  0.00  0.00    +0.105 C 
ENDROOT
BRANCH   1   3
ATOM      2  N   UNL     1       0.585  -0.706  -1.008  0.00  0.00    -0.285 N 
ATOM      3  C   UNL     1       0.008  -0.027   0.003  0.00  0.00    +0.218 C 
ATOM      4  O   UNL     1      -0.513  -0.628   0.919  0.00  0.00    -0.275 OA
ATOM      5  H   UNL     1       0.930  -0.228  -1.778  0.00  0.00    +0.155 HD
BRANCH   2  11
ATOM      6  C   UNL     1       0.787  -4.820   1.677  0.00  0.00    +0.044 C 
ATOM      7  C   UNL     1       0.786  -4.120   0.342  0.00  0.00    -0.049 A 
ATOM      8  C   UNL     1       0.886  -4.857  -0.824  0.00  0.00    +0.004 A 
ATOM      9  C   UNL     1       0.886  -4.219  -2.051  0.00  0.00    +0.005 A 
ATOM     10  C   UNL     1       0.786  -2.843  -2.115  0.00  0.00    -0.029 A 
ATOM     11  C   UNL     1       0.686  -2.100  -0.946  0.00  0.00    +0.037 A 
ATOM     12  C   UNL     1       0.691  -2.744   0.285  0.00  0.00    +0.027 A 
ATOM     13  C   UNL     1       0.787  -2.148  -3.452  0.00  0.00    +0.045 C 
ENDBRANCH   2  11
ENDBRANCH   1   3
BRANCH   1  14
ATOM     14  C   UNL     1      -0.704   1.997   1.248  0.00  0.00    +0.107 C 
BRANCH  14  15
ATOM     15  C   UNL     1      -0.702   3.504   1.241  0.00  0.00    +0.233 C 
ATOM     16  O   UNL     1      -0.182   4.106   0.325  0.00  0.00    -0.274 OA
ATOM     17  N   UNL     1      -1.279   4.183   2.252  0.00  0.00    -0.207 N 
ATOM     18  H   UNL     1      -1.696   3.702   2.984  0.00  0.00    +0.177 HD
BRANCH  17  19
ATOM     19  N   UNL     1      -1.278   5.584   2.245  0.00  0.00    -0.189 NA
ATOM     20  C   UNL     1      -1.739   6.229   3.250  0.00  0.00    +0.037 C 
ATOM     21  C   UNL     1      -2.397   5.503   4.402  0.00  0.00    +0.052 C 
ATOM     22  C   UNL     1      -1.743   5.978   5.709  0.00  0.00    +0.006 C 
ATOM     23  C   UNL     1      -1.829   7.503   5.794  0.00  0.00    +0.001 C 
ATOM     24  C   UNL     1      -1.022   8.132   4.657  0.00  0.00    +0.006 C 
ATOM     25  C   UNL     1      -1.645   7.738   3.313  0.00  0.00    +0.052 C 
ENDBRANCH  17  19
ENDBRANCH  14  15
ENDBRANCH   1  14
TORSDOF 5
