REMARK  Name = ZINC21673595
REMARK  7 active torsions:
REMARK  status: ('A' for Active; 'I' for Inactive)
REMARK    1  A    between atoms: C_1  and  N_2
REMARK    2  A    between atoms: N_2  and  C_3
REMARK    3  A    between atoms: C_3  and  C_4
REMARK    4  A    between atoms: C_4  and  C_5
REMARK    5  A    between atoms: C_5  and  C_6
REMARK    6  A    between atoms: C_7  and  C_13
REMARK    7  A    between atoms: C_8  and  N_12
REMARK                            x       y       z     vdW  Elec       q    Type
REMARK                         _______ _______ _______ _____ _____    ______ ____
ROOT
ATOM      1  C   UNL     1      -0.723   1.583   1.265  0.00  0.00    +0.106 C 
ENDROOT
BRANCH   1   3
ATOM      2  C   UNL     1       1.298   1.730   2.590  0.00  0.00    +0.130 C 
ATOM      3  N   UNL     1      -0.018   1.093   2.457  0.00  0.00    -0.318 N 
ATOM      4  C   UNL     1      -0.777   1.284   3.592  0.00  0.00    +0.132 A 
ATOM      5  C   UNL     1      -1.100   0.198   4.442  0.00  0.00    +0.040 A 
ATOM      6  C   UNL     1      -0.671  -1.108   4.177  0.00  0.00    +0.015 A 
ATOM      7  C   UNL     1      -1.013  -2.114   5.032  0.00  0.00    +0.021 A 
ATOM      8  C   UNL     1      -1.782  -1.859   6.165  0.00  0.00    +0.043 A 
ATOM      9  C   UNL     1      -2.216  -0.597   6.451  0.00  0.00    +0.048 A 
ATOM     10  C   UNL     1      -1.882   0.460   5.593  0.00  0.00    +0.077 A 
ATOM     11  N   UNL     1      -2.282   1.719   5.828  0.00  0.00    -0.235 NA
ATOM     12  C   UNL     1      -1.952   2.686   5.005  0.00  0.00    +0.223 A 
ATOM     13  N   UNL     1      -1.219   2.490   3.921  0.00  0.00    -0.220 NA
ATOM     14 CL   UNL     1      -2.197  -3.167   7.228  0.00  0.00    -0.083 Cl
ENDBRANCH   1   3
BRANCH   1  15
ATOM     15  C   UNL     1       0.027   1.135   0.009  0.00  0.00    +0.025 C 
BRANCH  15  16
ATOM     16  C   UNL     1      -0.706   1.645  -1.233  0.00  0.00    +0.060 C 
BRANCH  16  17
ATOM     17  C   UNL     1       0.032   1.204  -2.470  0.00  0.00    +0.082 A 
ATOM     18  C   UNL     1      -0.183  -0.001  -3.179  0.00  0.00    +0.113 A 
ATOM     19  C   UNL     1       0.707  -0.008  -4.249  0.00  0.00    +0.129 A 
ATOM     20  N   UNL     1       1.418   1.137  -4.182  0.00  0.00    -0.263 N 
ATOM     21  H   UNL     1       2.193   1.348  -4.934  0.00  0.00    +0.190 HD
ATOM     22  N   UNL     1       0.976   1.869  -3.075  0.00  0.00    -0.176 NA
BRANCH  19  23
ATOM     23  N   UNL     1       0.838  -1.001  -5.202  0.00  0.00    -0.342 N 
ATOM     24  H   UNL     1       1.580  -0.896  -6.006  0.00  0.00    +0.144 HD
ATOM     25  H   UNL     1       0.200  -1.895  -5.155  0.00  0.00    +0.144 HD
ENDBRANCH  19  23
BRANCH  18  26
ATOM     26  C   UNL     1      -1.136  -1.020  -2.857  0.00  0.00    +0.104 C 
ATOM     27  N   UNL     1      -1.892  -1.829  -2.601  0.00  0.00    -0.191 NA
ENDBRANCH  18  26
ENDBRANCH  16  17
ENDBRANCH  15  16
ENDBRANCH   1  15
TORSDOF 6
