REMARK  Name = ZINC07395814
REMARK  6 active torsions:
REMARK  status: ('A' for Active; 'I' for Inactive)
REMARK    1  A    between atoms: C_3  and  C_22
REMARK    2  A    between atoms: C_5  and  C_7
REMARK    3  A    between atoms: C_7  and  O_9
REMARK    4  A    between atoms: O_9  and  C_10
REMARK    5  A    between atoms: C_10  and  C_11
REMARK    6  A    between atoms: N_13  and  C_14
REMARK                            x       y       z     vdW  Elec       q    Type
REMARK                         _______ _______ _______ _____ _____    ______ ____
ROOT
ATOM      1  C   UNL     1      -0.877   2.588  -1.248  0.00  0.00    +0.328 C 
ENDROOT
BRANCH   1   2
ATOM      2  C   UNL     1       0.486   1.949  -1.174  0.00  0.00    +0.255 C 
ATOM      3  O   UNL     1       0.992   1.484  -2.173  0.00  0.00    -0.272 OA
ATOM      4  N   UNL     1       1.143   1.898   0.001  0.00  0.00    -0.280 N 
ATOM      5  H   UNL     1       0.771   2.333   0.784  0.00  0.00    +0.155 HD
BRANCH   4   6
ATOM      6  C   UNL     1       2.364   1.218   0.092  0.00  0.00    +0.071 A 
ATOM      7  C   UNL     1       2.385  -0.136   0.402  0.00  0.00    +0.064 A 
ATOM      8  C   UNL     1       3.592  -0.805   0.486  0.00  0.00    +0.022 A 
ATOM      9  C   UNL     1       4.777  -0.126   0.271  0.00  0.00    +0.003 A 
ATOM     10  C   UNL     1       4.760   1.223  -0.033  0.00  0.00    +0.022 A 
ATOM     11  C   UNL     1       3.557   1.897  -0.123  0.00  0.00    +0.064 A 
ATOM     12 CL   UNL     1       3.537   3.591  -0.504  0.00  0.00    -0.082 Cl
ATOM     13 CL   UNL     1       0.898  -0.988   0.678  0.00  0.00    -0.082 Cl
ENDBRANCH   4   6
ENDBRANCH   1   2
BRANCH   1  14
ATOM     14  O   UNL     1      -1.369   2.523  -2.612  0.00  0.00    -0.452 OA
BRANCH  14  15
ATOM     15  C   UNL     1      -2.583   3.055  -2.851  0.00  0.00    +0.340 C 
ATOM     16  O   UNL     1      -3.214   3.559  -1.943  0.00  0.00    -0.245 OA
BRANCH  15  21
ATOM     17  C   UNL     1      -2.949   2.418  -6.537  0.00  0.00    +0.002 A 
ATOM     18  C   UNL     1      -4.193   2.961  -6.790  0.00  0.00    +0.019 A 
ATOM     19  C   UNL     1      -4.929   3.543  -5.755  0.00  0.00    +0.053 A 
ATOM     20  C   UNL     1      -4.404   3.575  -4.464  0.00  0.00    +0.033 A 
ATOM     21  C   UNL     1      -3.148   3.025  -4.216  0.00  0.00    +0.060 A 
ATOM     22  C   UNL     1      -2.421   2.451  -5.262  0.00  0.00    +0.015 A 
BRANCH  19  23
ATOM     23  C   UNL     1      -6.219   4.106  -6.019  0.00  0.00    +0.099 C 
ATOM     24  N   UNL     1      -7.242   4.552  -6.229  0.00  0.00    -0.191 NA
ENDBRANCH  19  23
ENDBRANCH  15  21
ENDBRANCH  14  15
ENDBRANCH   1  14
TORSDOF 6
