REMARK  Name = ZINC57926331
REMARK  4 active torsions:
REMARK  status: ('A' for Active; 'I' for Inactive)
REMARK    1  A    between atoms: C_1  and  C_2
REMARK    2  A    between atoms: C_2  and  C_3
REMARK    3  A    between atoms: N_13  and  C_14
REMARK    4  A    between atoms: C_14  and  C_15
REMARK                            x       y       z     vdW  Elec       q    Type
REMARK                         _______ _______ _______ _____ _____    ______ ____
ROOT
ATOM      1  C   UNL     1      -1.272  -0.453  -0.010  0.00  0.00    +0.091 C 
ATOM      2  C   UNL     1      -1.224  -1.946   0.347  0.00  0.00    +0.124 C 
ATOM      3  N   UNL     1      -0.813  -2.692  -0.851  0.00  0.00    -0.341 N 
ATOM      4  C   UNL     1      -1.409  -2.375  -2.083  0.00  0.00    +0.052 A 
ATOM      5  C   UNL     1      -1.317  -3.256  -3.149  0.00  0.00    +0.074 A 
ATOM      6  C   UNL     1      -1.907  -2.938  -4.364  0.00  0.00    +0.164 A 
ATOM      7  C   UNL     1      -2.590  -1.738  -4.513  0.00  0.00    +0.164 A 
ATOM      8  C   UNL     1      -2.681  -0.854  -3.446  0.00  0.00    +0.074 A 
ATOM      9  C   UNL     1      -2.093  -1.170  -2.232  0.00  0.00    +0.055 A 
ATOM     10  N   UNL     1      -2.188  -0.281  -1.148  0.00  0.00    -0.315 N 
ATOM     11  O   UNL     1      -3.181  -1.415  -5.697  0.00  0.00    -0.485 OA
ATOM     12  C   UNL     1      -2.757  -2.149  -6.850  0.00  0.00    +0.270 C 
ATOM     13  C   UNL     1      -2.724  -3.639  -6.486  0.00  0.00    +0.270 C 
ATOM     14  O   UNL     1      -1.805  -3.815  -5.402  0.00  0.00    -0.485 OA
ATOM     15  H   UNL     1      -0.142  -3.390  -0.792  0.00  0.00    +0.146 HD
ENDROOT
BRANCH   1  17
ATOM     16  C   UNL     1       0.094   1.539  -0.648  0.00  0.00    +0.006 C 
ATOM     17  C   UNL     1       0.127   0.030  -0.396  0.00  0.00    +0.020 C 
ENDBRANCH   1  17
BRANCH  10  18
ATOM     18  C   UNL     1      -3.180   0.797  -1.150  0.00  0.00    +0.218 C 
BRANCH  18  19
ATOM     19  C   UNL     1      -4.517   0.261  -0.637  0.00  0.00    +0.405 C 
ATOM     20  F   UNL     1      -4.343  -0.282   0.641  0.00  0.00    -0.169 F 
ATOM     21  F   UNL     1      -5.447   1.305  -0.577  0.00  0.00    -0.169 F 
ATOM     22  F   UNL     1      -4.986  -0.731  -1.505  0.00  0.00    -0.169 F 
ENDBRANCH  18  19
ENDBRANCH  10  18
TORSDOF 3
