REMARK  Name = ZINC08649719
REMARK  9 active torsions:
REMARK  status: ('A' for Active; 'I' for Inactive)
REMARK    1  A    between atoms: C_1  and  C_2
REMARK    2  A    between atoms: C_2  and  C_27
REMARK    3  A    between atoms: N_7  and  C_8
REMARK    4  A    between atoms: C_12  and  O_14
REMARK    5  A    between atoms: O_14  and  C_15
REMARK    6  A    between atoms: C_15  and  C_16
REMARK    7  A    between atoms: C_16  and  O_17
REMARK    8  A    between atoms: O_17  and  C_18
REMARK    9  A    between atoms: C_21  and  N_24
REMARK                            x       y       z     vdW  Elec       q    Type
REMARK                         _______ _______ _______ _____ _____    ______ ____
ROOT
ATOM      1  C   UNL     1      -3.233  -0.149   1.361  0.00  0.00    +0.042 A 
ATOM      2  C   UNL     1      -2.766   0.038   2.656  0.00  0.00    +0.024 A 
ATOM      3  C   UNL     1      -3.485  -0.453   3.728  0.00  0.00    +0.005 A 
ATOM      4  C   UNL     1      -4.665  -1.140   3.516  0.00  0.00    +0.046 A 
ATOM      5  C   UNL     1      -5.134  -1.335   2.224  0.00  0.00    +0.122 A 
ATOM      6  C   UNL     1      -4.418  -0.839   1.146  0.00  0.00    +0.069 A 
ENDROOT
BRANCH   1  13
ATOM      7  C   UNL     1      -3.546   1.444  -1.667  0.00  0.00    +0.053 C 
ATOM      8  C   UNL     1      -2.832   1.656  -0.331  0.00  0.00    +0.102 C 
ATOM      9  N   UNL     1      -1.564   2.376  -0.550  0.00  0.00    -0.298 N 
ATOM     10  C   UNL     1      -0.513   1.652  -1.099  0.00  0.00    +0.159 C 
ATOM     11  N   UNL     1      -0.303   0.377  -0.576  0.00  0.00    -0.263 N 
ATOM     12  C   UNL     1      -1.449  -0.358  -0.279  0.00  0.00    +0.166 C 
ATOM     13  N   UNL     1      -2.507   0.352   0.276  0.00  0.00    -0.253 N 
ATOM     14  C   UNL     1      -3.729   2.459   0.614  0.00  0.00    +0.053 C 
ATOM     15  H   UNL     1      -1.468   3.314  -0.320  0.00  0.00    +0.151 HD
ATOM     16  H   UNL     1       0.985   1.687  -2.477  0.00  0.00    +0.158 HD
ATOM     17  H   UNL     1       0.588   0.023  -0.428  0.00  0.00    +0.157 HD
ATOM     18  H   UNL     1      -0.822  -2.195  -0.893  0.00  0.00    +0.158 HD
ATOM     19  N   UNL     1       0.209   2.203  -2.062  0.00  0.00    -0.375 N 
ATOM     20  H   UNL     1      -0.012   3.150  -2.392  0.00  0.00    +0.158 HD
ATOM     21  N   UNL     1      -1.588  -1.658  -0.486  0.00  0.00    -0.374 N 
ATOM     22  H   UNL     1      -2.468  -2.127  -0.239  0.00  0.00    +0.158 HD
ENDBRANCH   1  13
BRANCH   5  23
ATOM     23  O   UNL     1      -6.294  -2.011   2.017  0.00  0.00    -0.489 OA
BRANCH  23  24
ATOM     24  C   UNL     1      -6.980  -2.493   3.174  0.00  0.00    +0.270 C 
BRANCH  24  25
ATOM     25  C   UNL     1      -8.254  -3.223   2.745  0.00  0.00    +0.270 C 
BRANCH  25  26
ATOM     26  O   UNL     1      -7.906  -4.390   1.998  0.00  0.00    -0.489 OA
BRANCH  26  27
ATOM     27  C   UNL     1      -8.930  -5.157   1.539  0.00  0.00    +0.121 A 
ATOM     28  C   UNL     1     -10.243  -4.796   1.807  0.00  0.00    +0.048 A 
ATOM     29  C   UNL     1     -11.282  -5.575   1.335  0.00  0.00    +0.036 A 
ATOM     30  C   UNL     1     -11.014  -6.718   0.605  0.00  0.00    +0.126 A 
ATOM     31  C   UNL     1      -9.707  -7.083   0.341  0.00  0.00    +0.036 A 
ATOM     32  C   UNL     1      -8.664  -6.305   0.806  0.00  0.00    +0.048 A 
BRANCH  30  33
ATOM     33  N   UNL     1     -12.129  -7.553   0.105  0.00  0.00    +0.056 N 
ATOM     34  O   UNL     1     -11.895  -8.560  -0.538  0.00  0.00    -0.126 OA
ATOM     35  O   UNL     1     -13.281  -7.233   0.337  0.00  0.00    -0.126 OA
ENDBRANCH  30  33
ENDBRANCH  26  27
ENDBRANCH  25  26
ENDBRANCH  24  25
ENDBRANCH  23  24
ENDBRANCH   5  23
TORSDOF 7
