REMARK  Name = ZINC40284686
REMARK  6 active torsions:
REMARK  status: ('A' for Active; 'I' for Inactive)
REMARK    1  A    between atoms: C_3  and  O_26
REMARK    2  A    between atoms: C_6  and  C_7
REMARK    3  A    between atoms: C_10  and  O_25
REMARK    4  A    between atoms: N_16  and  C_17
REMARK    5  A    between atoms: O_26  and  C_27
REMARK    6  A    between atoms: C_27  and  C_28
REMARK                            x       y       z     vdW  Elec       q    Type
REMARK                         _______ _______ _______ _____ _____    ______ ____
ROOT
ATOM      1  C   UNL     1      -1.293  -0.774   0.011  0.00  0.00    +0.080 C 
ATOM      2  C   UNL     1      -1.375  -1.668  -1.232  0.00  0.00    +0.110 C 
ATOM      3  C   UNL     1      -0.530  -2.898  -1.081  0.00  0.00    +0.190 C 
ATOM      4  N   UNL     1      -0.327  -3.490   0.059  0.00  0.00    -0.197 NA
ATOM      5  C   UNL     1      -0.876  -2.955   1.188  0.00  0.00    +0.165 A 
ATOM      6  C   UNL     1      -1.349  -1.667   1.226  0.00  0.00    +0.094 A 
ATOM      7  N   UNL     1      -1.813  -1.430   2.446  0.00  0.00    -0.237 NA
ATOM      8  C   UNL     1      -1.663  -2.502   3.184  0.00  0.00    +0.206 A 
ATOM      9  N   UNL     1      -1.079  -3.483   2.429  0.00  0.00    -0.283 N 
ENDROOT
BRANCH   9  10
ATOM     10  C   UNL     1      -0.753  -4.781   2.849  0.00  0.00    +0.051 A 
ATOM     11  C   UNL     1      -1.142  -5.876   2.090  0.00  0.00    +0.029 A 
ATOM     12  C   UNL     1      -0.820  -7.153   2.505  0.00  0.00    +0.042 A 
ATOM     13  C   UNL     1      -0.110  -7.343   3.679  0.00  0.00    +0.142 A 
ATOM     14  C   UNL     1       0.278  -6.251   4.439  0.00  0.00    +0.078 A 
ATOM     15  C   UNL     1      -0.037  -4.971   4.023  0.00  0.00    +0.049 A 
ATOM     16 CL   UNL     1       1.167  -6.491   5.911  0.00  0.00    -0.081 Cl
ATOM     17  F   UNL     1       0.203  -8.593   4.083  0.00  0.00    -0.204 F 
ENDBRANCH   9  10
BRANCH   1  23
ATOM     18  C   UNL     1      -0.017   1.378   0.010  0.00  0.00    +0.008 A 
ATOM     19  C   UNL     1       1.169   2.087   0.002  0.00  0.00    +0.046 A 
ATOM     20  C   UNL     1       2.380   1.409  -0.013  0.00  0.00    +0.121 A 
ATOM     21  C   UNL     1       2.396   0.022  -0.021  0.00  0.00    +0.046 A 
ATOM     22  C   UNL     1       1.207  -0.681  -0.013  0.00  0.00    +0.008 A 
ATOM     23  C   UNL     1       0.002  -0.004   0.002  0.00  0.00    -0.038 A 
BRANCH  20  24
ATOM     24  O   UNL     1       3.548   2.104  -0.021  0.00  0.00    -0.483 OA
BRANCH  24  25
ATOM     25  C   UNL     1       4.756   1.341  -0.036  0.00  0.00    +0.324 C 
BRANCH  25  26
ATOM     26  C   UNL     1       5.940   2.274  -0.043  0.00  0.00    +0.248 C 
ATOM     27  O   UNL     1       5.766   3.474  -0.036  0.00  0.00    -0.272 OA
ATOM     28  N   UNL     1       7.192   1.774  -0.058  0.00  0.00    -0.327 N 
ATOM     29  H   UNL     1       7.331   0.814  -0.064  0.00  0.00    +0.145 HD
ATOM     30  H   UNL     1       7.953   2.375  -0.062  0.00  0.00    +0.145 HD
ENDBRANCH  25  26
ENDBRANCH  24  25
ENDBRANCH  20  24
ENDBRANCH   1  23
BRANCH   3  31
ATOM     31  O   UNL     1       0.048  -3.419  -2.184  0.00  0.00    -0.495 OA
ATOM     32  H   UNL     1       0.577  -4.210  -2.015  0.00  0.00    +0.293 HD
ENDBRANCH   3  31
TORSDOF 6
