REMARK  Name = ZINC35538458
REMARK  7 active torsions:
REMARK  status: ('A' for Active; 'I' for Inactive)
REMARK    1  A    between atoms: C_1  and  C_2
REMARK    2  A    between atoms: C_4  and  C_34
REMARK    3  A    between atoms: C_6  and  N_8
REMARK    4  A    between atoms: C_17  and  C_18
REMARK    5  A    between atoms: C_17  and  C_19
REMARK    6  A    between atoms: N_21  and  C_22
REMARK    7  A    between atoms: C_28  and  C_30
REMARK                            x       y       z     vdW  Elec       q    Type
REMARK                         _______ _______ _______ _____ _____    ______ ____
ROOT
ATOM      1  N   UNL     1       0.059  -2.796   2.390  0.00  0.00    -0.250 N 
ATOM      2  C   UNL     1      -0.019  -4.146   2.357  0.00  0.00    +0.268 C 
ATOM      3  O   UNL     1       0.107  -4.771   1.320  0.00  0.00    -0.268 OA
ATOM      4  C   UNL     1      -0.263  -4.818   3.639  0.00  0.00    +0.109 A 
ATOM      5  C   UNL     1      -0.219  -6.141   3.971  0.00  0.00    +0.079 A 
ATOM      6  C   UNL     1      -0.516  -6.241   5.338  0.00  0.00    +0.153 A 
ATOM      7  C   UNL     1      -0.745  -4.951   5.817  0.00  0.00    +0.088 A 
ATOM      8  N   UNL     1      -0.599  -4.086   4.775  0.00  0.00    -0.331 N 
ATOM      9  C   UNL     1      -0.757  -2.629   4.732  0.00  0.00    +0.158 C 
ATOM     10  C   UNL     1       0.159  -2.058   3.644  0.00  0.00    +0.133 C 
ATOM     11  C   UNL     1      -0.223  -0.599   3.392  0.00  0.00    +0.044 C 
ATOM     12  C   UNL     1      -1.034  -5.090   7.196  0.00  0.00    +0.067 A 
ATOM     13  C   UNL     1      -0.977  -6.401   7.486  0.00  0.00    +0.198 A 
ATOM     14  O   UNL     1      -0.670  -7.092   6.375  0.00  0.00    -0.461 OA
ENDROOT
BRANCH   1  20
ATOM     15  C   UNL     1       2.350  -1.446  -1.744  0.00  0.00    +0.044 C 
ATOM     16  C   UNL     1       1.147  -1.414  -0.838  0.00  0.00    -0.048 A 
ATOM     17  C   UNL     1       0.030  -0.681  -1.198  0.00  0.00    +0.006 A 
ATOM     18  C   UNL     1      -1.076  -0.649  -0.370  0.00  0.00    -0.048 A 
ATOM     19  C   UNL     1      -1.070  -1.349   0.821  0.00  0.00    +0.027 A 
ATOM     20  C   UNL     1       0.049  -2.086   1.185  0.00  0.00    +0.038 A 
ATOM     21  C   UNL     1       1.157  -2.120   0.348  0.00  0.00    +0.027 A 
ATOM     22  C   UNL     1      -2.290   0.151  -0.766  0.00  0.00    +0.044 C 
ENDBRANCH   1  20
BRANCH  10  23
ATOM     23  C   UNL     1       1.586  -2.109   4.127  0.00  0.00    +0.239 C 
ATOM     24  O   UNL     1       1.823  -2.164   5.315  0.00  0.00    -0.273 OA
ATOM     25  N   UNL     1       2.599  -2.093   3.238  0.00  0.00    -0.310 N 
ATOM     26  H   UNL     1       2.409  -2.048   2.288  0.00  0.00    +0.149 HD
BRANCH  25  27
ATOM     27  C   UNL     1       3.986  -2.142   3.707  0.00  0.00    +0.076 C 
ATOM     28  C   UNL     1       4.459  -0.728   4.050  0.00  0.00    +0.022 C 
ATOM     29  C   UNL     1       4.373   0.155   2.803  0.00  0.00    +0.002 C 
ATOM     30  C   UNL     1       5.262  -0.427   1.703  0.00  0.00    +0.000 C 
ATOM     31  C   UNL     1       4.790  -1.841   1.360  0.00  0.00    +0.005 C 
ATOM     32  C   UNL     1       4.875  -2.724   2.607  0.00  0.00    +0.006 C 
ATOM     33  C   UNL     1       4.403  -4.138   2.264  0.00  0.00    +0.009 C 
ENDBRANCH  25  27
ENDBRANCH  10  23
TORSDOF 3
