REMARK  Name = ZINC42620645
REMARK  4 active torsions:
REMARK  status: ('A' for Active; 'I' for Inactive)
REMARK    1  A    between atoms: N_4  and  C_6
REMARK    2  A    between atoms: C_7  and  C_15
REMARK    3  A    between atoms: N_17  and  C_18
REMARK    4  A    between atoms: C_22  and  N_24
REMARK                            x       y       z     vdW  Elec       q    Type
REMARK                         _______ _______ _______ _____ _____    ______ ____
ROOT
ATOM      1  C   UNL     1      -0.477  -2.838   0.011  0.00  0.00    +0.251 C 
ATOM      2  O   UNL     1      -1.084  -2.795  -1.043  0.00  0.00    -0.270 OA
ATOM      3  N   UNL     1      -1.150  -2.813   1.179  0.00  0.00    -0.281 N 
ATOM      4  H   UNL     1      -0.672  -2.915   2.016  0.00  0.00    +0.155 HD
ENDROOT
BRANCH   1   6
ATOM      5  C   UNL     1       1.765  -1.777   0.023  0.00  0.00    +0.097 A 
ATOM      6  C   UNL     1       0.988  -2.918   0.011  0.00  0.00    +0.072 A 
ATOM      7  C   UNL     1       1.676  -4.209  -0.001  0.00  0.00    -0.021 A 
ATOM      8  C   UNL     1       3.015  -4.105  -0.003  0.00  0.00    +0.006 A 
ATOM      9  S   UNL     1       3.338  -2.358   0.012  0.00  0.00    -0.074 S 
ATOM     10  C   UNL     1       4.066  -5.181  -0.028  0.00  0.00    +0.111 C 
ATOM     11  S   UNL     1       3.274  -6.760   0.410  0.00  0.00    -0.155 S 
ATOM     12  C   UNL     1       1.718  -6.673  -0.530  0.00  0.00    +0.074 C 
ATOM     13  C   UNL     1       0.889  -5.509   0.000  0.00  0.00    +0.047 C 
BRANCH   5  17
ATOM     14  C   UNL     1       0.035   1.317   0.053  0.00  0.00    +0.019 A 
ATOM     15  C   UNL     1       1.378   1.746   0.052  0.00  0.00    +0.019 A 
ATOM     16  C   UNL     1       2.156   0.645   0.041  0.00  0.00    +0.092 A 
ATOM     17  N   UNL     1       1.341  -0.453   0.035  0.00  0.00    -0.317 N 
ATOM     18  C   UNL     1       0.041  -0.031   0.043  0.00  0.00    +0.092 A 
ENDBRANCH   5  17
ENDBRANCH   1   6
BRANCH   3  19
ATOM     19  C   UNL     1      -2.538  -2.640   1.181  0.00  0.00    +0.035 A 
ATOM     20  C   UNL     1      -3.310  -3.196   0.168  0.00  0.00    +0.023 A 
ATOM     21  C   UNL     1      -4.681  -3.026   0.171  0.00  0.00    +0.004 A 
ATOM     22  C   UNL     1      -5.289  -2.304   1.180  0.00  0.00    +0.023 A 
ATOM     23  C   UNL     1      -4.523  -1.746   2.196  0.00  0.00    +0.037 A 
ATOM     24  C   UNL     1      -3.146  -1.919   2.199  0.00  0.00    +0.046 A 
BRANCH  23  25
ATOM     25  N   UNL     1      -5.139  -1.014   3.217  0.00  0.00    -0.270 N 
ATOM     26  C   UNL     1      -4.515   0.054   3.752  0.00  0.00    +0.301 C 
ATOM     27  O   UNL     1      -3.382   0.332   3.407  0.00  0.00    -0.253 OA
ATOM     28  N   UNL     1      -5.146   0.813   4.669  0.00  0.00    -0.313 N 
ATOM     29  H   UNL     1      -6.016  -1.276   3.540  0.00  0.00    +0.156 HD
ATOM     30  H   UNL     1      -6.049   0.592   4.944  0.00  0.00    +0.146 HD
ATOM     31  H   UNL     1      -4.697   1.582   5.054  0.00  0.00    +0.146 HD
ENDBRANCH  23  25
ENDBRANCH   3  19
TORSDOF 4
