REMARK  Name = ZINC66587614
REMARK  7 active torsions:
REMARK  status: ('A' for Active; 'I' for Inactive)
REMARK    1  A    between atoms: C_1  and  C_2
REMARK    2  A    between atoms: C_9  and  N_12
REMARK    3  A    between atoms: N_12  and  S_13
REMARK    4  A    between atoms: S_13  and  C_16
REMARK    5  A    between atoms: C_18  and  N_24
REMARK    6  A    between atoms: C_21  and  O_22
REMARK    7  A    between atoms: O_22  and  C_23
REMARK                            x       y       z     vdW  Elec       q    Type
REMARK                         _______ _______ _______ _____ _____    ______ ____
ROOT
ATOM      1  S   UNL     1       0.063  -2.776   5.064  0.00  0.00    +0.095 S 
ATOM      2  O   UNL     1      -1.172  -3.473   5.152  0.00  0.00    -0.148 OA
ATOM      3  O   UNL     1       1.319  -3.437   5.142  0.00  0.00    -0.148 OA
ENDROOT
BRANCH   1   4
ATOM      4  C   UNL     1       0.051  -1.566   6.344  0.00  0.00    +0.154 A 
ATOM      5  C   UNL     1      -1.029  -1.478   7.202  0.00  0.00    +0.065 A 
ATOM      6  C   UNL     1      -1.040  -0.529   8.207  0.00  0.00    +0.128 A 
ATOM      7  C   UNL     1       0.030   0.335   8.357  0.00  0.00    +0.036 A 
ATOM      8  C   UNL     1       1.112   0.251   7.502  0.00  0.00    +0.050 A 
ATOM      9  C   UNL     1       1.127  -0.704   6.496  0.00  0.00    +0.147 A 
BRANCH   6  10
ATOM     10  N   UNL     1      -2.197  -0.436   9.124  0.00  0.00    +0.056 N 
ATOM     11  O   UNL     1      -3.133  -1.191   8.994  0.00  0.00    -0.126 OA
ATOM     12  O   UNL     1      -2.208   0.393  10.004  0.00  0.00    -0.126 OA
ENDBRANCH   6  10
BRANCH   9  13
ATOM     13  O   UNL     1       2.192  -0.792   5.657  0.00  0.00    -0.493 OA
ATOM     14  C   UNL     1       3.265   0.127   5.872  0.00  0.00    +0.277 C 
ENDBRANCH   9  13
ENDBRANCH   1   4
BRANCH   1  15
ATOM     15  N   UNL     1       0.045  -1.962   3.621  0.00  0.00    -0.096 NA
BRANCH  15  24
ATOM     16  C   UNL     1      -0.018   1.503   0.010  0.00  0.00    +0.063 C 
ATOM     17  C   UNL     1       0.002  -0.004   0.002  0.00  0.00    +0.013 A 
ATOM     18  C   UNL     1       0.005  -0.676  -1.219  0.00  0.00    +0.021 A 
ATOM     19  C   UNL     1       0.024  -2.041  -1.245  0.00  0.00    +0.012 A 
ATOM     20  C   UNL     1       0.040  -2.729  -0.016  0.00  0.00    +0.000 A 
ATOM     21  C   UNL     1       0.060  -4.133   0.034  0.00  0.00    +0.010 A 
ATOM     22  C   UNL     1       0.076  -4.769   1.237  0.00  0.00    +0.003 A 
ATOM     23  C   UNL     1       0.071  -4.049   2.429  0.00  0.00    +0.029 A 
ATOM     24  C   UNL     1       0.051  -2.672   2.421  0.00  0.00    +0.098 A 
ATOM     25  C   UNL     1       0.035  -1.983   1.187  0.00  0.00    +0.071 A 
ATOM     26  N   UNL     1       0.022  -0.648   1.143  0.00  0.00    -0.357 N 
ATOM     27  H   UNL     1       0.022  -0.146   1.973  0.00  0.00    +0.166 HD
ENDBRANCH  15  24
ENDBRANCH   1  15
TORSDOF 5
