REMARK  Name = ZINC10313771
REMARK  8 active torsions:
REMARK  status: ('A' for Active; 'I' for Inactive)
REMARK    1  A    between atoms: C_4  and  C_7
REMARK    2  A    between atoms: C_9  and  C_17
REMARK    3  A    between atoms: N_19  and  C_20
REMARK    4  A    between atoms: C_20  and  C_21
REMARK    5  A    between atoms: C_21  and  C_22
REMARK    6  A    between atoms: C_22  and  N_23
REMARK    7  A    between atoms: C_24  and  C_26
REMARK    8  A    between atoms: C_31  and  N_32
REMARK                            x       y       z     vdW  Elec       q    Type
REMARK                         _______ _______ _______ _____ _____    ______ ____
ROOT
ATOM      1  C   UNL     1       6.443   1.613  -2.166  0.00  0.00    +0.245 C 
ATOM      2  O   UNL     1       6.655   2.809  -2.213  0.00  0.00    -0.270 OA
ATOM      3  N   UNL     1       5.207   1.159  -1.879  0.00  0.00    -0.311 N 
ATOM      4  H   UNL     1       5.037   0.204  -1.842  0.00  0.00    +0.149 HD
ENDROOT
BRANCH   1   7
ATOM      5  C   UNL     1       8.427  -1.582  -2.531  0.00  0.00    +0.072 A 
ATOM      6  C   UNL     1       7.357  -0.711  -2.275  0.00  0.00    +0.042 A 
ATOM      7  C   UNL     1       7.541   0.656  -2.424  0.00  0.00    +0.048 A 
ATOM      8  C   UNL     1       8.864   1.113  -2.851  0.00  0.00    +0.013 A 
ATOM      9  C   UNL     1       9.145   2.472  -3.034  0.00  0.00    +0.011 A 
ATOM     10  C   UNL     1      10.391   2.854  -3.433  0.00  0.00    +0.001 A 
ATOM     11  C   UNL     1      11.389   1.909  -3.662  0.00  0.00    +0.002 A 
ATOM     12  C   UNL     1      11.152   0.581  -3.484  0.00  0.00    +0.028 A 
ATOM     13  C   UNL     1       9.876   0.147  -3.078  0.00  0.00    +0.072 A 
ATOM     14  N   UNL     1       9.611  -1.149  -2.910  0.00  0.00    -0.247 NA
BRANCH   5  18
ATOM     15  C   UNL     1       7.824  -5.764  -2.065  0.00  0.00    +0.000 A 
ATOM     16  C   UNL     1       9.059  -5.287  -2.462  0.00  0.00    +0.001 A 
ATOM     17  C   UNL     1       9.261  -3.930  -2.615  0.00  0.00    +0.010 A 
ATOM     18  C   UNL     1       8.216  -3.041  -2.368  0.00  0.00    +0.000 A 
ATOM     19  C   UNL     1       6.975  -3.528  -1.963  0.00  0.00    +0.010 A 
ATOM     20  C   UNL     1       6.783  -4.887  -1.819  0.00  0.00    +0.001 A 
ENDBRANCH   5  18
ENDBRANCH   1   7
BRANCH   3  21
ATOM     21  C   UNL     1       4.119   2.107  -1.624  0.00  0.00    +0.106 C 
BRANCH  21  22
ATOM     22  C   UNL     1       2.831   1.336  -1.326  0.00  0.00    +0.037 C 
BRANCH  22  23
ATOM     23  C   UNL     1       1.695   2.326  -1.060  0.00  0.00    +0.106 C 
BRANCH  23  24
ATOM     24  N   UNL     1       0.462   1.589  -0.774  0.00  0.00    -0.311 N 
ATOM     25  C   UNL     1      -0.678   2.258  -0.513  0.00  0.00    +0.246 C 
ATOM     26  O   UNL     1      -0.682   3.474  -0.510  0.00  0.00    -0.270 OA
ATOM     27  H   UNL     1       0.465   0.619  -0.777  0.00  0.00    +0.149 HD
BRANCH  25  28
ATOM     28  C   UNL     1      -1.921   1.516  -0.232  0.00  0.00    +0.057 A 
ATOM     29  C   UNL     1      -1.897   0.123  -0.117  0.00  0.00    +0.015 A 
ATOM     30  C   UNL     1      -3.061  -0.564   0.152  0.00  0.00    +0.001 A 
ATOM     31  C   UNL     1      -4.259   0.117   0.298  0.00  0.00    +0.002 A 
ATOM     32  C   UNL     1      -4.300   1.492   0.182  0.00  0.00    +0.023 A 
ATOM     33  C   UNL     1      -3.135   2.203  -0.083  0.00  0.00    +0.037 A 
BRANCH  33  34
ATOM     34  N   UNL     1      -3.174   3.586  -0.201  0.00  0.00    -0.357 N 
ATOM     35  H   UNL     1      -2.485   4.049  -0.703  0.00  0.00    +0.142 HD
ATOM     36  H   UNL     1      -3.889   4.089   0.219  0.00  0.00    +0.142 HD
ENDBRANCH  33  34
ENDBRANCH  25  28
ENDBRANCH  23  24
ENDBRANCH  22  23
ENDBRANCH  21  22
ENDBRANCH   3  21
TORSDOF 8
