REMARK  Name = ZINC61473857
REMARK  5 active torsions:
REMARK  status: ('A' for Active; 'I' for Inactive)
REMARK    1  A    between atoms: C_1  and  C_2
REMARK    2  A    between atoms: C_6  and  C_8
REMARK    3  A    between atoms: C_12  and  N_15
REMARK    4  A    between atoms: N_18  and  C_19
REMARK    5  A    between atoms: C_19  and  C_20
REMARK                            x       y       z     vdW  Elec       q    Type
REMARK                         _______ _______ _______ _____ _____    ______ ____
ROOT
ATOM      1  N   UNL     1      -4.142  -5.438  -3.120  0.00  0.00    -0.268 N 
ATOM      2  C   UNL     1      -4.369  -5.129  -4.413  0.00  0.00    +0.304 C 
ATOM      3  O   UNL     1      -3.902  -4.111  -4.886  0.00  0.00    -0.253 OA
ATOM      4  N   UNL     1      -5.114  -5.949  -5.181  0.00  0.00    -0.296 N 
ATOM      5  H   UNL     1      -4.445  -6.287  -2.764  0.00  0.00    +0.156 HD
ATOM      6  H   UNL     1      -5.486  -6.761  -4.803  0.00  0.00    +0.150 HD
ENDROOT
BRANCH   1  18
ATOM      7  C   UNL     1      -0.051   1.542   0.016  0.00  0.00    +0.039 C 
ATOM      8  C   UNL     1      -0.033   0.012   0.019  0.00  0.00    +0.133 C 
ATOM      9  C   UNL     1      -1.471  -0.517   0.021  0.00  0.00    +0.137 C 
ATOM     10  N   UNL     1      -1.429  -1.975   0.212  0.00  0.00    -0.312 N 
ATOM     11  C   UNL     1      -0.632  -2.503   1.331  0.00  0.00    +0.137 C 
ATOM     12  C   UNL     1       0.766  -1.877   1.266  0.00  0.00    +0.133 C 
ATOM     13  O   UNL     1       0.642  -0.455   1.190  0.00  0.00    -0.371 OA
ATOM     14  C   UNL     1       1.555  -2.255   2.521  0.00  0.00    +0.039 C 
ATOM     15  C   UNL     1      -2.123  -2.831  -0.639  0.00  0.00    +0.099 A 
ATOM     16  C   UNL     1      -2.955  -2.299  -1.620  0.00  0.00    +0.043 A 
ATOM     17  C   UNL     1      -3.639  -3.158  -2.460  0.00  0.00    +0.028 A 
ATOM     18  C   UNL     1      -3.467  -4.530  -2.291  0.00  0.00    +0.051 A 
ATOM     19  C   UNL     1      -2.622  -4.988  -1.292  0.00  0.00    +0.107 A 
ATOM     20  N   UNL     1      -1.980  -4.140  -0.511  0.00  0.00    -0.348 N 
ATOM     21  H   UNL     1      -1.391  -4.486   0.178  0.00  0.00    +0.167 HD
ENDBRANCH   1  18
BRANCH   4  22
ATOM     22  C   UNL     1      -5.360  -5.614  -6.585  0.00  0.00    +0.153 C 
BRANCH  22  23
ATOM     23  C   UNL     1      -6.226  -6.701  -7.224  0.00  0.00    +0.228 C 
ATOM     24  C   UNL     1      -6.409  -6.405  -8.719  0.00  0.00    +0.275 C 
ATOM     25  O   UNL     1      -7.234  -7.431  -9.282  0.00  0.00    -0.485 OA
ATOM     26  C   UNL     1      -8.356  -7.764  -8.587  0.00  0.00    +0.162 A 
ATOM     27  C   UNL     1      -9.368  -8.465  -9.225  0.00  0.00    +0.049 A 
ATOM     28  C   UNL     1     -10.512  -8.812  -8.532  0.00  0.00    +0.004 A 
ATOM     29  C   UNL     1     -10.651  -8.463  -7.202  0.00  0.00    +0.004 A 
ATOM     30  C   UNL     1      -9.646  -7.763  -6.561  0.00  0.00    +0.049 A 
ATOM     31  C   UNL     1      -8.496  -7.410  -7.251  0.00  0.00    +0.163 A 
ATOM     32  O   UNL     1      -7.519  -6.714  -6.608  0.00  0.00    -0.480 OA
ENDBRANCH  22  23
ENDBRANCH   4  22
TORSDOF 3
