REMARK  Name = ZINC65365285
REMARK  9 active torsions:
REMARK  status: ('A' for Active; 'I' for Inactive)
REMARK    1  A    between atoms: C_1  and  C_2
REMARK    2  A    between atoms: C_5  and  N_8
REMARK    3  A    between atoms: N_11  and  C_12
REMARK    4  A    between atoms: C_12  and  C_13
REMARK    5  A    between atoms: C_13  and  N_14
REMARK    6  A    between atoms: C_17  and  C_24
REMARK    7  A    between atoms: C_19  and  N_21
REMARK    8  A    between atoms: N_21  and  C_22
REMARK    9  A    between atoms: N_21  and  C_23
REMARK                            x       y       z     vdW  Elec       q    Type
REMARK                         _______ _______ _______ _____ _____    ______ ____
ROOT
ATOM      1  C   UNL     1       0.420  -6.929   2.382  0.00  0.00    +0.124 C 
ENDROOT
BRANCH   1   5
ATOM      2  N   UNL     1       0.058  -4.170  -0.021  0.00  0.00    -0.269 N 
ATOM      3  C   UNL     1       0.174  -4.849   1.138  0.00  0.00    +0.304 C 
ATOM      4  O   UNL     1       0.172  -4.250   2.196  0.00  0.00    -0.253 OA
ATOM      5  N   UNL     1       0.294  -6.191   1.123  0.00  0.00    -0.298 N 
ATOM      6  H   UNL     1      -0.018  -4.651  -0.860  0.00  0.00    +0.156 HD
ATOM      7  H   UNL     1       0.296  -6.669   0.279  0.00  0.00    +0.150 HD
BRANCH   2  12
ATOM      8  C   UNL     1       0.011   1.503   0.007  0.00  0.00    +0.044 C 
ATOM      9  C   UNL     1       0.024  -0.004  -0.000  0.00  0.00    -0.050 A 
ATOM     10  C   UNL     1       0.778  -0.692   0.931  0.00  0.00    +0.005 A 
ATOM     11  C   UNL     1       0.792  -2.073   0.927  0.00  0.00    +0.023 A 
ATOM     12  C   UNL     1       0.046  -2.771  -0.014  0.00  0.00    +0.035 A 
ATOM     13  C   UNL     1      -0.711  -2.076  -0.948  0.00  0.00    +0.023 A 
ATOM     14  C   UNL     1      -0.725  -0.695  -0.935  0.00  0.00    +0.005 A 
ENDBRANCH   2  12
ENDBRANCH   1   5
BRANCH   1  15
ATOM     15  C   UNL     1       0.540  -8.425   2.087  0.00  0.00    +0.123 C 
BRANCH  15  16
ATOM     16  N   UNL     1       0.666  -9.163   3.346  0.00  0.00    -0.313 N 
ATOM     17  C   UNL     1       0.789 -10.542   3.331  0.00  0.00    +0.195 A 
ATOM     18  N   UNL     1       0.795 -11.177   2.169  0.00  0.00    -0.332 N 
ATOM     19  C   UNL     1       0.911 -12.496   2.114  0.00  0.00    +0.019 A 
ATOM     20  C   UNL     1       1.027 -13.213   3.288  0.00  0.00    +0.064 A 
ATOM     21  C   UNL     1       1.017 -12.517   4.498  0.00  0.00    +0.126 A 
ATOM     22  N   UNL     1       0.902 -11.192   4.479  0.00  0.00    -0.201 NA
ATOM     23  C   UNL     1       0.916 -13.205   0.784  0.00  0.00    +0.063 C 
ATOM     24  H   UNL     1       0.664  -8.686   4.190  0.00  0.00    +0.149 HD
ATOM     25  H   UNL     1       0.714 -10.670   1.346  0.00  0.00    +0.168 HD
BRANCH  21  26
ATOM     26  N   UNL     1       1.130 -13.195   5.701  0.00  0.00    -0.321 N 
ATOM     27  C   UNL     1       1.371 -14.640   5.707  0.00  0.00    +0.130 C 
ATOM     28  C   UNL     1       1.009 -12.467   6.967  0.00  0.00    +0.130 C 
ENDBRANCH  21  26
ENDBRANCH  15  16
ENDBRANCH   1  15
TORSDOF 5
