REMARK  Name = ZINC57143678
REMARK  9 active torsions:
REMARK  status: ('A' for Active; 'I' for Inactive)
REMARK    1  A    between atoms: C_1  and  C_2
REMARK    2  A    between atoms: C_6  and  C_25
REMARK    3  A    between atoms: C_8  and  N_11
REMARK    4  A    between atoms: C_12  and  C_14
REMARK    5  A    between atoms: C_14  and  N_15
REMARK    6  A    between atoms: N_18  and  C_19
REMARK    7  A    between atoms: C_19  and  C_20
REMARK    8  A    between atoms: C_25  and  C_26
REMARK    9  A    between atoms: C_25  and  C_27
REMARK                            x       y       z     vdW  Elec       q    Type
REMARK                         _______ _______ _______ _____ _____    ______ ____
ROOT
ATOM      1  N   UNL     1      -0.612  -2.548   1.244  0.00  0.00    -0.311 N 
ATOM      2  C   UNL     1      -1.268  -2.692   2.412  0.00  0.00    +0.230 C 
ATOM      3  O   UNL     1      -0.721  -2.402   3.455  0.00  0.00    -0.274 OA
ATOM      4  H   UNL     1      -1.049  -2.780   0.410  0.00  0.00    +0.149 HD
ENDROOT
BRANCH   1  10
ATOM      5  C   UNL     1      -0.019   1.526   0.010  0.00  0.00    +0.007 C 
ATOM      6  C   UNL     1       0.002  -0.004   0.002  0.00  0.00    -0.012 C 
ATOM      7  C   UNL     1       0.718  -0.497  -1.257  0.00  0.00    +0.004 C 
ATOM      8  C   UNL     1       0.739  -2.027  -1.265  0.00  0.00    +0.006 C 
ATOM      9  C   UNL     1       1.479  -2.534  -0.026  0.00  0.00    +0.012 C 
ATOM     10  C   UNL     1       0.763  -2.041   1.233  0.00  0.00    +0.077 C 
ATOM     11  C   UNL     1       0.742  -0.511   1.242  0.00  0.00    +0.025 C 
BRANCH   9  12
ATOM     12  C   UNL     1       1.500  -4.064  -0.034  0.00  0.00    -0.012 C 
ATOM     13  C   UNL     1       2.216  -4.557  -1.293  0.00  0.00    +0.007 C 
ATOM     14  C   UNL     1       2.240  -4.571   1.205  0.00  0.00    +0.007 C 
ENDBRANCH   9  12
ENDBRANCH   1  10
BRANCH   2  15
ATOM     15  C   UNL     1      -2.682  -3.213   2.422  0.00  0.00    +0.201 C 
BRANCH  15  16
ATOM     16  N   UNL     1      -3.168  -3.277   3.803  0.00  0.00    -0.291 N 
ATOM     17  C   UNL     1      -4.417  -3.717   4.058  0.00  0.00    +0.300 C 
ATOM     18  O   UNL     1      -5.139  -4.061   3.142  0.00  0.00    -0.253 OA
ATOM     19  N   UNL     1      -4.864  -3.775   5.328  0.00  0.00    -0.292 N 
ATOM     20  H   UNL     1      -2.592  -3.002   4.533  0.00  0.00    +0.151 HD
ATOM     21  H   UNL     1      -4.288  -3.501   6.058  0.00  0.00    +0.151 HD
BRANCH  19  22
ATOM     22  C   UNL     1      -6.221  -4.253   5.605  0.00  0.00    +0.180 C 
BRANCH  22  23
ATOM     23  C   UNL     1      -6.472  -4.221   7.090  0.00  0.00    +0.122 A 
ATOM     24  C   UNL     1      -6.984  -3.185   7.779  0.00  0.00    +0.046 A 
ATOM     25  C   UNL     1      -7.046  -3.585   9.134  0.00  0.00    +0.041 A 
ATOM     26  C   UNL     1      -6.567  -4.840   9.192  0.00  0.00    +0.195 A 
ATOM     27  O   UNL     1      -6.226  -5.222   7.951  0.00  0.00    -0.466 OA
ENDBRANCH  22  23
ENDBRANCH  19  22
ENDBRANCH  15  16
ENDBRANCH   2  15
TORSDOF 6
