REMARK  Name = ZINC07375573
REMARK  8 active torsions:
REMARK  status: ('A' for Active; 'I' for Inactive)
REMARK    1  A    between atoms: C_1  and  C_2
REMARK    2  A    between atoms: C_3  and  C_23
REMARK    3  A    between atoms: C_4  and  C_22
REMARK    4  A    between atoms: C_5  and  S_10
REMARK    5  A    between atoms: C_6  and  C_9
REMARK    6  A    between atoms: C_7  and  C_8
REMARK    7  A    between atoms: S_10  and  N_13
REMARK    8  A    between atoms: C_16  and  C_19
REMARK                            x       y       z     vdW  Elec       q    Type
REMARK                         _______ _______ _______ _____ _____    ______ ____
ROOT
ATOM      1  S   UNL     1       2.545   4.358  -1.007  0.00  0.00    +0.061 S 
ATOM      2  O   UNL     1       3.293   3.401  -1.745  0.00  0.00    -0.153 OA
ATOM      3  O   UNL     1       2.114   5.588  -1.573  0.00  0.00    -0.153 OA
ENDROOT
BRANCH   1   8
ATOM      4  C   UNL     1      -2.413   1.530   0.949  0.00  0.00    +0.044 C 
ATOM      5  C   UNL     1      -1.174   2.237   0.463  0.00  0.00    -0.044 A 
ATOM      6  C   UNL     1      -0.036   1.511   0.167  0.00  0.00    -0.043 A 
ATOM      7  C   UNL     1       1.099   2.158  -0.284  0.00  0.00    -0.021 A 
ATOM      8  C   UNL     1       1.098   3.533  -0.433  0.00  0.00    +0.112 A 
ATOM      9  C   UNL     1      -0.038   4.259  -0.132  0.00  0.00    -0.021 A 
ATOM     10  C   UNL     1      -1.174   3.612   0.319  0.00  0.00    -0.043 A 
ATOM     11  C   UNL     1      -2.413   4.404   0.648  0.00  0.00    +0.044 C 
ATOM     12  C   UNL     1      -0.040   5.758  -0.294  0.00  0.00    +0.046 C 
ATOM     13  C   UNL     1       2.338   1.366  -0.613  0.00  0.00    +0.046 C 
ATOM     14  C   UNL     1      -0.034   0.013   0.329  0.00  0.00    +0.044 C 
ENDBRANCH   1   8
BRANCH   1  15
ATOM     15  N   UNL     1       3.451   4.741   0.325  0.00  0.00    -0.177 NA
ATOM     16  C   UNL     1       3.267   6.027   1.011  0.00  0.00    +0.110 C 
ATOM     17  C   UNL     1       4.618   6.731   1.121  0.00  0.00    +0.030 C 
ATOM     18  C   UNL     1       5.623   5.796   1.798  0.00  0.00    +0.077 C 
ATOM     19  C   UNL     1       5.801   4.535   0.949  0.00  0.00    +0.030 C 
ATOM     20  C   UNL     1       4.459   3.804   0.839  0.00  0.00    +0.110 C 
BRANCH  18  21
ATOM     21  C   UNL     1       6.949   6.500   1.936  0.00  0.00    +0.214 C 
ATOM     22  O   UNL     1       7.938   6.038   1.407  0.00  0.00    -0.276 OA
ATOM     23  N   UNL     1       7.035   7.641   2.646  0.00  0.00    -0.329 N 
ATOM     24  H   UNL     1       6.244   8.010   3.069  0.00  0.00    +0.145 HD
ATOM     25  H   UNL     1       7.888   8.094   2.735  0.00  0.00    +0.145 HD
ENDBRANCH  18  21
ENDBRANCH   1  15
TORSDOF 3
