REMARK  Name = ZINC46680485
REMARK  5 active torsions:
REMARK  status: ('A' for Active; 'I' for Inactive)
REMARK    1  A    between atoms: C_1  and  C_2
REMARK    2  A    between atoms: C_3  and  S_22
REMARK    3  A    between atoms: C_8  and  C_10
REMARK    4  A    between atoms: S_22  and  C_23
REMARK    5  A    between atoms: C_23  and  C_24
REMARK                            x       y       z     vdW  Elec       q    Type
REMARK                         _______ _______ _______ _____ _____    ______ ____
ROOT
ATOM      1  C   UNL     1       0.028   1.502   0.005  0.00  0.00    +0.067 C 
ATOM      2  C   UNL     1       0.035  -0.005  -0.002  0.00  0.00    +0.061 A 
ATOM      3  C   UNL     1       0.028  -0.685  -1.183  0.00  0.00    +0.070 A 
ATOM      4  S   UNL     1       0.041  -2.373  -0.591  0.00  0.00    -0.045 S 
ATOM      5  C   UNL     1       0.053  -1.995   1.156  0.00  0.00    +0.166 A 
ATOM      6  N   UNL     1       0.052  -0.675   1.136  0.00  0.00    -0.229 NA
ATOM      7  N   UNL     1       0.066  -2.860   2.245  0.00  0.00    -0.260 N 
ATOM      8  C   UNL     1       0.071  -4.193   2.046  0.00  0.00    +0.255 C 
ATOM      9  O   UNL     1      -0.032  -4.641   0.920  0.00  0.00    -0.270 OA
ATOM     10  H   UNL     1       0.072  -2.504   3.147  0.00  0.00    +0.157 HD
ENDROOT
BRANCH   8  11
ATOM     11  C   UNL     1       0.200  -5.107   3.193  0.00  0.00    +0.102 A 
ATOM     12  C   UNL     1       0.323  -6.470   2.991  0.00  0.00    +0.028 A 
ATOM     13  C   UNL     1       0.446  -7.324   4.113  0.00  0.00    -0.001 A 
ATOM     14  C   UNL     1       0.573  -8.711   3.937  0.00  0.00    +0.010 A 
ATOM     15  C   UNL     1       0.692  -9.526   5.025  0.00  0.00    +0.001 A 
ATOM     16  C   UNL     1       0.689  -8.995   6.309  0.00  0.00    +0.002 A 
ATOM     17  C   UNL     1       0.565  -7.637   6.507  0.00  0.00    +0.026 A 
ATOM     18  C   UNL     1       0.443  -6.784   5.414  0.00  0.00    +0.049 A 
ATOM     19  N   UNL     1       0.321  -5.424   5.608  0.00  0.00    -0.321 N 
ATOM     20  H   UNL     1       0.321  -5.068   6.511  0.00  0.00    +0.169 HD
ATOM     21  C   UNL     1       0.207  -4.583   4.563  0.00  0.00    +0.261 A 
ATOM     22  O   UNL     1       0.105  -3.385   4.756  0.00  0.00    -0.267 OA
ENDBRANCH   8  11
BRANCH   3  23
ATOM     23  S   UNL     1       0.012  -0.072  -2.834  0.00  0.00    -0.107 S 
BRANCH  23  24
ATOM     24  C   UNL     1       0.010  -1.569  -3.858  0.00  0.00    +0.170 C 
BRANCH  24  25
ATOM     25  C   UNL     1      -0.004  -1.181  -5.315  0.00  0.00    +0.221 C 
ATOM     26  O   UNL     1      -0.012  -0.010  -5.630  0.00  0.00    -0.275 OA
ATOM     27  N   UNL     1      -0.007  -2.136  -6.266  0.00  0.00    -0.329 N 
ATOM     28  H   UNL     1      -0.001  -3.072  -6.014  0.00  0.00    +0.145 HD
ATOM     29  H   UNL     1      -0.016  -1.886  -7.203  0.00  0.00    +0.145 HD
ENDBRANCH  24  25
ENDBRANCH  23  24
ENDBRANCH   3  23
TORSDOF 4
