REMARK  Name = ZINC48120667
REMARK  10 active torsions:
REMARK  status: ('A' for Active; 'I' for Inactive)
REMARK    1  A    between atoms: C_1  and  C_2
REMARK    2  A    between atoms: C_2  and  C_3
REMARK    3  A    between atoms: C_3  and  C_5
REMARK    4  A    between atoms: C_3  and  N_6
REMARK    5  A    between atoms: N_9  and  C_10
REMARK    6  A    between atoms: C_13  and  O_17
REMARK    7  A    between atoms: C_15  and  C_16
REMARK    8  A    between atoms: O_17  and  C_18
REMARK    9  A    between atoms: C_18  and  C_19
REMARK   10  A    between atoms: C_18  and  C_20
REMARK                            x       y       z     vdW  Elec       q    Type
REMARK                         _______ _______ _______ _____ _____    ______ ____
ROOT
ATOM      1  C   UNL     1      -5.468   0.349  -2.416  0.00  0.00    +0.038 A 
ATOM      2  C   UNL     1      -6.172   0.104  -1.245  0.00  0.00    +0.027 A 
ATOM      3  C   UNL     1      -7.553   0.107  -1.256  0.00  0.00    +0.047 A 
ATOM      4  C   UNL     1      -8.237   0.355  -2.438  0.00  0.00    +0.121 A 
ATOM      5  C   UNL     1      -7.534   0.600  -3.608  0.00  0.00    +0.050 A 
ATOM      6  C   UNL     1      -6.153   0.603  -3.597  0.00  0.00    -0.026 A 
ATOM      7  C   UNL     1      -5.389   0.875  -4.867  0.00  0.00    +0.046 C 
ENDROOT
BRANCH   1  11
ATOM      8  N   UNL     1      -2.059   0.492  -1.222  0.00  0.00    -0.297 N 
ATOM      9  C   UNL     1      -3.401   0.608  -1.262  0.00  0.00    +0.304 C 
ATOM     10  O   UNL     1      -4.012   0.947  -0.267  0.00  0.00    -0.253 OA
ATOM     11  N   UNL     1      -4.066   0.347  -2.405  0.00  0.00    -0.269 N 
ATOM     12  H   UNL     1      -1.572   0.221  -2.016  0.00  0.00    +0.151 HD
ATOM     13  H   UNL     1      -3.575   0.158  -3.220  0.00  0.00    +0.156 HD
BRANCH   8  14
ATOM     14  C   UNL     1      -1.336   0.775   0.020  0.00  0.00    +0.071 C 
ATOM     15  C   UNL     1      -1.323  -0.477   0.899  0.00  0.00    +0.028 C 
BRANCH  14  17
ATOM     16  C   UNL     1       0.094   2.502  -1.082  0.00  0.00    +0.005 C 
ATOM     17  C   UNL     1       0.102   1.183  -0.308  0.00  0.00    +0.019 C 
ENDBRANCH  14  17
ENDBRANCH   8  14
ENDBRANCH   1  11
BRANCH   4  18
ATOM     18  O   UNL     1      -9.596   0.357  -2.449  0.00  0.00    -0.489 OA
BRANCH  18  19
ATOM     19  C   UNL     1     -10.255   0.201  -1.190  0.00  0.00    +0.167 C 
ATOM     20  C   UNL     1     -10.370   1.563  -0.503  0.00  0.00    +0.051 C 
ATOM     21  C   UNL     1     -11.654  -0.376  -1.415  0.00  0.00    +0.051 C 
ENDBRANCH  18  19
ENDBRANCH   4  18
TORSDOF 5
