REMARK  Name = ZINC40791695
REMARK  8 active torsions:
REMARK  status: ('A' for Active; 'I' for Inactive)
REMARK    1  A    between atoms: CD1_1  and  CG_2
REMARK    2  A    between atoms: CG_2  and  CD2_3
REMARK    3  A    between atoms: CG_2  and  CB_4
REMARK    4  A    between atoms: CB_4  and  CA_5
REMARK    5  A    between atoms: CA_5  and  C_7
REMARK    6  A    between atoms: CA_5  and  N_9
REMARK    7  A    between atoms: C_7  and  O_8
REMARK    8  A    between atoms: C_10  and  CA_12
REMARK                            x       y       z     vdW  Elec       q    Type
REMARK                         _______ _______ _______ _____ _____    ______ ____
ROOT
ATOM      1  N   UNL     1       2.854  -0.750  -0.092  0.00  0.00    -0.305 N 
ATOM      2  C   UNL     1       3.949  -0.202   0.471  0.00  0.00    +0.263 C 
ATOM      3  O   UNL     1       4.384   0.852   0.053  0.00  0.00    -0.269 OA
ATOM      4  H   UNL     1       2.507  -1.592   0.242  0.00  0.00    +0.149 HD
ENDROOT
BRANCH   2   5
ATOM      5  CA  UNL     1       4.625  -0.888   1.602  0.00  0.00    +0.136 A 
ATOM      6  C   UNL     1       5.744  -0.327   2.185  0.00  0.00    +0.103 A 
ATOM      7  C   UNL     1       6.361  -1.008   3.258  0.00  0.00    +0.255 A 
ATOM      8  O   UNL     1       7.351  -0.546   3.800  0.00  0.00    -0.268 OA
ATOM      9  N   UNL     1       5.833  -2.179   3.672  0.00  0.00    -0.274 N 
ATOM     10  H   UNL     1       6.241  -2.661   4.408  0.00  0.00    +0.173 HD
ATOM     11  C   UNL     1       4.729  -2.682   3.060  0.00  0.00    +0.349 A 
ATOM     12  O   UNL     1       4.216  -3.854   3.488  0.00  0.00    -0.245 OA
ATOM     13  N   UNL     1       4.148  -2.052   2.065  0.00  0.00    -0.188 NA
ENDBRANCH   2   5
BRANCH   1  14
ATOM     14  CA  UNL     1       2.187  -0.073  -1.207  0.00  0.00    +0.099 C 
BRANCH  14  15
ATOM     15  CB  UNL     1       0.718  -0.497  -1.257  0.00  0.00    +0.027 C 
BRANCH  15  17
ATOM     16  CD1 UNL     1      -0.019   1.526   0.010  0.00  0.00    +0.007 C 
ATOM     17  CG  UNL     1       0.002  -0.004   0.002  0.00  0.00    -0.015 C 
ATOM     18  CD2 UNL     1      -1.433  -0.534   0.013  0.00  0.00    +0.007 C 
ENDBRANCH  15  17
ENDBRANCH  14  15
BRANCH  14  19
ATOM     19  C   UNL     1       2.874  -0.457  -2.520  0.00  0.00    +0.178 C 
BRANCH  19  20
ATOM     20  O   UNL     1       2.692  -1.853  -2.762  0.00  0.00    -0.393 OA
ATOM     21  H   UNL     1       3.102  -2.167  -3.579  0.00  0.00    +0.209 HD
ENDBRANCH  19  20
ENDBRANCH  14  19
ENDBRANCH   1  14
TORSDOF 6
