REMARK  Name = ZINC22978071
REMARK  9 active torsions:
REMARK  status: ('A' for Active; 'I' for Inactive)
REMARK    1  A    between atoms: C_1  and  C_2
REMARK    2  A    between atoms: C_3  and  C_15
REMARK    3  A    between atoms: C_4  and  S_13
REMARK    4  A    between atoms: C_6  and  C_8
REMARK    5  A    between atoms: S_13  and  C_14
REMARK    6  A    between atoms: C_15  and  O_17
REMARK    7  A    between atoms: O_17  and  C_18
REMARK    8  A    between atoms: C_18  and  C_19
REMARK    9  A    between atoms: N_21  and  C_22
REMARK                            x       y       z     vdW  Elec       q    Type
REMARK                         _______ _______ _______ _____ _____    ______ ____
ROOT
ATOM      1  C   UNL     1       7.869  -2.023  -1.562  0.00  0.00    +0.344 C 
ATOM      2  O   UNL     1       8.076  -1.728  -2.723  0.00  0.00    -0.245 OA
ENDROOT
BRANCH   1   5
ATOM      3  C   UNL     1      10.425  -1.580  -0.225  0.00  0.00    +0.066 C 
ATOM      4  C   UNL     1       9.815  -2.955  -0.306  0.00  0.00    +0.057 A 
ATOM      5  C   UNL     1       8.588  -3.150  -0.951  0.00  0.00    +0.112 A 
ATOM      6  C   UNL     1       8.056  -4.460  -0.994  0.00  0.00    +0.115 A 
ATOM      7  N   UNL     1       8.742  -5.448  -0.433  0.00  0.00    -0.218 NA
ATOM      8  C   UNL     1       9.903  -5.213   0.167  0.00  0.00    +0.197 A 
ATOM      9  N   UNL     1      10.430  -3.992   0.230  0.00  0.00    -0.229 NA
BRANCH   8  10
ATOM     10  C   UNL     1      10.630  -6.337   0.782  0.00  0.00    +0.172 A 
ATOM     11  C   UNL     1      10.224  -7.638   0.800  0.00  0.00    +0.053 A 
ATOM     12  C   UNL     1      11.216  -8.361   1.486  0.00  0.00    +0.042 A 
ATOM     13  C   UNL     1      12.170  -7.479   1.850  0.00  0.00    +0.196 A 
ATOM     14  O   UNL     1      11.815  -6.260   1.419  0.00  0.00    -0.460 OA
ENDBRANCH   8  10
BRANCH   6  15
ATOM     15  S   UNL     1       6.512  -4.775  -1.784  0.00  0.00    -0.108 S 
ATOM     16  C   UNL     1       6.380  -6.560  -1.515  0.00  0.00    +0.091 C 
ENDBRANCH   6  15
ENDBRANCH   1   5
BRANCH   1  17
ATOM     17  O   UNL     1       6.980  -1.317  -0.836  0.00  0.00    -0.452 OA
BRANCH  17  18
ATOM     18  C   UNL     1       6.307  -0.217  -1.504  0.00  0.00    +0.328 C 
BRANCH  18  19
ATOM     19  C   UNL     1       5.358   0.450  -0.542  0.00  0.00    +0.251 C 
ATOM     20  O   UNL     1       5.258   0.039   0.595  0.00  0.00    -0.272 OA
ATOM     21  N   UNL     1       4.620   1.503  -0.945  0.00  0.00    -0.305 N 
ATOM     22  H   UNL     1       4.710   1.876  -1.976  0.00  0.00    +0.149 HD
BRANCH  21  23
ATOM     23  C   UNL     1       3.698   2.152  -0.010  0.00  0.00    +0.110 C 
ATOM     24  C   UNL     1       3.474   3.604  -0.440  0.00  0.00    +0.068 C 
ATOM     25  C   UNL     1       2.296   4.169   0.363  0.00  0.00    +0.231 C 
ATOM     26  O   UNL     1       1.117   3.449  -0.001  0.00  0.00    -0.492 OA
ATOM     27  C   UNL     1       1.176   2.092   0.002  0.00  0.00    +0.125 A 
ATOM     28  C   UNL     1       2.383   1.415  -0.010  0.00  0.00    +0.014 A 
ATOM     29  C   UNL     1       2.395   0.030  -0.018  0.00  0.00    +0.009 A 
ATOM     30  C   UNL     1       1.209  -0.678  -0.013  0.00  0.00    +0.001 A 
ATOM     31  C   UNL     1       0.002  -0.004   0.002  0.00  0.00    +0.004 A 
ATOM     32  C   UNL     1      -0.017   1.376   0.010  0.00  0.00    +0.046 A 
ENDBRANCH  21  23
ENDBRANCH  18  19
ENDBRANCH  17  18
ENDBRANCH   1  17
TORSDOF 7
