REMARK  Name = ZINC67142867
REMARK  12 active torsions:
REMARK  status: ('A' for Active; 'I' for Inactive)
REMARK    1  A    between atoms: C_1  and  C_2
REMARK    2  A    between atoms: C_2  and  C_3
REMARK    3  A    between atoms: C_2  and  C_4
REMARK    4  A    between atoms: C_2  and  O_5
REMARK    5  A    between atoms: O_5  and  C_6
REMARK    6  A    between atoms: N_8  and  C_9
REMARK    7  A    between atoms: C_9  and  C_10
REMARK    8  A    between atoms: C_9  and  C_11
REMARK    9  A    between atoms: C_9  and  C_12
REMARK   10  A    between atoms: N_14  and  C_15
REMARK   11  A    between atoms: C_18  and  N_21
REMARK   12  A    between atoms: N_24  and  C_25
REMARK                            x       y       z     vdW  Elec       q    Type
REMARK                         _______ _______ _______ _____ _____    ______ ____
ROOT
ATOM      1  C   UNL     1       4.574  -0.614  -3.906  0.00  0.00    +0.240 C 
ATOM      2  O   UNL     1       5.357   0.020  -4.582  0.00  0.00    -0.273 OA
ATOM      3  N   UNL     1       4.176  -1.837  -4.306  0.00  0.00    -0.284 N 
ATOM      4  H   UNL     1       3.603  -2.372  -3.735  0.00  0.00    +0.155 HD
ENDROOT
BRANCH   3   5
ATOM      5  C   UNL     1       4.589  -2.337  -5.548  0.00  0.00    +0.034 A 
ATOM      6  C   UNL     1       3.731  -3.131  -6.298  0.00  0.00    +0.025 A 
ATOM      7  C   UNL     1       4.138  -3.623  -7.522  0.00  0.00    +0.025 A 
ATOM      8  C   UNL     1       5.406  -3.326  -8.002  0.00  0.00    +0.035 A 
ATOM      9  C   UNL     1       6.265  -2.533  -7.252  0.00  0.00    +0.025 A 
ATOM     10  C   UNL     1       5.855  -2.035  -6.032  0.00  0.00    +0.025 A 
BRANCH   8  11
ATOM     11  N   UNL     1       5.820  -3.826  -9.244  0.00  0.00    -0.269 N 
ATOM     12  C   UNL     1       7.106  -4.182  -9.432  0.00  0.00    +0.304 C 
ATOM     13  O   UNL     1       7.925  -3.991  -8.554  0.00  0.00    -0.253 OA
ATOM     14  N   UNL     1       7.485  -4.750 -10.595  0.00  0.00    -0.302 N 
ATOM     15  C   UNL     1       8.883  -5.136 -10.800  0.00  0.00    +0.129 C 
ATOM     16  H   UNL     1       5.181  -3.917  -9.968  0.00  0.00    +0.156 HD
ATOM     17  H   UNL     1       6.832  -4.902 -11.296  0.00  0.00    +0.150 HD
ENDBRANCH   8  11
ENDBRANCH   3   5
BRANCH   1  18
ATOM     18  C   UNL     1       4.046  -0.033  -2.620  0.00  0.00    +0.108 C 
ATOM     19  C   UNL     1       4.112   1.495  -2.685  0.00  0.00    +0.041 C 
ATOM     20  C   UNL     1       4.895  -0.531  -1.449  0.00  0.00    +0.041 C 
BRANCH  18  23
ATOM     21  C   UNL     1       1.974  -0.051  -1.337  0.00  0.00    +0.402 C 
ATOM     22  O   UNL     1       2.513   0.661  -0.513  0.00  0.00    -0.226 OA
ATOM     23  N   UNL     1       2.656  -0.453  -2.429  0.00  0.00    -0.268 N 
ATOM     24  H   UNL     1       2.226  -1.021  -3.087  0.00  0.00    +0.153 HD
BRANCH  21  25
ATOM     25  O   UNL     1       0.697  -0.437  -1.161  0.00  0.00    -0.445 OA
BRANCH  25  27
ATOM     26  C   UNL     1       0.005   1.556   0.017  0.00  0.00    +0.055 C 
ATOM     27  C   UNL     1       0.035   0.026   0.017  0.00  0.00    +0.107 C 
ATOM     28  C   UNL     1       0.788  -0.469   1.253  0.00  0.00    +0.055 C 
ATOM     29  C   UNL     1      -1.397  -0.511   0.043  0.00  0.00    +0.055 C 
ENDBRANCH  25  27
ENDBRANCH  21  25
ENDBRANCH  18  23
ENDBRANCH   1  18
TORSDOF 6
