REMARK  Name = ZINC45136702
REMARK  6 active torsions:
REMARK  status: ('A' for Active; 'I' for Inactive)
REMARK    1  A    between atoms: C_1  and  C_2
REMARK    2  A    between atoms: C_2  and  C_19
REMARK    3  A    between atoms: C_4  and  N_6
REMARK    4  A    between atoms: C_7  and  C_11
REMARK    5  A    between atoms: C_13  and  N_18
REMARK    6  A    between atoms: C_15  and  N_17
REMARK                            x       y       z     vdW  Elec       q    Type
REMARK                         _______ _______ _______ _____ _____    ______ ____
ROOT
ATOM      1  C   UNL     1       3.668  -0.762   2.150  0.00  0.00    +0.024 A 
ATOM      2  C   UNL     1       3.559  -1.377   0.904  0.00  0.00    +0.034 A 
ATOM      3  C   UNL     1       4.577  -2.204   0.449  0.00  0.00    +0.027 A 
ATOM      4  C   UNL     1       5.702  -2.418   1.233  0.00  0.00    +0.045 A 
ATOM      5  C   UNL     1       5.813  -1.807   2.475  0.00  0.00    +0.027 A 
ATOM      6  C   UNL     1       4.802  -0.975   2.933  0.00  0.00    +0.034 A 
ENDROOT
BRANCH   1   8
ATOM      7  N   UNL     1       1.309   0.161   2.179  0.00  0.00    -0.221 N 
ATOM      8  C   UNL     1       2.584   0.120   2.639  0.00  0.00    +0.182 A 
ATOM      9  N   UNL     1       2.676   1.013   3.602  0.00  0.00    -0.108 NA
ATOM     10  N   UNL     1       1.550   1.606   3.775  0.00  0.00    -0.023 NA
ATOM     11  N   UNL     1       0.672   1.151   2.947  0.00  0.00    -0.043 NA
BRANCH   7  15
ATOM     12  C   UNL     1       0.596   1.575  -0.267  0.00  0.00    +0.013 C 
ATOM     13  C   UNL     1       0.339   0.068  -0.189  0.00  0.00    -0.010 C 
ATOM     14  C   UNL     1      -0.751  -0.413   0.771  0.00  0.00    +0.036 C 
ATOM     15  C   UNL     1       0.723  -0.648   1.108  0.00  0.00    +0.117 C 
ATOM     16  C   UNL     1       0.517  -0.700  -1.500  0.00  0.00    +0.013 C 
ENDBRANCH   7  15
ENDBRANCH   1   8
BRANCH   5  17
ATOM     17  N   UNL     1       6.946  -2.026   3.262  0.00  0.00    -0.358 N 
ATOM     18  H   UNL     1       7.655  -2.604   2.940  0.00  0.00    +0.142 HD
ATOM     19  H   UNL     1       7.024  -1.600   4.130  0.00  0.00    +0.142 HD
ENDBRANCH   5  17
BRANCH   3  20
ATOM     20  N   UNL     1       4.468  -2.821  -0.800  0.00  0.00    -0.358 N 
ATOM     21  H   UNL     1       3.682  -2.671  -1.348  0.00  0.00    +0.142 HD
ATOM     22  H   UNL     1       5.179  -3.398  -1.118  0.00  0.00    +0.142 HD
ENDBRANCH   3  20
TORSDOF 4
