REMARK  Name = ZINC10756480
REMARK  9 active torsions:
REMARK  status: ('A' for Active; 'I' for Inactive)
REMARK    1  A    between atoms: C_1  and  C_2
REMARK    2  A    between atoms: C_5  and  N_9
REMARK    3  A    between atoms: C_6  and  C_8
REMARK    4  A    between atoms: C_10  and  C_12
REMARK    5  A    between atoms: C_12  and  C_14
REMARK    6  A    between atoms: C_12  and  O_15
REMARK    7  A    between atoms: O_15  and  C_16
REMARK    8  A    between atoms: C_16  and  C_18
REMARK    9  A    between atoms: C_25  and  C_27
REMARK                            x       y       z     vdW  Elec       q    Type
REMARK                         _______ _______ _______ _____ _____    ______ ____
ROOT
ATOM      1  C   UNL     1       1.356  -0.373   0.298  0.00  0.00    +0.259 C 
ATOM      2  C   UNL     1       1.434   1.152   0.204  0.00  0.00    +0.062 C 
ENDROOT
BRANCH   1   4
ATOM      3  N   UNL     1      -0.745  -0.608  -0.987  0.00  0.00    -0.282 N 
ATOM      4  C   UNL     1      -0.080  -0.812   0.168  0.00  0.00    +0.258 C 
ATOM      5  O   UNL     1      -0.637  -1.349   1.102  0.00  0.00    -0.271 OA
ATOM      6  H   UNL     1      -0.281  -0.240  -1.755  0.00  0.00    +0.155 HD
BRANCH   3  11
ATOM      7  C   UNL     1      -6.257  -1.901  -1.351  0.00  0.00    +0.044 C 
ATOM      8  C   UNL     1      -4.793  -1.558  -1.254  0.00  0.00    -0.050 A 
ATOM      9  C   UNL     1      -3.952  -2.334  -0.477  0.00  0.00    +0.005 A 
ATOM     10  C   UNL     1      -2.610  -2.022  -0.387  0.00  0.00    +0.024 A 
ATOM     11  C   UNL     1      -2.104  -0.927  -1.076  0.00  0.00    +0.036 A 
ATOM     12  C   UNL     1      -2.953  -0.147  -1.851  0.00  0.00    -0.029 A 
ATOM     13  C   UNL     1      -4.293  -0.467  -1.942  0.00  0.00    +0.008 A 
ATOM     14  C   UNL     1      -2.410   1.046  -2.596  0.00  0.00    +0.045 C 
ENDBRANCH   3  11
ENDBRANCH   1   4
BRANCH   1  15
ATOM     15  O   UNL     1       1.880  -0.807   1.581  0.00  0.00    -0.452 OA
BRANCH  15  16
ATOM     16  C   UNL     1       3.194  -1.074   1.643  0.00  0.00    +0.312 C 
ATOM     17  O   UNL     1       3.883  -0.950   0.659  0.00  0.00    -0.250 OA
BRANCH  16  18
ATOM     18  C   UNL     1       3.810  -1.528   2.942  0.00  0.00    +0.115 C 
ATOM     19  C   UNL     1       5.309  -1.762   2.742  0.00  0.00    +0.018 C 
ATOM     20  C   UNL     1       5.929  -2.256   4.051  0.00  0.00    +0.020 C 
ATOM     21  C   UNL     1       5.746  -1.186   5.133  0.00  0.00    +0.108 C 
ATOM     22  N   UNL     1       4.319  -0.850   5.230  0.00  0.00    -0.301 N 
ATOM     23  C   UNL     1       3.603  -0.450   4.010  0.00  0.00    +0.122 C 
ATOM     24  C   UNL     1       3.679  -0.907   6.414  0.00  0.00    +0.212 C 
ATOM     25  O   UNL     1       4.254  -1.333   7.394  0.00  0.00    -0.276 OA
ATOM     26  C   UNL     1       2.250  -0.442   6.522  0.00  0.00    +0.109 C 
ENDBRANCH  16  18
ENDBRANCH  15  16
ENDBRANCH   1  15
TORSDOF 5
