REMARK  Name = ZINC09293098
REMARK  11 active torsions:
REMARK  status: ('A' for Active; 'I' for Inactive)
REMARK    1  A    between atoms: C_1  and  C_2
REMARK    2  A    between atoms: C_2  and  O_3
REMARK    3  A    between atoms: O_3  and  C_4
REMARK    4  A    between atoms: C_6  and  C_11
REMARK    5  A    between atoms: C_9  and  O_10
REMARK    6  A    between atoms: C_14  and  C_25
REMARK    7  A    between atoms: N_21  and  C_22
REMARK    8  A    between atoms: C_22  and  C_23
REMARK    9  A    between atoms: C_23  and  O_24
REMARK   10  A    between atoms: C_28  and  C_32
REMARK   11  A    between atoms: C_30  and  O_31
REMARK                            x       y       z     vdW  Elec       q    Type
REMARK                         _______ _______ _______ _____ _____    ______ ____
ROOT
ATOM      1  C   UNL     1      -0.217  -4.963  -0.535  0.00  0.00    +0.141 C 
ATOM      2  C   UNL     1       0.864  -5.467  -1.452  0.00  0.00    +0.035 A 
ATOM      3  C   UNL     1       1.833  -5.169  -2.356  0.00  0.00    +0.075 A 
ATOM      4  N   UNL     1       2.394  -6.356  -2.733  0.00  0.00    -0.276 N 
ATOM      5  H   UNL     1       3.117  -6.451  -3.373  0.00  0.00    +0.189 HD
ATOM      6  N   UNL     1       1.823  -7.327  -2.115  0.00  0.00    -0.168 NA
ATOM      7  C   UNL     1       0.879  -6.873  -1.315  0.00  0.00    +0.153 A 
ATOM      8  C   UNL     1      -0.162  -7.244  -0.339  0.00  0.00    +0.268 C 
ATOM      9  O   UNL     1      -0.413  -8.381   0.009  0.00  0.00    -0.268 OA
ATOM     10  N   UNL     1      -0.796  -6.146   0.112  0.00  0.00    -0.283 N 
ENDROOT
BRANCH   3  11
ATOM     11  C   UNL     1       2.208  -3.822  -2.838  0.00  0.00    +0.043 A 
ATOM     12  C   UNL     1       2.009  -3.475  -4.175  0.00  0.00    +0.034 A 
ATOM     13  C   UNL     1       2.360  -2.216  -4.619  0.00  0.00    +0.045 A 
ATOM     14  C   UNL     1       2.910  -1.296  -3.742  0.00  0.00    -0.029 A 
ATOM     15  C   UNL     1       3.111  -1.629  -2.416  0.00  0.00    +0.050 A 
ATOM     16  C   UNL     1       2.758  -2.887  -1.955  0.00  0.00    +0.126 A 
ATOM     17  C   UNL     1       3.291   0.076  -4.237  0.00  0.00    +0.045 C 
ATOM     18 CL   UNL     1       2.112  -1.786  -6.282  0.00  0.00    -0.083 Cl
BRANCH  16  19
ATOM     19  O   UNL     1       2.951  -3.213  -0.650  0.00  0.00    -0.506 OA
ATOM     20  H   UNL     1       3.817  -3.602  -0.465  0.00  0.00    +0.292 HD
ENDBRANCH  16  19
ENDBRANCH   3  11
BRANCH   1  23
ATOM     21  C   UNL     1       0.802  -1.825   1.306  0.00  0.00    +0.162 A 
ATOM     22  C   UNL     1       0.261  -2.673   0.353  0.00  0.00    +0.055 A 
ATOM     23  C   UNL     1       0.372  -4.043   0.502  0.00  0.00    -0.019 A 
ATOM     24  C   UNL     1       1.024  -4.570   1.602  0.00  0.00    +0.009 A 
ATOM     25  C   UNL     1       1.566  -3.730   2.557  0.00  0.00    +0.049 A 
ATOM     26  C   UNL     1       1.462  -2.356   2.410  0.00  0.00    +0.158 A 
BRANCH  26  27
ATOM     27  O   UNL     1       2.000  -1.528   3.345  0.00  0.00    -0.503 OA
ATOM     28  H   UNL     1       1.395  -1.301   4.064  0.00  0.00    +0.292 HD
ENDBRANCH  26  27
BRANCH  21  29
ATOM     29  O   UNL     1       0.693  -0.477   1.160  0.00  0.00    -0.489 OA
BRANCH  29  31
ATOM     30  C   UNL     1      -0.019   1.526   0.010  0.00  0.00    +0.048 C 
ATOM     31  C   UNL     1       0.002  -0.004   0.002  0.00  0.00    +0.226 C 
ENDBRANCH  29  31
ENDBRANCH  21  29
ENDBRANCH   1  23
BRANCH  10  32
ATOM     32  C   UNL     1      -1.886  -6.133   1.090  0.00  0.00    +0.137 C 
BRANCH  32  33
ATOM     33  C   UNL     1      -3.227  -6.242   0.361  0.00  0.00    +0.175 C 
BRANCH  33  34
ATOM     34  O   UNL     1      -3.315  -7.513  -0.286  0.00  0.00    -0.393 OA
ATOM     35  H   UNL     1      -4.141  -7.653  -0.769  0.00  0.00    +0.209 HD
ENDBRANCH  33  34
ENDBRANCH  32  33
ENDBRANCH  10  32
TORSDOF 9
