REMARK  Name = ZINC64788511
REMARK  8 active torsions:
REMARK  status: ('A' for Active; 'I' for Inactive)
REMARK    1  A    between atoms: C_1  and  O_2
REMARK    2  A    between atoms: O_2  and  C_3
REMARK    3  A    between atoms: C_5  and  C_12
REMARK    4  A    between atoms: C_7  and  O_10
REMARK    5  A    between atoms: C_8  and  O_9
REMARK    6  A    between atoms: O_10  and  C_11
REMARK    7  A    between atoms: N_24  and  C_27
REMARK    8  A    between atoms: C_27  and  C_28
REMARK                            x       y       z     vdW  Elec       q    Type
REMARK                         _______ _______ _______ _____ _____    ______ ____
ROOT
ATOM      1  C   UNL     1      -4.871   0.264   0.038  0.00  0.00    +0.108 C 
ATOM      2  C   UNL     1      -5.524   0.286  -1.365  0.00  0.00    +0.077 C 
ATOM      3  C   UNL     1      -7.003   0.206  -1.034  0.00  0.00    +0.038 C 
ATOM      4  N   UNL     1      -7.119  -0.175   0.252  0.00  0.00    -0.283 N 
ATOM      5  N   UNL     1      -5.915  -0.405   0.850  0.00  0.00    -0.235 NA
ATOM      6  C   UNL     1      -8.046   0.478  -1.899  0.00  0.00    +0.117 C 
ATOM      7  C   UNL     1      -7.802   0.886  -3.294  0.00  0.00    +0.258 C 
ATOM      8  N   UNL     1      -8.869   1.135  -4.081  0.00  0.00    -0.235 N 
ATOM      9  H   UNL     1      -8.726   1.404  -5.002  0.00  0.00    +0.159 HD
ATOM     10  C   UNL     1     -10.122   1.020  -3.620  0.00  0.00    +0.316 C 
ATOM     11  O   UNL     1     -11.040   1.259  -4.381  0.00  0.00    -0.252 OA
ATOM     12  N   UNL     1     -10.418   0.654  -2.365  0.00  0.00    -0.217 N 
ATOM     13  C   UNL     1      -9.451   0.368  -1.468  0.00  0.00    +0.261 C 
ATOM     14  O   UNL     1      -9.732   0.032  -0.333  0.00  0.00    -0.269 OA
ATOM     15  O   UNL     1      -6.670   0.995  -3.724  0.00  0.00    -0.270 OA
ATOM     16  H   UNL     1      -5.733  -1.394   0.929  0.00  0.00    +0.145 HD
ATOM     17  H   UNL     1      -7.970  -0.277   0.706  0.00  0.00    +0.166 HD
ENDROOT
BRANCH   1  20
ATOM     18  C   UNL     1      -1.201  -0.638   0.010  0.00  0.00    +0.165 A 
ATOM     19  C   UNL     1      -2.375   0.101   0.019  0.00  0.00    +0.055 A 
ATOM     20  C   UNL     1      -3.598  -0.543   0.028  0.00  0.00    -0.021 A 
ATOM     21  C   UNL     1      -3.657  -1.924   0.027  0.00  0.00    +0.055 A 
ATOM     22  C   UNL     1      -2.488  -2.670   0.017  0.00  0.00    +0.165 A 
ATOM     23  C   UNL     1      -1.256  -2.027   0.003  0.00  0.00    +0.201 A 
BRANCH  18  25
ATOM     24  C   UNL     1      -0.017   1.425   0.010  0.00  0.00    +0.277 C 
ATOM     25  O   UNL     1       0.002  -0.004   0.002  0.00  0.00    -0.491 OA
ENDBRANCH  18  25
BRANCH  23  26
ATOM     26  O   UNL     1      -0.106  -2.755  -0.012  0.00  0.00    -0.501 OA
ATOM     27  H   UNL     1       0.234  -2.970   0.867  0.00  0.00    +0.292 HD
ENDBRANCH  23  26
BRANCH  22  28
ATOM     28  O   UNL     1      -2.547  -4.028   0.017  0.00  0.00    -0.491 OA
ATOM     29  C   UNL     1      -3.847  -4.621   0.026  0.00  0.00    +0.277 C 
ENDBRANCH  22  28
ENDBRANCH   1  20
BRANCH  12  30
ATOM     30  C   UNL     1     -11.822   0.557  -1.959  0.00  0.00    +0.153 C 
BRANCH  30  31
ATOM     31  C   UNL     1     -12.326  -0.839  -2.222  0.00  0.00    -0.030 A 
ATOM     32  C   UNL     1     -12.892  -1.150  -3.444  0.00  0.00    +0.005 A 
ATOM     33  C   UNL     1     -13.354  -2.430  -3.686  0.00  0.00    +0.000 A 
ATOM     34  C   UNL     1     -13.250  -3.399  -2.705  0.00  0.00    +0.000 A 
ATOM     35  C   UNL     1     -12.683  -3.088  -1.484  0.00  0.00    +0.000 A 
ATOM     36  C   UNL     1     -12.217  -1.809  -1.244  0.00  0.00    +0.005 A 
ENDBRANCH  30  31
ENDBRANCH  12  30
TORSDOF 6
