REMARK  Name = ZINC39559747
REMARK  9 active torsions:
REMARK  status: ('A' for Active; 'I' for Inactive)
REMARK    1  A    between atoms: C_1  and  C_2
REMARK    2  A    between atoms: C_7  and  C_33
REMARK    3  A    between atoms: C_8  and  C_10
REMARK    4  A    between atoms: C_10  and  C_11
REMARK    5  A    between atoms: C_12  and  O_25
REMARK    6  A    between atoms: C_14  and  O_24
REMARK    7  A    between atoms: C_18  and  O_23
REMARK    8  A    between atoms: C_30  and  C_31
REMARK    9  A    between atoms: C_30  and  C_32
REMARK                            x       y       z     vdW  Elec       q    Type
REMARK                         _______ _______ _______ _____ _____    ______ ____
ROOT
ATOM      1  C   UNL     1       1.107   1.401   0.658  0.00  0.00    +0.039 C 
ATOM      2  C   UNL     1       0.459   0.112   0.223  0.00  0.00    -0.073 C 
ATOM      3  C   UNL     1       0.116  -0.011  -1.014  0.00  0.00    -0.027 C 
ATOM      4  C   UNL     1      -0.532  -1.228  -1.597  0.00  0.00    +0.032 C 
ATOM      5  C   UNL     1      -1.041  -2.202  -0.526  0.00  0.00    +0.012 C 
ATOM      6  C   UNL     1      -0.016  -2.320   0.595  0.00  0.00    -0.021 C 
ATOM      7  C   UNL     1       0.240  -0.954   1.246  0.00  0.00    +0.023 C 
ATOM      8  C   UNL     1       1.307  -2.866   0.055  0.00  0.00    +0.015 C 
ATOM      9  C   UNL     1       1.099  -4.278  -0.492  0.00  0.00    +0.075 C 
ATOM     10  C   UNL     1      -0.020  -4.267  -1.502  0.00  0.00    +0.139 C 
ATOM     11  O   UNL     1       0.122  -4.853  -2.558  0.00  0.00    -0.297 OA
ATOM     12  C   UNL     1      -1.311  -3.539  -1.223  0.00  0.00    +0.027 C 
ATOM     13  C   UNL     1      -1.997  -3.273  -2.583  0.00  0.00    +0.019 C 
ATOM     14  C   UNL     1      -2.269  -4.428  -0.427  0.00  0.00    +0.019 C 
ATOM     15  C   UNL     1      -0.505  -3.230   1.733  0.00  0.00    +0.012 C 
ENDROOT
BRANCH   7  16
ATOM     16  C   UNL     1      -0.946  -0.585   2.139  0.00  0.00    +0.049 C 
BRANCH  16  17
ATOM     17  C   UNL     1      -0.718  -1.141   3.546  0.00  0.00    +0.128 C 
ATOM     18  C   UNL     1       0.717  -1.079   4.013  0.00  0.00    +0.182 C 
ATOM     19  C   UNL     1       0.885  -1.359   5.493  0.00  0.00    +0.174 C 
ATOM     20  C   UNL     1      -0.179  -0.699   6.312  0.00  0.00    -0.015 C 
ATOM     21  C   UNL     1       0.173   0.066   7.317  0.00  0.00    +0.013 C 
ATOM     22  C   UNL     1      -1.635  -0.887   6.016  0.00  0.00    +0.174 C 
ATOM     23  C   UNL     1      -1.874  -0.954   4.510  0.00  0.00    +0.186 C 
ATOM     24  O   UNL     1      -1.557  -2.224   3.912  0.00  0.00    -0.359 OA
BRANCH  22  25
ATOM     25  O   UNL     1      -2.085  -2.103   6.617  0.00  0.00    -0.385 OA
ATOM     26  H   UNL     1      -1.982  -2.128   7.578  0.00  0.00    +0.210 HD
ENDBRANCH  22  25
BRANCH  19  27
ATOM     27  O   UNL     1       0.828  -2.770   5.710  0.00  0.00    -0.385 OA
ATOM     28  H   UNL     1       0.928  -3.030   6.635  0.00  0.00    +0.210 HD
ENDBRANCH  19  27
BRANCH  18  29
ATOM     29  O   UNL     1       1.478  -2.041   3.280  0.00  0.00    -0.386 OA
ATOM     30  H   UNL     1       2.397  -2.119   3.570  0.00  0.00    +0.210 HD
ENDBRANCH  18  29
ENDBRANCH  16  17
ENDBRANCH   7  16
TORSDOF 5
