REMARK  Name = ZINC17080096
REMARK  5 active torsions:
REMARK  status: ('A' for Active; 'I' for Inactive)
REMARK    1  A    between atoms: C_1  and  O_2
REMARK    2  A    between atoms: O_2  and  C_3
REMARK    3  A    between atoms: C_6  and  C_9
REMARK    4  A    between atoms: C_14  and  C_20
REMARK    5  A    between atoms: C_24  and  N_26
REMARK                            x       y       z     vdW  Elec       q    Type
REMARK                         _______ _______ _______ _____ _____    ______ ____
ROOT
ATOM      1  C   UNL     1       2.523   5.322   0.227  0.00  0.00    +0.032 C 
ATOM      2  C   UNL     1       2.397   3.976  -0.489  0.00  0.00    +0.059 C 
ATOM      3  C   UNL     1       1.152   3.266  -0.018  0.00  0.00    +0.018 C 
ATOM      4  C   UNL     1       0.065   3.964   0.374  0.00  0.00    +0.020 C 
ATOM      5  C   UNL     1      -1.174   3.232   0.833  0.00  0.00    +0.063 C 
ATOM      6  C   UNL     1      -1.330   1.942   0.019  0.00  0.00    +0.109 C 
ATOM      7  C   UNL     1      -0.014   1.208   0.009  0.00  0.00    +0.218 C 
ATOM      8  O   UNL     1       0.002  -0.004   0.002  0.00  0.00    -0.275 OA
ATOM      9  N   UNL     1       1.141   1.895   0.001  0.00  0.00    -0.289 N 
ATOM     10  C   UNL     1       0.056   5.369   0.368  0.00  0.00    +0.162 C 
ATOM     11  O   UNL     1      -0.946   5.962   0.716  0.00  0.00    -0.292 OA
ATOM     12  C   UNL     1       1.268   6.150  -0.064  0.00  0.00    +0.088 C 
ATOM     13  H   UNL     1       1.983   1.412   0.010  0.00  0.00    +0.155 HD
ENDROOT
BRANCH   1  17
ATOM     14  C   UNL     1       5.980   7.388  -1.203  0.00  0.00    +0.120 A 
ATOM     15  C   UNL     1       5.873   7.061   0.141  0.00  0.00    +0.046 A 
ATOM     16  C   UNL     1       4.754   6.394   0.601  0.00  0.00    +0.007 A 
ATOM     17  C   UNL     1       3.742   6.051  -0.277  0.00  0.00    -0.043 A 
ATOM     18  C   UNL     1       3.850   6.370  -1.618  0.00  0.00    +0.007 A 
ATOM     19  C   UNL     1       4.964   7.043  -2.082  0.00  0.00    +0.046 A 
BRANCH  14  21
ATOM     20  C   UNL     1       7.123   8.348  -3.053  0.00  0.00    +0.277 C 
ATOM     21  O   UNL     1       7.080   8.044  -1.658  0.00  0.00    -0.495 OA
ENDBRANCH  14  21
ENDBRANCH   1  17
BRANCH   5  22
ATOM     22  C   UNL     1      -1.047   2.896   2.296  0.00  0.00    -0.037 A 
ATOM     23  C   UNL     1      -0.007   2.099   2.735  0.00  0.00    +0.004 A 
ATOM     24  C   UNL     1       0.109   1.791   4.077  0.00  0.00    +0.003 A 
ATOM     25  C   UNL     1      -0.814   2.281   4.982  0.00  0.00    +0.033 A 
ATOM     26  C   UNL     1      -1.854   3.080   4.543  0.00  0.00    +0.126 A 
ATOM     27  C   UNL     1      -1.968   3.391   3.201  0.00  0.00    +0.037 A 
BRANCH  26  28
ATOM     28  N   UNL     1      -2.842   3.606   5.511  0.00  0.00    +0.056 N 
ATOM     29  O   UNL     1      -2.740   3.334   6.694  0.00  0.00    -0.126 OA
ATOM     30  O   UNL     1      -3.758   4.309   5.125  0.00  0.00    -0.126 OA
ENDBRANCH  26  28
ENDBRANCH   5  22
TORSDOF 4
