REMARK  Name = ZINC58156955
REMARK  7 active torsions:
REMARK  status: ('A' for Active; 'I' for Inactive)
REMARK    1  A    between atoms: C_1  and  C_2
REMARK    2  A    between atoms: C_2  and  C_3
REMARK    3  A    between atoms: C_2  and  C_4
REMARK    4  A    between atoms: C_4  and  C_6
REMARK    5  A    between atoms: C_4  and  N_17
REMARK    6  A    between atoms: C_8  and  C_11
REMARK    7  A    between atoms: C_18  and  C_20
REMARK                            x       y       z     vdW  Elec       q    Type
REMARK                         _______ _______ _______ _____ _____    ______ ____
ROOT
ATOM      1  N   UNL     1       0.762  -1.976   1.234  0.00  0.00    -0.303 N 
ATOM      2  C   UNL     1      -0.282  -2.667   1.733  0.00  0.00    +0.222 C 
ATOM      3  O   UNL     1      -1.238  -2.076   2.189  0.00  0.00    -0.275 OA
ATOM      4  H   UNL     1       1.526  -2.448   0.869  0.00  0.00    +0.149 HD
ENDROOT
BRANCH   2   5
ATOM      5  C   UNL     1      -0.262  -4.173   1.725  0.00  0.00    +0.115 C 
ATOM      6  C   UNL     1      -0.142  -4.673   0.285  0.00  0.00    +0.113 C 
ATOM      7  C   UNL     1      -1.433  -4.432  -0.450  0.00  0.00    +0.218 C 
ATOM      8  O   UNL     1      -1.407  -4.139  -1.627  0.00  0.00    -0.275 OA
ATOM      9  N   UNL     1      -2.616  -4.538   0.183  0.00  0.00    -0.285 N 
ATOM     10  C   UNL     1      -2.665  -4.859   1.543  0.00  0.00    +0.040 A 
ATOM     11  C   UNL     1      -1.536  -4.696   2.335  0.00  0.00    -0.014 A 
ATOM     12  C   UNL     1      -1.583  -5.013   3.678  0.00  0.00    +0.009 A 
ATOM     13  C   UNL     1      -2.754  -5.492   4.236  0.00  0.00    +0.039 A 
ATOM     14  C   UNL     1      -3.882  -5.656   3.450  0.00  0.00    +0.125 A 
ATOM     15  C   UNL     1      -3.840  -5.340   2.104  0.00  0.00    +0.062 A 
ATOM     16  F   UNL     1      -5.025  -6.124   3.998  0.00  0.00    -0.205 F 
ATOM     17  H   UNL     1      -3.440  -4.391  -0.307  0.00  0.00    +0.155 HD
ENDBRANCH   2   5
BRANCH   1  18
ATOM     18  C   UNL     1       0.742  -0.511   1.242  0.00  0.00    +0.164 C 
BRANCH  18  19
ATOM     19  C   UNL     1       2.156   0.011   1.231  0.00  0.00    +0.248 A 
ATOM     20  N   UNL     1       2.620   0.968   1.983  0.00  0.00    -0.190 NA
ATOM     21  C   UNL     1       3.921   1.176   1.712  0.00  0.00    +0.202 A 
ATOM     22  N   UNL     1       4.293   0.340   0.775  0.00  0.00    -0.056 NA
ATOM     23  O   UNL     1       3.149  -0.435   0.451  0.00  0.00    -0.336 OA
BRANCH  21  24
ATOM     24  C   UNL     1       4.790   2.186   2.367  0.00  0.00    +0.022 A 
ATOM     25  C   UNL     1       4.272   3.016   3.359  0.00  0.00    +0.012 A 
ATOM     26  C   UNL     1       5.085   3.953   3.964  0.00  0.00    +0.001 A 
ATOM     27  C   UNL     1       6.411   4.069   3.587  0.00  0.00    +0.000 A 
ATOM     28  C   UNL     1       6.930   3.247   2.603  0.00  0.00    +0.001 A 
ATOM     29  C   UNL     1       6.128   2.303   1.996  0.00  0.00    +0.012 A 
ENDBRANCH  21  24
ENDBRANCH  18  19
BRANCH  18  31
ATOM     30  C   UNL     1      -0.019   1.526   0.010  0.00  0.00    +0.009 C 
ATOM     31  C   UNL     1       0.002  -0.004   0.002  0.00  0.00    +0.012 C 
ATOM     32  C   UNL     1       0.718  -0.497  -1.257  0.00  0.00    +0.009 C 
ENDBRANCH  18  31
ENDBRANCH   1  18
TORSDOF 5
