REMARK  Name = ZINC65191038
REMARK  12 active torsions:
REMARK  status: ('A' for Active; 'I' for Inactive)
REMARK    1  A    between atoms: C_1  and  C_2
REMARK    2  A    between atoms: C_2  and  N_3
REMARK    3  A    between atoms: N_6  and  N_7
REMARK    4  A    between atoms: C_8  and  C_10
REMARK    5  A    between atoms: C_11  and  C_12
REMARK    6  A    between atoms: C_15  and  O_20
REMARK    7  A    between atoms: C_16  and  O_18
REMARK    8  A    between atoms: O_18  and  C_19
REMARK    9  A    between atoms: O_20  and  C_21
REMARK   10  A    between atoms: C_21  and  C_22
REMARK   11  A    between atoms: C_23  and  C_28
REMARK   12  A    between atoms: C_26  and  C_27
REMARK                            x       y       z     vdW  Elec       q    Type
REMARK                         _______ _______ _______ _____ _____    ______ ____
ROOT
ATOM      1  C   UNL     1       4.446  -0.331   7.523  0.00  0.00    -0.021 A 
ATOM      2  C   UNL     1       4.294   1.045   7.316  0.00  0.00    +0.012 A 
ATOM      3  C   UNL     1       4.814   1.940   8.224  0.00  0.00    +0.050 A 
ATOM      4  C   UNL     1       5.490   1.481   9.347  0.00  0.00    +0.162 A 
ATOM      5  C   UNL     1       5.647   0.112   9.561  0.00  0.00    +0.162 A 
ATOM      6  C   UNL     1       5.123  -0.792   8.658  0.00  0.00    +0.057 A 
ENDROOT
BRANCH   1   8
ATOM      7  C   UNL     1       3.238  -0.841   5.462  0.00  0.00    +0.069 C 
ATOM      8  C   UNL     1       3.891  -1.288   6.556  0.00  0.00    +0.013 C 
BRANCH   7  10
ATOM      9  N   UNL     1       2.034  -1.348   3.408  0.00  0.00    -0.230 N 
ATOM     10  C   UNL     1       2.686  -1.794   4.500  0.00  0.00    +0.253 C 
ATOM     11  O   UNL     1       2.816  -2.990   4.685  0.00  0.00    -0.269 OA
ATOM     12  H   UNL     1       1.931  -0.394   3.260  0.00  0.00    +0.173 HD
BRANCH   9  16
ATOM     13  N   UNL     1       0.711  -0.489   1.189  0.00  0.00    -0.298 N 
ATOM     14  C   UNL     1       0.854  -1.814   1.394  0.00  0.00    +0.316 C 
ATOM     15  O   UNL     1       0.395  -2.606   0.593  0.00  0.00    -0.251 OA
ATOM     16  N   UNL     1       1.506  -2.260   2.486  0.00  0.00    -0.218 N 
ATOM     17  H   UNL     1       1.077   0.142   1.827  0.00  0.00    +0.150 HD
ATOM     18  H   UNL     1       1.609  -3.213   2.633  0.00  0.00    +0.174 HD
BRANCH  13  20
ATOM     19  C   UNL     1      -0.019   1.526   0.010  0.00  0.00    +0.024 C 
ATOM     20  C   UNL     1       0.002  -0.004   0.002  0.00  0.00    +0.102 C 
ENDBRANCH  13  20
ENDBRANCH   9  16
ENDBRANCH   7  10
ENDBRANCH   1   8
BRANCH   5  21
ATOM     21  O   UNL     1       6.310  -0.333  10.661  0.00  0.00    -0.491 OA
ATOM     22  C   UNL     1       6.433  -1.748  10.817  0.00  0.00    +0.277 C 
ENDBRANCH   5  21
BRANCH   4  23
ATOM     23  O   UNL     1       6.002   2.369  10.239  0.00  0.00    -0.484 OA
BRANCH  23  24
ATOM     24  C   UNL     1       5.806   3.756   9.958  0.00  0.00    +0.270 C 
BRANCH  24  25
ATOM     25  C   UNL     1       6.437   4.583  11.049  0.00  0.00    +0.054 A 
ATOM     26  C   UNL     1       5.806   5.010  12.231  0.00  0.00    +0.087 A 
ATOM     27  N   UNL     1       6.668   5.699  12.923  0.00  0.00    -0.083 NA
ATOM     28  O   UNL     1       7.884   5.731  12.198  0.00  0.00    -0.359 OA
ATOM     29  C   UNL     1       7.705   5.036  11.064  0.00  0.00    +0.141 A 
ATOM     30  C   UNL     1       8.741   4.806   9.994  0.00  0.00    +0.089 C 
ATOM     31  C   UNL     1       4.380   4.722  12.626  0.00  0.00    +0.069 C 
ENDBRANCH  24  25
ENDBRANCH  23  24
ENDBRANCH   4  23
TORSDOF 8
