REMARK  Name = ZINC12904947
REMARK  8 active torsions:
REMARK  status: ('A' for Active; 'I' for Inactive)
REMARK    1  A    between atoms: C_1  and  C_2
REMARK    2  A    between atoms: C_2  and  C_21
REMARK    3  A    between atoms: N_5  and  C_9
REMARK    4  A    between atoms: C_9  and  C_10
REMARK    5  A    between atoms: N_12  and  C_13
REMARK    6  A    between atoms: C_14  and  C_18
REMARK    7  A    between atoms: C_26  and  O_31
REMARK    8  A    between atoms: O_31  and  C_32
REMARK                            x       y       z     vdW  Elec       q    Type
REMARK                         _______ _______ _______ _____ _____    ______ ____
ROOT
ATOM      1  C   UNL     1       2.964   4.137   1.430  0.00  0.00    +0.047 C 
ATOM      2  C   UNL     1       2.467   3.911   0.001  0.00  0.00    +0.135 C 
ATOM      3  C   UNL     1       3.501   3.158  -0.814  0.00  0.00    +0.251 C 
ATOM      4  O   UNL     1       3.931   2.045  -0.602  0.00  0.00    -0.272 OA
ATOM      5  N   UNL     1       3.841   3.984  -1.823  0.00  0.00    -0.215 N 
ATOM      6  C   UNL     1       3.174   5.142  -1.759  0.00  0.00    +0.310 C 
ATOM      7  O   UNL     1       3.312   6.046  -2.560  0.00  0.00    -0.252 OA
ATOM      8  N   UNL     1       2.333   5.194  -0.710  0.00  0.00    -0.281 N 
ATOM      9  H   UNL     1       1.753   5.933  -0.469  0.00  0.00    +0.152 HD
ENDROOT
BRANCH   2  10
ATOM     10  C   UNL     1       1.155   3.169   0.009  0.00  0.00    -0.015 A 
ATOM     11  C   UNL     1       1.155   1.776   0.001  0.00  0.00    +0.007 A 
ATOM     12  C   UNL     1      -0.013   1.076   0.008  0.00  0.00    +0.009 A 
ATOM     13  C   UNL     1      -1.237   1.766   0.018  0.00  0.00    -0.014 A 
ATOM     14  C   UNL     1      -2.461   1.077   0.031  0.00  0.00    +0.054 A 
ATOM     15  C   UNL     1      -3.632   1.780   0.046  0.00  0.00    +0.121 A 
ATOM     16  C   UNL     1      -3.628   3.179   0.054  0.00  0.00    +0.046 A 
ATOM     17  C   UNL     1      -2.460   3.875   0.047  0.00  0.00    +0.012 A 
ATOM     18  C   UNL     1      -1.236   3.183   0.031  0.00  0.00    -0.017 A 
ATOM     19  C   UNL     1      -0.011   3.871   0.024  0.00  0.00    +0.014 A 
BRANCH  15  20
ATOM     20  O   UNL     1      -4.815   1.113   0.053  0.00  0.00    -0.495 OA
ATOM     21  C   UNL     1      -6.006   1.903   0.069  0.00  0.00    +0.277 C 
ENDBRANCH  15  20
ENDBRANCH   2  10
BRANCH   5  22
ATOM     22  C   UNL     1       4.822   3.656  -2.860  0.00  0.00    +0.214 C 
BRANCH  22  23
ATOM     23  C   UNL     1       6.192   4.095  -2.413  0.00  0.00    +0.236 C 
ATOM     24  O   UNL     1       6.336   4.631  -1.335  0.00  0.00    -0.274 OA
ATOM     25  N   UNL     1       7.259   3.894  -3.213  0.00  0.00    -0.278 N 
ATOM     26  H   UNL     1       7.144   3.466  -4.075  0.00  0.00    +0.155 HD
BRANCH  25  27
ATOM     27  C   UNL     1       8.520   4.298  -2.802  0.00  0.00    +0.084 A 
ATOM     28  C   UNL     1       9.729   4.174  -3.476  0.00  0.00    +0.065 A 
ATOM     29  C   UNL     1      10.900   4.691  -2.809  0.00  0.00    +0.022 A 
ATOM     30  C   UNL     1      10.723   5.237  -1.593  0.00  0.00    +0.048 A 
ATOM     31  S   UNL     1       8.971   5.075  -1.321  0.00  0.00    -0.081 S 
BRANCH  28  32
ATOM     32  C   UNL     1       9.810   3.551  -4.801  0.00  0.00    +0.244 C 
ATOM     33  O   UNL     1       8.803   3.128  -5.337  0.00  0.00    -0.270 OA
ATOM     34  N   UNL     1      11.000   3.447  -5.425  0.00  0.00    -0.325 N 
ATOM     35  H   UNL     1      11.803   3.784  -4.997  0.00  0.00    +0.145 HD
ATOM     36  H   UNL     1      11.054   3.035  -6.301  0.00  0.00    +0.145 HD
ENDBRANCH  28  32
ENDBRANCH  25  27
ENDBRANCH  22  23
ENDBRANCH   5  22
TORSDOF 6
