REMARK  Name = ZINC15206336
REMARK  7 active torsions:
REMARK  status: ('A' for Active; 'I' for Inactive)
REMARK    1  A    between atoms: C_4  and  O_7
REMARK    2  A    between atoms: O_7  and  C_8
REMARK    3  A    between atoms: C_10  and  O_23
REMARK    4  A    between atoms: C_12  and  O_22
REMARK    5  A    between atoms: C_14  and  O_21
REMARK    6  A    between atoms: C_16  and  C_19
REMARK    7  A    between atoms: C_19  and  O_20
REMARK                            x       y       z     vdW  Elec       q    Type
REMARK                         _______ _______ _______ _____ _____    ______ ____
ROOT
ATOM      1  C   UNL     1      -0.576   1.936   3.662  0.00  0.00    +0.339 C 
ATOM      2  C   UNL     1      -0.699   3.461   3.707  0.00  0.00    +0.214 C 
ATOM      3  C   UNL     1      -1.527   3.934   2.508  0.00  0.00    +0.180 C 
ATOM      4  C   UNL     1      -0.863   3.443   1.218  0.00  0.00    +0.177 C 
ATOM      5  C   UNL     1      -0.733   1.918   1.269  0.00  0.00    +0.179 C 
ATOM      6  O   UNL     1       0.021   1.544   2.424  0.00  0.00    -0.331 OA
ENDROOT
BRANCH   4   7
ATOM      7  O   UNL     1       0.434   4.029   1.095  0.00  0.00    -0.386 OA
ATOM      8  H   UNL     1       0.427   4.995   1.057  0.00  0.00    +0.210 HD
ENDBRANCH   4   7
BRANCH   3   9
ATOM      9  O   UNL     1      -2.849   3.400   2.599  0.00  0.00    -0.386 OA
ATOM     10  H   UNL     1      -3.326   3.666   3.397  0.00  0.00    +0.210 HD
ENDBRANCH   3   9
BRANCH   2  11
ATOM     11  O   UNL     1      -1.348   3.852   4.919  0.00  0.00    -0.383 OA
ATOM     12  H   UNL     1      -0.880   3.580   5.720  0.00  0.00    +0.210 HD
ENDBRANCH   2  11
BRANCH   1  13
ATOM     13  O   UNL     1       0.242   1.492   4.746  0.00  0.00    -0.461 OA
BRANCH  13  17
ATOM     14  C   UNL     1       0.629  -2.584   5.253  0.00  0.00    +0.000 A 
ATOM     15  C   UNL     1       1.277  -1.717   6.113  0.00  0.00    +0.004 A 
ATOM     16  C   UNL     1       1.149  -0.352   5.946  0.00  0.00    +0.046 A 
ATOM     17  C   UNL     1       0.370   0.149   4.913  0.00  0.00    +0.124 A 
ATOM     18  C   UNL     1      -0.283  -0.723   4.054  0.00  0.00    +0.046 A 
ATOM     19  C   UNL     1      -0.148  -2.087   4.223  0.00  0.00    +0.004 A 
ENDBRANCH  13  17
ENDBRANCH   1  13
BRANCH   5  20
ATOM     20  C   UNL     1      -0.017   1.425   0.010  0.00  0.00    +0.190 C 
BRANCH  20  21
ATOM     21  O   UNL     1       0.002  -0.004   0.002  0.00  0.00    -0.392 OA
ATOM     22  H   UNL     1       0.442  -0.387  -0.769  0.00  0.00    +0.210 HD
ENDBRANCH  20  21
ENDBRANCH   5  20
TORSDOF 7
