REMARK  Name = ZINC12531687
REMARK  11 active torsions:
REMARK  status: ('A' for Active; 'I' for Inactive)
REMARK    1  A    between atoms: C_1  and  C_2
REMARK    2  A    between atoms: C_2  and  O_31
REMARK    3  A    between atoms: C_5  and  C_23
REMARK    4  A    between atoms: C_9  and  C_21
REMARK    5  A    between atoms: C_9  and  C_22
REMARK    6  A    between atoms: C_11  and  N_13
REMARK    7  A    between atoms: N_13  and  C_14
REMARK    8  A    between atoms: C_14  and  C_15
REMARK    9  A    between atoms: C_23  and  C_24
REMARK   10  A    between atoms: C_24  and  C_25
REMARK   11  A    between atoms: N_27  and  C_28
REMARK                            x       y       z     vdW  Elec       q    Type
REMARK                         _______ _______ _______ _____ _____    ______ ____
ROOT
ATOM      1  C   UNL     1      -0.424   1.542  -0.808  0.00  0.00    +0.041 C 
ATOM      2  C   UNL     1      -0.076   0.057  -0.685  0.00  0.00    +0.064 C 
ATOM      3  C   UNL     1      -1.361  -0.777  -0.714  0.00  0.00    +0.035 C 
ATOM      4  C   UNL     1      -0.977  -2.256  -0.667  0.00  0.00    +0.008 C 
ATOM      5  C   UNL     1      -0.185  -2.578   0.580  0.00  0.00    -0.038 C 
ATOM      6  C   UNL     1       1.039  -1.665   0.771  0.00  0.00    +0.002 C 
ATOM      7  C   UNL     1       0.639  -0.193   0.641  0.00  0.00    +0.039 C 
ATOM      8  C   UNL     1       1.376  -1.902   2.273  0.00  0.00    -0.033 C 
ATOM      9  C   UNL     1      -0.007  -1.981   2.955  0.00  0.00    -0.009 C 
ATOM     10  C   UNL     1      -1.009  -2.410   1.863  0.00  0.00    -0.065 C 
ATOM     11  C   UNL     1       2.184  -0.730   2.834  0.00  0.00    +0.011 C 
ATOM     12  C   UNL     1       2.139  -3.216   2.451  0.00  0.00    +0.011 C 
ENDROOT
BRANCH  10  13
ATOM     13  N   UNL     1      -1.642  -3.684   2.229  0.00  0.00    +0.381 N 
ATOM     14  H   UNL     1      -2.194  -4.020   1.454  0.00  0.00    -0.085 HD
ATOM     15  H   UNL     1      -0.929  -4.362   2.453  0.00  0.00    -0.085 HD
BRANCH  13  16
ATOM     16  C   UNL     1      -2.510  -3.482   3.397  0.00  0.00    -0.079 C 
BRANCH  16  17
ATOM     17  C   UNL     1      -3.169  -4.809   3.779  0.00  0.00    -0.028 C 
ATOM     18  C   UNL     1      -4.104  -5.255   2.653  0.00  0.00    +0.002 C 
ATOM     19  C   UNL     1      -4.763  -6.582   3.034  0.00  0.00    +0.000 C 
ATOM     20  C   UNL     1      -5.568  -6.400   4.323  0.00  0.00    +0.000 C 
ATOM     21  C   UNL     1      -4.633  -5.953   5.448  0.00  0.00    +0.000 C 
ATOM     22  C   UNL     1      -3.974  -4.627   5.067  0.00  0.00    +0.002 C 
ENDBRANCH  16  17
ENDBRANCH  13  16
ENDBRANCH  10  13
BRANCH   2  23
ATOM     23  O   UNL     1       0.773  -0.327  -1.768  0.00  0.00    -0.389 OA
ATOM     24  H   UNL     1       0.379  -0.200  -2.642  0.00  0.00    +0.210 HD
ENDBRANCH   2  23
BRANCH   5  25
ATOM     25  C   UNL     1       0.310  -4.024   0.494  0.00  0.00    +0.015 C 
BRANCH  25  26
ATOM     26  C   UNL     1       1.327  -4.148  -0.642  0.00  0.00    +0.096 C 
BRANCH  26  27
ATOM     27  C   UNL     1       1.781  -5.580  -0.755  0.00  0.00    +0.213 C 
ATOM     28  O   UNL     1       1.335  -6.419  -0.001  0.00  0.00    -0.276 OA
ATOM     29  N   UNL     1       2.683  -5.930  -1.694  0.00  0.00    -0.312 N 
ATOM     30  H   UNL     1       3.039  -5.259  -2.297  0.00  0.00    +0.149 HD
BRANCH  29  31
ATOM     31  C   UNL     1       3.124  -7.322  -1.804  0.00  0.00    +0.073 C 
ATOM     32  C   UNL     1       4.620  -7.576  -2.002  0.00  0.00    +0.024 C 
ATOM     33  C   UNL     1       3.647  -7.792  -3.163  0.00  0.00    +0.024 C 
ENDBRANCH  29  31
ENDBRANCH  26  27
ENDBRANCH  25  26
ENDBRANCH   5  25
TORSDOF 8
