REMARK  Name = ZINC13475459
REMARK  7 active torsions:
REMARK  status: ('A' for Active; 'I' for Inactive)
REMARK    1  A    between atoms: C_1  and  N_2
REMARK    2  A    between atoms: N_2  and  C_3
REMARK    3  A    between atoms: N_2  and  C_11
REMARK    4  A    between atoms: C_3  and  C_4
REMARK    5  A    between atoms: C_12  and  C_18
REMARK    6  A    between atoms: C_16  and  N_17
REMARK    7  A    between atoms: C_19  and  C_20
REMARK                            x       y       z     vdW  Elec       q    Type
REMARK                         _______ _______ _______ _____ _____    ______ ____
ROOT
ATOM      1  C   UNL     1      -2.845   3.215   1.462  0.00  0.00    +0.104 A 
ATOM      2  C   UNL     1      -4.055   2.895   0.828  0.00  0.00    +0.140 A 
ATOM      3  N   UNL     1      -5.072   3.760   0.908  0.00  0.00    -0.225 NA
ATOM      4  C   UNL     1      -4.947   4.891   1.567  0.00  0.00    +0.224 A 
ATOM      5  N   UNL     1      -3.828   5.229   2.176  0.00  0.00    -0.219 NA
ATOM      6  C   UNL     1      -2.766   4.429   2.155  0.00  0.00    +0.142 A 
ENDROOT
BRANCH   6   7
ATOM      7  N   UNL     1      -1.595   4.794   2.805  0.00  0.00    -0.342 N 
ATOM      8  H   UNL     1      -1.541   5.750   3.347  0.00  0.00    +0.144 HD
ATOM      9  H   UNL     1      -0.720   4.128   2.779  0.00  0.00    +0.144 HD
ENDBRANCH   6   7
BRANCH   1  11
ATOM     10  C   UNL     1      -2.056   1.077   2.085  0.00  0.00    +0.130 C 
ATOM     11  N   UNL     1      -1.753   2.345   1.408  0.00  0.00    -0.324 N 
BRANCH  11  12
ATOM     12  C   UNL     1      -1.332   2.114   0.020  0.00  0.00    +0.140 C 
BRANCH  12  13
ATOM     13  C   UNL     1      -0.017   1.378   0.010  0.00  0.00    -0.030 A 
ATOM     14  C   UNL     1       1.171   2.086   0.002  0.00  0.00    +0.006 A 
ATOM     15  C   UNL     1       2.377   1.412  -0.013  0.00  0.00    +0.015 A 
ATOM     16  C   UNL     1       2.397   0.029  -0.021  0.00  0.00    +0.018 A 
ATOM     17  C   UNL     1       1.208  -0.679  -0.013  0.00  0.00    +0.015 A 
ATOM     18  C   UNL     1       0.002  -0.004   0.002  0.00  0.00    +0.006 A 
ATOM     19 BR   UNL     1       4.047  -0.894  -0.041  0.00  0.00    -0.050 Br
ENDBRANCH  12  13
ENDBRANCH  11  12
ENDBRANCH   1  11
BRANCH   2  20
ATOM     20  C   UNL     1      -4.198   1.665   0.109  0.00  0.00    -0.039 C 
ATOM     21  C   UNL     1      -4.315   0.657  -0.480  0.00  0.00    -0.058 C 
BRANCH  21  22
ATOM     22  C   UNL     1      -4.458  -0.574  -1.199  0.00  0.00    +0.044 A 
ATOM     23  C   UNL     1      -5.670  -0.892  -1.832  0.00  0.00    +0.022 A 
ATOM     24  C   UNL     1      -5.762  -2.079  -2.508  0.00  0.00    +0.045 A 
ATOM     25  C   UNL     1      -4.660  -2.930  -2.548  0.00  0.00    +0.121 A 
ATOM     26  N   UNL     1      -3.526  -2.607  -1.942  0.00  0.00    -0.239 NA
ATOM     27  C   UNL     1      -3.393  -1.472  -1.285  0.00  0.00    +0.129 A 
ATOM     28  N   UNL     1      -4.750  -4.134  -3.232  0.00  0.00    -0.311 N 
ATOM     29  C   UNL     1      -5.866  -4.946  -2.725  0.00  0.00    +0.134 C 
ATOM     30  C   UNL     1      -5.966  -6.235  -3.545  0.00  0.00    +0.178 C 
ATOM     31  O   UNL     1      -4.718  -6.932  -3.482  0.00  0.00    -0.377 OA
ATOM     32  C   UNL     1      -3.609  -6.171  -3.969  0.00  0.00    +0.178 C 
ATOM     33  C   UNL     1      -3.485  -4.881  -3.153  0.00  0.00    +0.134 C 
ENDBRANCH  21  22
ENDBRANCH   2  20
TORSDOF 6
