REMARK  Name = ZINC14379190
REMARK  6 active torsions:
REMARK  status: ('A' for Active; 'I' for Inactive)
REMARK    1  A    between atoms: C_1  and  C_2
REMARK    2  A    between atoms: C_3  and  C_7
REMARK    3  A    between atoms: N_9  and  N_10
REMARK    4  A    between atoms: C_11  and  C_13
REMARK    5  A    between atoms: C_17  and  S_19
REMARK    6  A    between atoms: S_19  and  N_22
REMARK                            x       y       z     vdW  Elec       q    Type
REMARK                         _______ _______ _______ _____ _____    ______ ____
ROOT
ATOM      1  C   UNL     1      -2.690  -3.682   3.583  0.00  0.00    +0.040 A 
ATOM      2  C   UNL     1      -1.508  -3.563   4.317  0.00  0.00    +0.014 A 
ATOM      3  C   UNL     1      -0.387  -3.017   3.729  0.00  0.00    +0.023 A 
ATOM      4  C   UNL     1      -0.430  -2.592   2.411  0.00  0.00    +0.068 A 
ATOM      5  C   UNL     1      -1.601  -2.703   1.680  0.00  0.00    +0.128 A 
ATOM      6  C   UNL     1      -2.729  -3.247   2.257  0.00  0.00    +0.043 A 
ATOM      7 CL   UNL     1       0.988  -1.913   1.675  0.00  0.00    -0.082 Cl
ENDROOT
BRANCH   1   9
ATOM      8  N   UNL     1      -3.856  -4.686   5.488  0.00  0.00    -0.230 N 
ATOM      9  C   UNL     1      -3.896  -4.266   4.208  0.00  0.00    +0.260 C 
ATOM     10  O   UNL     1      -4.923  -4.368   3.567  0.00  0.00    -0.269 OA
ATOM     11  H   UNL     1      -3.035  -4.604   6.000  0.00  0.00    +0.173 HD
BRANCH   8  14
ATOM     12  C   UNL     1      -4.958  -5.658   7.360  0.00  0.00    +0.263 C 
ATOM     13  O   UNL     1      -3.930  -5.556   8.002  0.00  0.00    -0.269 OA
ATOM     14  N   UNL     1      -4.998  -5.239   6.080  0.00  0.00    -0.230 N 
ATOM     15  H   UNL     1      -5.818  -5.321   5.569  0.00  0.00    +0.173 HD
BRANCH  12  18
ATOM     16  C   UNL     1      -5.196  -6.723  10.301  0.00  0.00    +0.087 C 
ATOM     17  C   UNL     1      -6.284  -6.709   9.258  0.00  0.00    +0.114 A 
ATOM     18  C   UNL     1      -6.160  -6.240   7.983  0.00  0.00    +0.079 A 
ATOM     19  C   UNL     1      -7.479  -6.432   7.362  0.00  0.00    +0.054 A 
ATOM     20  C   UNL     1      -8.252  -6.996   8.303  0.00  0.00    +0.196 A 
ATOM     21  O   UNL     1      -7.533  -7.152   9.426  0.00  0.00    -0.467 OA
ENDBRANCH  12  18
ENDBRANCH   8  14
ENDBRANCH   1   9
BRANCH   5  22
ATOM     22  S   UNL     1      -1.647  -2.153   0.007  0.00  0.00    +0.076 S 
ATOM     23  O   UNL     1      -2.953  -2.435  -0.477  0.00  0.00    -0.150 OA
ATOM     24  O   UNL     1      -0.477  -2.659  -0.620  0.00  0.00    -0.150 OA
BRANCH  22  25
ATOM     25  N   UNL     1      -1.497  -0.504   0.029  0.00  0.00    -0.202 N 
ATOM     26  C   UNL     1      -0.246   0.228  -0.188  0.00  0.00    +0.136 C 
ATOM     27  C   UNL     1      -0.624   1.714  -0.075  0.00  0.00    +0.058 C 
ATOM     28  C   UNL     1      -2.108   1.707   0.214  0.00  0.00    -0.023 A 
ATOM     29  C   UNL     1      -2.543   0.392   0.257  0.00  0.00    +0.054 A 
ATOM     30  C   UNL     1      -3.892   0.131   0.506  0.00  0.00    +0.025 A 
ATOM     31  C   UNL     1      -4.775   1.171   0.707  0.00  0.00    +0.002 A 
ATOM     32  C   UNL     1      -4.331   2.480   0.663  0.00  0.00    +0.000 A 
ATOM     33  C   UNL     1      -2.997   2.745   0.416  0.00  0.00    +0.005 A 
ENDBRANCH  22  25
ENDBRANCH   5  22
TORSDOF 5
