REMARK  Name = ZINC02786048
REMARK  7 active torsions:
REMARK  status: ('A' for Active; 'I' for Inactive)
REMARK    1  A    between atoms: C_1  and  O_2
REMARK    2  A    between atoms: O_2  and  C_3
REMARK    3  A    between atoms: C_6  and  C_18
REMARK    4  A    between atoms: C_8  and  C_9
REMARK    5  A    between atoms: C_9  and  N_10
REMARK    6  A    between atoms: C_12  and  N_15
REMARK    7  A    between atoms: CA_31  and  C_33
REMARK                            x       y       z     vdW  Elec       q    Type
REMARK                         _______ _______ _______ _____ _____    ______ ____
ROOT
ATOM      1  C   UNL     1       1.545   0.052   6.146  0.00  0.00    +0.008 C 
ATOM      2  C   UNL     1       2.738   0.920   6.470  0.00  0.00    +0.010 A 
ATOM      3  C   UNL     1       3.895   0.426   6.968  0.00  0.00    -0.021 A 
ATOM      4  C   UNL     1       4.795   1.543   7.145  0.00  0.00    +0.003 A 
ATOM      5  C   UNL     1       6.108   1.642   7.616  0.00  0.00    +0.010 A 
ATOM      6  C   UNL     1       6.665   2.896   7.647  0.00  0.00    +0.001 A 
ATOM      7  C   UNL     1       5.969   4.021   7.234  0.00  0.00    +0.002 A 
ATOM      8  C   UNL     1       4.669   3.953   6.765  0.00  0.00    +0.026 A 
ATOM      9  C   UNL     1       4.078   2.692   6.721  0.00  0.00    +0.047 A 
ATOM     10  N   UNL     1       2.840   2.276   6.321  0.00  0.00    -0.359 N 
ATOM     11  H   UNL     1       2.139   2.854   5.983  0.00  0.00    +0.166 HD
ATOM     12  C   UNL     1       4.119  -1.037   7.256  0.00  0.00    +0.033 C 
ATOM     13  CA  UNL     1       2.751  -1.733   7.271  0.00  0.00    +0.049 C 
ATOM     14  N   UNL     1       1.990  -1.356   6.061  0.00  0.00    +0.396 N 
ATOM     15  H1  UNL     1       2.590  -1.472   5.236  0.00  0.00    -0.083 HD
ATOM     16  H2  UNL     1       1.168  -1.966   5.976  0.00  0.00    -0.083 HD
ENDROOT
BRANCH   1  20
ATOM     17  C   UNL     1      -0.110   1.232   2.387  0.00  0.00    +0.125 A 
ATOM     18  C   UNL     1       1.023   0.432   2.427  0.00  0.00    +0.046 A 
ATOM     19  C   UNL     1       1.560   0.058   3.643  0.00  0.00    +0.006 A 
ATOM     20  C   UNL     1       0.961   0.468   4.820  0.00  0.00    -0.055 A 
ATOM     21  C   UNL     1      -0.171   1.261   4.783  0.00  0.00    +0.011 A 
ATOM     22  C   UNL     1      -0.708   1.643   3.569  0.00  0.00    +0.016 A 
BRANCH  17  24
ATOM     23  C   UNL     1       0.032   1.147   0.015  0.00  0.00    +0.277 C 
ATOM     24  O   UNL     1      -0.636   1.608   1.191  0.00  0.00    -0.495 OA
ENDBRANCH  17  24
BRANCH  22  25
ATOM     25  C   UNL     1      -1.942   2.507   3.529  0.00  0.00    +0.182 C 
BRANCH  25  26
ATOM     26  N   UNL     1      -1.556   3.899   3.283  0.00  0.00    -0.265 N 
ATOM     27  C   UNL     1      -2.016   4.687   2.289  0.00  0.00    +0.141 A 
ATOM     28  C   UNL     1      -1.417   5.895   2.409  0.00  0.00    +0.163 A 
ATOM     29  C   UNL     1      -0.562   5.843   3.514  0.00  0.00    +0.167 A 
ATOM     30  N   UNL     1      -0.649   4.649   4.043  0.00  0.00    -0.177 NA
BRANCH  28  31
ATOM     31  N   UNL     1      -1.630   7.063   1.526  0.00  0.00    +0.059 N 
ATOM     32  O   UNL     1      -2.404   6.986   0.589  0.00  0.00    -0.126 OA
ATOM     33  O   UNL     1      -1.030   8.102   1.736  0.00  0.00    -0.126 OA
ENDBRANCH  28  31
ENDBRANCH  25  26
ENDBRANCH  22  25
ENDBRANCH   1  20
BRANCH  13  34
ATOM     34  C   UNL     1       1.988  -1.316   8.502  0.00  0.00    +0.343 C 
ATOM     35  O   UNL     1       2.579  -1.103   9.535  0.00  0.00    -0.248 OA
ATOM     36  OXT UNL     1       0.654  -1.181   8.452  0.00  0.00    -0.248 OA
ENDBRANCH  13  34
TORSDOF 6
