REMARK  Name = ZINC67381853
REMARK  7 active torsions:
REMARK  status: ('A' for Active; 'I' for Inactive)
REMARK    1  A    between atoms: C_1  and  C_2
REMARK    2  A    between atoms: C_2  and  C_4
REMARK    3  A    between atoms: C_2  and  N_15
REMARK    4  A    between atoms: C_8  and  S_10
REMARK    5  A    between atoms: S_10  and  N_13
REMARK    6  A    between atoms: N_13  and  C_14
REMARK    7  A    between atoms: N_18  and  C_19
REMARK                            x       y       z     vdW  Elec       q    Type
REMARK                         _______ _______ _______ _____ _____    ______ ____
ROOT
ATOM      1  N   UNL     1       0.711  -0.489   1.189  0.00  0.00    -0.293 N 
ATOM      2  C   UNL     1       0.051  -0.633   2.355  0.00  0.00    +0.301 C 
ATOM      3  O   UNL     1      -1.132  -0.361   2.423  0.00  0.00    -0.253 OA
ATOM      4  N   UNL     1       0.703  -1.080   3.447  0.00  0.00    -0.292 N 
ATOM      5  H   UNL     1       1.654  -0.707   1.135  0.00  0.00    +0.151 HD
ATOM      6  H   UNL     1       1.647  -1.298   3.394  0.00  0.00    +0.151 HD
ENDROOT
BRANCH   4   7
ATOM      7  C   UNL     1      -0.014  -1.237   4.715  0.00  0.00    +0.111 C 
ATOM      8  C   UNL     1       0.695  -2.286   5.575  0.00  0.00    +0.068 C 
ATOM      9  C   UNL     1       0.114  -2.220   6.993  0.00  0.00    +0.231 C 
ATOM     10  O   UNL     1       0.439  -0.948   7.554  0.00  0.00    -0.492 OA
ATOM     11  C   UNL     1       0.183   0.159   6.808  0.00  0.00    +0.125 A 
ATOM     12  C   UNL     1      -0.038   0.083   5.444  0.00  0.00    +0.015 A 
ATOM     13  C   UNL     1      -0.290   1.238   4.723  0.00  0.00    +0.009 A 
ATOM     14  C   UNL     1      -0.323   2.464   5.359  0.00  0.00    +0.001 A 
ATOM     15  C   UNL     1      -0.104   2.541   6.722  0.00  0.00    +0.004 A 
ATOM     16  C   UNL     1       0.146   1.395   7.445  0.00  0.00    +0.046 A 
ENDBRANCH   4   7
BRANCH   1  18
ATOM     17  C   UNL     1      -0.019   1.526   0.010  0.00  0.00    +0.033 C 
ATOM     18  C   UNL     1       0.002  -0.004   0.002  0.00  0.00    +0.102 C 
BRANCH  18  19
ATOM     19  C   UNL     1       0.707  -0.490  -1.238  0.00  0.00    -0.026 A 
ATOM     20  C   UNL     1       2.089  -0.511  -1.284  0.00  0.00    +0.005 A 
ATOM     21  C   UNL     1       2.736  -0.957  -2.421  0.00  0.00    +0.002 A 
ATOM     22  C   UNL     1       2.002  -1.382  -3.512  0.00  0.00    +0.028 A 
ATOM     23  C   UNL     1       0.620  -1.362  -3.466  0.00  0.00    +0.106 A 
ATOM     24  C   UNL     1      -0.027  -0.920  -2.327  0.00  0.00    +0.034 A 
BRANCH  23  25
ATOM     25  S   UNL     1      -0.316  -1.904  -4.857  0.00  0.00    +0.058 S 
ATOM     26  O   UNL     1      -1.586  -1.274  -4.762  0.00  0.00    -0.153 OA
ATOM     27  O   UNL     1       0.524  -1.758  -5.994  0.00  0.00    -0.153 OA
BRANCH  25  28
ATOM     28  N   UNL     1      -0.578  -3.528  -4.668  0.00  0.00    -0.193 NA
ATOM     29  C   UNL     1      -1.396  -4.014  -3.554  0.00  0.00    +0.127 C 
ATOM     30  H   UNL     1      -0.190  -4.158  -5.295  0.00  0.00    +0.148 HD
ENDBRANCH  25  28
ENDBRANCH  23  25
ENDBRANCH  18  19
ENDBRANCH   1  18
TORSDOF 5
