REMARK  Name = ZINC12474123
REMARK  11 active torsions:
REMARK  status: ('A' for Active; 'I' for Inactive)
REMARK    1  A    between atoms: C_3  and  C_6
REMARK    2  A    between atoms: C_6  and  N_7
REMARK    3  A    between atoms: N_7  and  C_8
REMARK    4  A    between atoms: C_8  and  C_10
REMARK    5  A    between atoms: C_8  and  C_17
REMARK    6  A    between atoms: C_13  and  O_16
REMARK    7  A    between atoms: N_19  and  C_20
REMARK    8  A    between atoms: C_20  and  C_21
REMARK    9  A    between atoms: C_27  and  C_29
REMARK   10  A    between atoms: C_30  and  N_37
REMARK   11  A    between atoms: C_31  and  C_34
REMARK                            x       y       z     vdW  Elec       q    Type
REMARK                         _______ _______ _______ _____ _____    ______ ____
ROOT
ATOM      1  N   UNL     1       4.006   0.466   1.423  0.00  0.00    -0.274 N 
ATOM      2  C   UNL     1       3.129   1.261   2.066  0.00  0.00    +0.258 C 
ATOM      3  O   UNL     1       2.621   0.890   3.108  0.00  0.00    -0.269 OA
ENDROOT
BRANCH   2   4
ATOM      4  C   UNL     1       2.787   2.573   1.511  0.00  0.00    +0.115 A 
ATOM      5  C   UNL     1       2.032   3.602   2.076  0.00  0.00    +0.076 A 
ATOM      6  C   UNL     1       1.912   4.719   1.251  0.00  0.00    +0.155 A 
ATOM      7  N   UNL     1       2.489   4.715   0.067  0.00  0.00    -0.203 NA
ATOM      8  S   UNL     1       3.229   3.283  -0.062  0.00  0.00    +0.019 S 
BRANCH   6   9
ATOM      9  C   UNL     1       1.145   5.895   1.700  0.00  0.00    +0.262 C 
ATOM     10  O   UNL     1       0.698   5.934   2.830  0.00  0.00    -0.269 OA
ATOM     11  N   UNL     1       0.939   6.927   0.858  0.00  0.00    -0.324 N 
ATOM     12  H   UNL     1       1.296   6.896  -0.044  0.00  0.00    +0.145 HD
ATOM     13  H   UNL     1       0.435   7.701   1.153  0.00  0.00    +0.145 HD
ENDBRANCH   6   9
BRANCH   5  14
ATOM     14  N   UNL     1       1.457   3.522   3.337  0.00  0.00    -0.355 N 
ATOM     15  H   UNL     1       1.642   2.758   3.906  0.00  0.00    +0.142 HD
ATOM     16  H   UNL     1       0.871   4.229   3.648  0.00  0.00    +0.142 HD
ENDBRANCH   5  14
ENDBRANCH   2   4
BRANCH   1  17
ATOM     17  C   UNL     1       4.551   0.874   0.126  0.00  0.00    +0.183 C 
BRANCH  17  20
ATOM     18  C   UNL     1       7.676   2.736   0.717  0.00  0.00    +0.041 A 
ATOM     19  C   UNL     1       6.963   1.522   0.584  0.00  0.00    +0.046 A 
ATOM     20  C   UNL     1       5.681   1.847   0.339  0.00  0.00    +0.122 A 
ATOM     21  O   UNL     1       5.580   3.186   0.317  0.00  0.00    -0.466 OA
ATOM     22  C   UNL     1       6.787   3.730   0.545  0.00  0.00    +0.195 A 
ENDBRANCH  17  20
ENDBRANCH   1  17
BRANCH   1  23
ATOM     23  C   UNL     1       4.415  -0.807   2.021  0.00  0.00    +0.193 C 
BRANCH  23  24
ATOM     24  C   UNL     1       3.277  -1.792   1.933  0.00  0.00    -0.018 A 
ATOM     25  C   UNL     1       2.573  -1.929   0.752  0.00  0.00    +0.009 A 
ATOM     26  C   UNL     1       1.530  -2.831   0.669  0.00  0.00    +0.046 A 
ATOM     27  C   UNL     1       1.189  -3.599   1.772  0.00  0.00    +0.117 A 
ATOM     28  C   UNL     1       1.898  -3.460   2.957  0.00  0.00    +0.046 A 
ATOM     29  C   UNL     1       2.944  -2.561   3.033  0.00  0.00    +0.009 A 
BRANCH  27  30
ATOM     30  O   UNL     1       0.163  -4.487   1.693  0.00  0.00    -0.507 OA
ATOM     31  H   UNL     1       0.429  -5.371   1.407  0.00  0.00    +0.292 HD
ENDBRANCH  27  30
ENDBRANCH  23  24
BRANCH  23  32
ATOM     32  C   UNL     1       5.608  -1.351   1.279  0.00  0.00    +0.238 C 
ATOM     33  O   UNL     1       6.157  -0.675   0.434  0.00  0.00    -0.273 OA
ATOM     34  N   UNL     1       6.067  -2.588   1.554  0.00  0.00    -0.311 N 
ATOM     35  H   UNL     1       5.628  -3.129   2.229  0.00  0.00    +0.149 HD
BRANCH  34  36
ATOM     36  C   UNL     1       7.227  -3.117   0.832  0.00  0.00    +0.135 C 
BRANCH  36  37
ATOM     37  C   UNL     1       7.538  -4.529   1.330  0.00  0.00    +0.135 C 
ATOM     38  C   UNL     1       8.830  -5.048   0.663  0.00  0.00    +0.035 C 
ATOM     39  C   UNL     1       8.487  -6.539   0.395  0.00  0.00    +0.031 C 
ATOM     40  C   UNL     1       6.971  -6.441   0.087  0.00  0.00    +0.160 C 
ATOM     41  O   UNL     1       6.474  -5.418   0.967  0.00  0.00    -0.375 OA
ENDBRANCH  36  37
ENDBRANCH  34  36
ENDBRANCH  23  32
ENDBRANCH   1  23
TORSDOF 11
