REMARK  Name = ZINC14510685
REMARK  11 active torsions:
REMARK  status: ('A' for Active; 'I' for Inactive)
REMARK    1  A    between atoms: C_1  and  C_2
REMARK    2  A    between atoms: C_2  and  C_3
REMARK    3  A    between atoms: C_3  and  C_4
REMARK    4  A    between atoms: C_4  and  N_5
REMARK    5  A    between atoms: N_5  and  C_6
REMARK    6  A    between atoms: C_7  and  N_22
REMARK    7  A    between atoms: N_8  and  C_15
REMARK    8  A    between atoms: C_15  and  C_16
REMARK    9  A    between atoms: C_23  and  C_25
REMARK   10  A    between atoms: C_25  and  C_27
REMARK   11  A    between atoms: C_25  and  N_28
REMARK                            x       y       z     vdW  Elec       q    Type
REMARK                         _______ _______ _______ _____ _____    ______ ____
ROOT
ATOM      1  N   UNL     1      -2.309   6.863  -4.135  0.00  0.00    -0.263 N 
ATOM      2  C   UNL     1      -1.997   7.996  -3.471  0.00  0.00    +0.241 C 
ATOM      3  O   UNL     1      -1.978   9.057  -4.058  0.00  0.00    -0.273 OA
ENDROOT
BRANCH   1   4
ATOM      4  C   UNL     1      -2.435   5.646  -3.432  0.00  0.00    +0.140 A 
ATOM      5  C   UNL     1      -1.321   5.011  -2.923  0.00  0.00    +0.128 A 
ATOM      6  N   UNL     1      -1.476   3.822  -2.248  0.00  0.00    -0.276 N 
ATOM      7  C   UNL     1      -2.700   3.291  -2.077  0.00  0.00    +0.331 A 
ATOM      8  O   UNL     1      -2.816   2.242  -1.472  0.00  0.00    -0.246 OA
ATOM      9  N   UNL     1      -3.797   3.898  -2.562  0.00  0.00    -0.273 N 
ATOM     10  H   UNL     1      -4.695   3.482  -2.421  0.00  0.00    +0.173 HD
ATOM     11  C   UNL     1      -3.700   5.061  -3.235  0.00  0.00    +0.277 A 
ATOM     12  O   UNL     1      -4.702   5.604  -3.671  0.00  0.00    -0.266 OA
BRANCH   5  13
ATOM     13  N   UNL     1      -0.071   5.556  -3.092  0.00  0.00    -0.343 N 
ATOM     14  H   UNL     1       0.714   5.075  -2.787  0.00  0.00    +0.144 HD
ATOM     15  H   UNL     1       0.026   6.423  -3.516  0.00  0.00    +0.144 HD
ENDBRANCH   5  13
BRANCH   6  16
ATOM     16  C   UNL     1      -0.301   3.134  -1.706  0.00  0.00    +0.163 C 
BRANCH  16  17
ATOM     17  C   UNL     1       0.243   2.181  -2.739  0.00  0.00    -0.028 A 
ATOM     18  C   UNL     1      -0.217   0.878  -2.787  0.00  0.00    +0.005 A 
ATOM     19  C   UNL     1       0.285   0.003  -3.732  0.00  0.00    +0.000 A 
ATOM     20  C   UNL     1       1.240   0.432  -4.634  0.00  0.00    +0.000 A 
ATOM     21  C   UNL     1       1.697   1.736  -4.589  0.00  0.00    +0.000 A 
ATOM     22  C   UNL     1       1.198   2.611  -3.641  0.00  0.00    +0.005 A 
ENDBRANCH  16  17
ENDBRANCH   6  16
ENDBRANCH   1   4
BRANCH   2  23
ATOM     23  C   UNL     1      -1.672   7.942  -2.000  0.00  0.00    +0.168 C 
ATOM     24  C   UNL     1      -2.968   8.007  -1.189  0.00  0.00    +0.038 C 
BRANCH  23  25
ATOM     25  N   UNL     1      -0.817   9.078  -1.647  0.00  0.00    -0.222 N 
ATOM     26  C   UNL     1      -1.163  10.369  -1.804  0.00  0.00    +0.254 C 
ATOM     27  O   UNL     1      -2.217  10.770  -2.254  0.00  0.00    -0.270 OA
ATOM     28  C   UNL     1      -0.046  11.216  -1.335  0.00  0.00    +0.049 A 
ATOM     29  C   UNL     1       0.164  12.583  -1.254  0.00  0.00    +0.014 A 
ATOM     30  C   UNL     1       1.363  13.066  -0.754  0.00  0.00    +0.001 A 
ATOM     31  C   UNL     1       2.350  12.193  -0.336  0.00  0.00    +0.001 A 
ATOM     32  C   UNL     1       2.154  10.823  -0.411  0.00  0.00    +0.014 A 
ATOM     33  C   UNL     1       0.960  10.326  -0.908  0.00  0.00    +0.049 A 
ATOM     34  C   UNL     1       0.419   8.968  -1.128  0.00  0.00    +0.254 C 
ATOM     35  O   UNL     1       0.994   7.927  -0.881  0.00  0.00    -0.270 OA
ENDBRANCH  23  25
ENDBRANCH   2  23
BRANCH   1  36
ATOM     36  C   UNL     1      -2.516   6.897  -5.584  0.00  0.00    +0.114 C 
BRANCH  36  37
ATOM     37  C   UNL     1      -3.958   7.311  -5.884  0.00  0.00    +0.019 C 
BRANCH  37  39
ATOM     38  C   UNL     1      -5.579   7.895  -7.693  0.00  0.00    +0.004 C 
ATOM     39  C   UNL     1      -4.137   7.481  -7.394  0.00  0.00    -0.002 C 
ENDBRANCH  37  39
ENDBRANCH  36  37
ENDBRANCH   1  36
TORSDOF 9
