REMARK  Name = ZINC18264407
REMARK  6 active torsions:
REMARK  status: ('A' for Active; 'I' for Inactive)
REMARK    1  A    between atoms: C_7  and  C_12
REMARK    2  A    between atoms: C_9  and  O_11
REMARK    3  A    between atoms: C_12  and  O_14
REMARK    4  A    between atoms: O_14  and  C_15
REMARK    5  A    between atoms: C_15  and  C_16
REMARK    6  A    between atoms: C_24  and  N_26
REMARK                            x       y       z     vdW  Elec       q    Type
REMARK                         _______ _______ _______ _____ _____    ______ ____
ROOT
ATOM      1  O   UNL     1      -2.789  -3.064  -1.359  0.00  0.00    -0.453 OA
ENDROOT
BRANCH   1   2
ATOM      2  C   UNL     1      -3.944  -3.736  -1.528  0.00  0.00    +0.340 C 
ATOM      3  O   UNL     1      -4.577  -4.111  -0.561  0.00  0.00    -0.245 OA
BRANCH   2  10
ATOM      4  C   UNL     1      -7.445  -6.163  -2.298  0.00  0.00    +0.001 A 
ATOM      5  C   UNL     1      -7.868  -6.395  -3.605  0.00  0.00    +0.002 A 
ATOM      6  C   UNL     1      -7.196  -5.868  -4.665  0.00  0.00    +0.028 A 
ATOM      7  C   UNL     1      -6.055  -5.076  -4.444  0.00  0.00    +0.076 A 
ATOM      8  C   UNL     1      -5.629  -4.843  -3.113  0.00  0.00    +0.015 A 
ATOM      9  C   UNL     1      -6.343  -5.400  -2.046  0.00  0.00    +0.011 A 
ATOM     10  C   UNL     1      -4.442  -4.018  -2.891  0.00  0.00    +0.073 A 
ATOM     11  C   UNL     1      -3.805  -3.505  -4.013  0.00  0.00    +0.082 A 
ATOM     12  C   UNL     1      -4.309  -3.802  -5.285  0.00  0.00    +0.214 A 
ATOM     13  N   UNL     1      -5.375  -4.545  -5.463  0.00  0.00    -0.213 NA
BRANCH  12  14
ATOM     14  O   UNL     1      -3.674  -3.298  -6.372  0.00  0.00    -0.492 OA
ATOM     15  H   UNL     1      -3.999  -2.431  -6.651  0.00  0.00    +0.294 HD
ENDBRANCH  12  14
ENDBRANCH   2  10
ENDBRANCH   1   2
BRANCH   1  16
ATOM     16  C   UNL     1      -2.361  -2.823   0.008  0.00  0.00    +0.308 C 
BRANCH  16  17
ATOM     17  C   UNL     1      -1.059  -2.064   0.000  0.00  0.00    +0.169 A 
ATOM     18  N   UNL     1      -1.098  -0.753   0.003  0.00  0.00    -0.228 NA
ATOM     19  C   UNL     1       0.037  -0.039  -0.004  0.00  0.00    +0.076 A 
ATOM     20  C   UNL     1       0.032   1.363  -0.001  0.00  0.00    +0.028 A 
ATOM     21  C   UNL     1       1.215   2.040  -0.009  0.00  0.00    +0.002 A 
ATOM     22  C   UNL     1       2.430   1.361  -0.017  0.00  0.00    +0.001 A 
ATOM     23  C   UNL     1       2.471  -0.003  -0.021  0.00  0.00    +0.013 A 
ATOM     24  C   UNL     1       1.274  -0.728  -0.014  0.00  0.00    +0.040 A 
ATOM     25  C   UNL     1       1.251  -2.144  -0.016  0.00  0.00    +0.128 A 
ATOM     26  N   UNL     1       0.072  -2.751  -0.009  0.00  0.00    -0.214 NA
BRANCH  25  27
ATOM     27  N   UNL     1       2.422  -2.871  -0.025  0.00  0.00    -0.343 N 
ATOM     28  H   UNL     1       2.391  -3.840  -0.026  0.00  0.00    +0.144 HD
ATOM     29  H   UNL     1       3.278  -2.413  -0.030  0.00  0.00    +0.144 HD
ENDBRANCH  25  27
ENDBRANCH  16  17
ENDBRANCH   1  16
TORSDOF 6
