REMARK  Name = ZINC16995094
REMARK  3 active torsions:
REMARK  status: ('A' for Active; 'I' for Inactive)
REMARK    1  A    between atoms: C_4  and  C_7
REMARK    2  A    between atoms: C_7  and  N_8
REMARK    3  A    between atoms: C_14  and  C_18
REMARK                            x       y       z     vdW  Elec       q    Type
REMARK                         _______ _______ _______ _____ _____    ______ ____
ROOT
ATOM      1  N   UNL     1       4.152  -0.952   1.338  0.00  0.00    -0.216 N 
ATOM      2  C   UNL     1       4.921  -0.035   1.962  0.00  0.00    +0.261 C 
ATOM      3  O   UNL     1       5.254   0.993   1.402  0.00  0.00    -0.269 OA
ATOM      4  C   UNL     1       5.343  -0.319   3.346  0.00  0.00    +0.119 C 
ATOM      5  C   UNL     1       6.133   0.570   4.059  0.00  0.00    +0.038 C 
ATOM      6  C   UNL     1       6.630   0.381   5.481  0.00  0.00    +0.077 C 
ATOM      7  C   UNL     1       7.102   1.807   5.856  0.00  0.00    +0.108 C 
ATOM      8  N   UNL     1       7.376   2.396   4.525  0.00  0.00    -0.235 NA
ATOM      9  N   UNL     1       6.598   1.749   3.611  0.00  0.00    -0.283 N 
ATOM     10  C   UNL     1       4.889  -1.585   3.936  0.00  0.00    +0.278 C 
ATOM     11  O   UNL     1       5.231  -1.921   5.197  0.00  0.00    -0.268 OA
ATOM     12  N   UNL     1       4.137  -2.389   3.202  0.00  0.00    -0.123 NA
ATOM     13  C   UNL     1       3.780  -2.082   1.958  0.00  0.00    +0.336 C 
ATOM     14  O   UNL     1       3.082  -2.872   1.347  0.00  0.00    -0.250 OA
ATOM     15  H   UNL     1       7.191   3.388   4.524  0.00  0.00    +0.145 HD
ATOM     16  H   UNL     1       6.398   2.104   2.731  0.00  0.00    +0.166 HD
ENDROOT
BRANCH   7  17
ATOM     17  C   UNL     1       8.355   1.757   6.692  0.00  0.00    -0.029 A 
ATOM     18  C   UNL     1       9.584   1.573   6.087  0.00  0.00    +0.005 A 
ATOM     19  C   UNL     1      10.733   1.528   6.854  0.00  0.00    +0.000 A 
ATOM     20  C   UNL     1      10.653   1.667   8.227  0.00  0.00    +0.000 A 
ATOM     21  C   UNL     1       9.424   1.852   8.833  0.00  0.00    +0.000 A 
ATOM     22  C   UNL     1       8.275   1.901   8.065  0.00  0.00    +0.005 A 
ENDBRANCH   7  17
BRANCH   1  23
ATOM     23  C   UNL     1       3.711  -0.707  -0.038  0.00  0.00    +0.153 C 
BRANCH  23  27
ATOM     24  C   UNL     1      -0.017   1.378   0.010  0.00  0.00    +0.000 A 
ATOM     25  C   UNL     1       1.171   2.086   0.002  0.00  0.00    +0.000 A 
ATOM     26  C   UNL     1       2.377   1.411  -0.013  0.00  0.00    +0.005 A 
ATOM     27  C   UNL     1       2.396   0.029  -0.020  0.00  0.00    -0.030 A 
ATOM     28  C   UNL     1       1.208  -0.679  -0.012  0.00  0.00    +0.005 A 
ATOM     29  C   UNL     1       0.002  -0.004   0.002  0.00  0.00    +0.000 A 
ENDBRANCH  23  27
ENDBRANCH   1  23
TORSDOF 3
