REMARK  Name = ZINC67252952
REMARK  7 active torsions:
REMARK  status: ('A' for Active; 'I' for Inactive)
REMARK    1  A    between atoms: C_1  and  C_2
REMARK    2  A    between atoms: C_5  and  N_9
REMARK    3  A    between atoms: C_10  and  C_12
REMARK    4  A    between atoms: C_12  and  C_13
REMARK    5  A    between atoms: C_13  and  N_14
REMARK    6  A    between atoms: N_17  and  C_18
REMARK    7  A    between atoms: C_23  and  C_24
REMARK                            x       y       z     vdW  Elec       q    Type
REMARK                         _______ _______ _______ _____ _____    ______ ____
ROOT
ATOM      1  C   UNL     1      -0.249  -6.846  -2.632  0.00  0.00    +0.115 C 
ENDROOT
BRANCH   1   2
ATOM      2  N   UNL     1      -0.338  -8.308  -2.633  0.00  0.00    -0.299 N 
ATOM      3  C   UNL     1      -0.432  -8.977  -3.799  0.00  0.00    +0.304 C 
ATOM      4  O   UNL     1      -0.443  -8.366  -4.851  0.00  0.00    -0.253 OA
ATOM      5  N   UNL     1      -0.513 -10.322  -3.800  0.00  0.00    -0.269 N 
ATOM      6  H   UNL     1      -0.328  -8.795  -1.794  0.00  0.00    +0.150 HD
ATOM      7  H   UNL     1      -0.573 -10.805  -2.961  0.00  0.00    +0.156 HD
BRANCH   5   8
ATOM      8  C   UNL     1      -0.510 -11.022  -5.012  0.00  0.00    +0.039 A 
ATOM      9  C   UNL     1      -1.124 -10.477  -6.132  0.00  0.00    +0.043 A 
ATOM     10  C   UNL     1      -1.119 -11.171  -7.327  0.00  0.00    +0.043 A 
ATOM     11  C   UNL     1      -0.503 -12.408  -7.408  0.00  0.00    +0.020 A 
ATOM     12  C   UNL     1       0.109 -12.953  -6.294  0.00  0.00    +0.006 A 
ATOM     13  C   UNL     1       0.111 -12.261  -5.098  0.00  0.00    -0.029 A 
ATOM     14  C   UNL     1       0.784 -12.853  -3.886  0.00  0.00    +0.045 C 
ATOM     15 CL   UNL     1      -1.887 -10.492  -8.728  0.00  0.00    -0.083 Cl
ENDBRANCH   5   8
ENDBRANCH   1   2
BRANCH   1  16
ATOM     16  C   UNL     1      -0.152  -6.342  -1.191  0.00  0.00    +0.115 C 
BRANCH  16  18
ATOM     17  N   UNL     1       0.033  -4.169  -0.023  0.00  0.00    -0.284 N 
ATOM     18  C   UNL     1      -0.061  -4.838  -1.190  0.00  0.00    +0.219 C 
ATOM     19  O   UNL     1      -0.073  -4.229  -2.238  0.00  0.00    -0.275 OA
ATOM     20  H   UNL     1       0.123  -4.657   0.810  0.00  0.00    +0.155 HD
BRANCH  17  25
ATOM     21  C   UNL     1      -0.103   1.504   0.014  0.00  0.00    +0.044 C 
ATOM     22  C   UNL     1      -0.067  -0.003   0.005  0.00  0.00    -0.049 A 
ATOM     23  C   UNL     1      -0.652  -0.701  -1.036  0.00  0.00    +0.005 A 
ATOM     24  C   UNL     1      -0.621  -2.081  -1.048  0.00  0.00    +0.025 A 
ATOM     25  C   UNL     1      -0.000  -2.769  -0.014  0.00  0.00    +0.052 A 
ATOM     26  C   UNL     1       0.588  -2.066   1.030  0.00  0.00    +0.062 A 
ATOM     27  C   UNL     1       0.558  -0.684   1.033  0.00  0.00    +0.025 A 
ATOM     28 CL   UNL     1       1.366  -2.921   2.325  0.00  0.00    -0.082 Cl
ENDBRANCH  17  25
ENDBRANCH  16  18
ENDBRANCH   1  16
TORSDOF 5
