REMARK  Name = ZINC04554970
REMARK  6 active torsions:
REMARK  status: ('A' for Active; 'I' for Inactive)
REMARK    1  A    between atoms: C_1  and  N_2
REMARK    2  A    between atoms: C_9  and  C_12
REMARK    3  A    between atoms: C_9  and  O_24
REMARK    4  A    between atoms: C_12  and  C_13
REMARK    5  A    between atoms: C_13  and  C_15
REMARK    6  A    between atoms: C_19  and  N_21
REMARK                            x       y       z     vdW  Elec       q    Type
REMARK                         _______ _______ _______ _____ _____    ______ ____
ROOT
ATOM      1  C   UNL     1      -2.479   1.480   0.020  0.00  0.00    +0.138 C 
ATOM      2  N   UNL     1      -1.106   1.992   0.017  0.00  0.00    -0.271 N 
ATOM      3  C   UNL     1      -0.782   3.350   0.028  0.00  0.00    +0.042 A 
ATOM      4  C   UNL     1      -1.596   4.480   0.042  0.00  0.00    +0.025 A 
ATOM      5  C   UNL     1      -1.033   5.740   0.044  0.00  0.00    +0.017 A 
ATOM      6  C   UNL     1       0.342   5.891   0.031  0.00  0.00    +0.018 A 
ATOM      7  C   UNL     1       1.157   4.772   0.017  0.00  0.00    +0.024 A 
ATOM      8  C   UNL     1       0.597   3.514   0.015  0.00  0.00    +0.016 A 
ATOM      9  C   UNL     1       1.191   2.124   0.002  0.00  0.00    +0.175 C 
ATOM     10  C   UNL     1      -0.014   1.209   0.009  0.00  0.00    +0.256 C 
ATOM     11  O   UNL     1       0.002  -0.004   0.002  0.00  0.00    -0.272 OA
ATOM     12 BR   UNL     1       1.106   7.621   0.034  0.00  0.00    -0.050 Br
ENDROOT
BRANCH   9  13
ATOM     13  O   UNL     1       1.989   1.910   1.168  0.00  0.00    -0.374 OA
ATOM     14  H   UNL     1       2.346   1.014   1.241  0.00  0.00    +0.211 HD
ENDBRANCH   9  13
BRANCH   9  15
ATOM     15  C   UNL     1       2.023   1.906  -1.263  0.00  0.00    +0.129 C 
BRANCH  15  16
ATOM     16  C   UNL     1       2.422   0.456  -1.358  0.00  0.00    +0.167 C 
ATOM     17  O   UNL     1       2.075  -0.326  -0.498  0.00  0.00    -0.292 OA
BRANCH  16  18
ATOM     18  C   UNL     1       3.233  -0.012  -2.494  0.00  0.00    +0.020 A 
ATOM     19  C   UNL     1       3.630   0.886  -3.490  0.00  0.00    +0.011 A 
ATOM     20  C   UNL     1       4.393   0.441  -4.549  0.00  0.00    +0.003 A 
ATOM     21  C   UNL     1       4.758  -0.892  -4.632  0.00  0.00    +0.033 A 
ATOM     22  C   UNL     1       4.364  -1.787  -3.653  0.00  0.00    +0.127 A 
ATOM     23  C   UNL     1       3.605  -1.357  -2.585  0.00  0.00    +0.044 A 
BRANCH  22  24
ATOM     24  N   UNL     1       4.759  -3.210  -3.752  0.00  0.00    +0.056 N 
ATOM     25  O   UNL     1       4.413  -3.999  -2.891  0.00  0.00    -0.126 OA
ATOM     26  O   UNL     1       5.429  -3.592  -4.694  0.00  0.00    -0.126 OA
ENDBRANCH  22  24
ENDBRANCH  16  18
ENDBRANCH  15  16
ENDBRANCH   9  15
TORSDOF 5
