REMARK  Name = ZINC54095520
REMARK  8 active torsions:
REMARK  status: ('A' for Active; 'I' for Inactive)
REMARK    1  A    between atoms: C_1  and  C_2
REMARK    2  A    between atoms: C_5  and  O_8
REMARK    3  A    between atoms: O_8  and  C_9
REMARK    4  A    between atoms: C_9  and  C_10
REMARK    5  A    between atoms: C_10  and  N_11
REMARK    6  A    between atoms: N_11  and  C_12
REMARK    7  A    between atoms: N_15  and  N_16
REMARK    8  A    between atoms: C_17  and  C_19
REMARK                            x       y       z     vdW  Elec       q    Type
REMARK                         _______ _______ _______ _____ _____    ______ ____
ROOT
ATOM      1  N   UNL     1       1.405  -6.697   0.272  0.00  0.00    -0.284 N 
ATOM      2  C   UNL     1       2.722  -7.062   0.799  0.00  0.00    +0.133 C 
ATOM      3  C   UNL     1       1.198  -6.661  -1.060  0.00  0.00    +0.318 C 
ATOM      4  O   UNL     1       0.135  -6.267  -1.500  0.00  0.00    -0.251 OA
ATOM      5  N   UNL     1       2.170  -7.062  -1.904  0.00  0.00    -0.218 N 
ATOM      6  H   UNL     1       2.988  -7.447  -1.553  0.00  0.00    +0.174 HD
ENDROOT
BRANCH   5   7
ATOM      7  N   UNL     1       1.997  -6.923  -3.287  0.00  0.00    -0.228 N 
ATOM      8  C   UNL     1       3.006  -7.230  -4.126  0.00  0.00    +0.276 C 
ATOM      9  O   UNL     1       4.067  -7.627  -3.682  0.00  0.00    -0.267 OA
ATOM     10  H   UNL     1       1.151  -6.607  -3.641  0.00  0.00    +0.173 HD
BRANCH   8  11
ATOM     11  C   UNL     1       2.825  -7.085  -5.574  0.00  0.00    +0.104 A 
ATOM     12  C   UNL     1       3.764  -7.365  -6.545  0.00  0.00    +0.047 A 
ATOM     13  C   UNL     1       3.172  -7.086  -7.782  0.00  0.00    +0.036 A 
ATOM     14  C   UNL     1       1.911  -6.650  -7.550  0.00  0.00    +0.098 A 
ATOM     15  N   UNL     1       1.686  -6.649  -6.213  0.00  0.00    -0.356 N 
ATOM     16  H   UNL     1       0.860  -6.385  -5.778  0.00  0.00    +0.166 HD
ATOM     17 BR   UNL     1       3.989  -7.282  -9.476  0.00  0.00    -0.049 Br
ENDBRANCH   8  11
ENDBRANCH   5   7
BRANCH   1  18
ATOM     18  C   UNL     1       0.312  -6.372   1.191  0.00  0.00    +0.150 C 
BRANCH  18  19
ATOM     19  C   UNL     1       0.326  -4.871   1.488  0.00  0.00    +0.248 C 
BRANCH  19  20
ATOM     20  O   UNL     1       0.040  -4.146   0.290  0.00  0.00    -0.490 OA
BRANCH  20  25
ATOM     21  C   UNL     1      -0.071   1.473   0.668  0.00  0.00    +0.044 C 
ATOM     22  C   UNL     1      -0.041  -0.030   0.567  0.00  0.00    -0.050 A 
ATOM     23  C   UNL     1      -0.284  -0.645  -0.647  0.00  0.00    +0.007 A 
ATOM     24  C   UNL     1      -0.257  -2.023  -0.743  0.00  0.00    +0.046 A 
ATOM     25  C   UNL     1       0.014  -2.790   0.381  0.00  0.00    +0.121 A 
ATOM     26  C   UNL     1       0.257  -2.170   1.599  0.00  0.00    +0.046 A 
ATOM     27  C   UNL     1       0.235  -0.792   1.687  0.00  0.00    +0.007 A 
ENDBRANCH  20  25
ENDBRANCH  19  20
ENDBRANCH  18  19
ENDBRANCH   1  18
TORSDOF 6
