REMARK  Name = ZINC41224172
REMARK  10 active torsions:
REMARK  status: ('A' for Active; 'I' for Inactive)
REMARK    1  A    between atoms: C_1  and  O_2
REMARK    2  A    between atoms: O_2  and  C_3
REMARK    3  A    between atoms: C_5  and  C_21
REMARK    4  A    between atoms: C_8  and  O_9
REMARK    5  A    between atoms: O_9  and  C_10
REMARK    6  A    between atoms: C_10  and  C_11
REMARK    7  A    between atoms: N_13  and  C_14
REMARK    8  A    between atoms: N_22  and  N_23
REMARK    9  A    between atoms: N_23  and  C_24
REMARK   10  A    between atoms: C_24  and  N_25
REMARK                            x       y       z     vdW  Elec       q    Type
REMARK                         _______ _______ _______ _____ _____    ______ ____
ROOT
ATOM      1  C   UNL     1      -1.202  -0.638   0.017  0.00  0.00    +0.162 A 
ATOM      2  C   UNL     1      -2.371   0.099   0.033  0.00  0.00    +0.059 A 
ATOM      3  C   UNL     1      -3.605  -0.556   0.051  0.00  0.00    -0.002 A 
ATOM      4  C   UNL     1      -3.651  -1.952   0.053  0.00  0.00    +0.013 A 
ATOM      5  C   UNL     1      -2.481  -2.681   0.036  0.00  0.00    +0.050 A 
ATOM      6  C   UNL     1      -1.255  -2.030   0.013  0.00  0.00    +0.163 A 
ENDROOT
BRANCH   1   8
ATOM      7  C   UNL     1      -0.018   1.425   0.004  0.00  0.00    +0.277 C 
ATOM      8  O   UNL     1       0.001  -0.004  -0.001  0.00  0.00    -0.491 OA
ENDBRANCH   1   8
BRANCH   3   9
ATOM      9  C   UNL     1      -4.856   0.225   0.069  0.00  0.00    +0.138 C 
ATOM     10  N   UNL     1      -6.001  -0.385   0.086  0.00  0.00    -0.188 NA
BRANCH  10  11
ATOM     11  N   UNL     1      -7.190   0.357   0.103  0.00  0.00    -0.219 N 
ATOM     12  H   UNL     1      -7.156   1.326   0.102  0.00  0.00    +0.176 HD
BRANCH  11  13
ATOM     13  C   UNL     1      -8.379  -0.276   0.120  0.00  0.00    +0.147 C 
ATOM     14  S   UNL     1      -9.831   0.630   0.141  0.00  0.00    -0.017 S 
BRANCH  13  15
ATOM     15  N   UNL     1      -8.426  -1.623   0.121  0.00  0.00    -0.339 N 
ATOM     16  H   UNL     1      -7.603  -2.137   0.109  0.00  0.00    +0.144 HD
ATOM     17  H   UNL     1      -9.282  -2.079   0.134  0.00  0.00    +0.144 HD
ENDBRANCH  13  15
ENDBRANCH  11  13
ENDBRANCH  10  11
ENDBRANCH   3   9
BRANCH   6  18
ATOM     18  O   UNL     1      -0.104  -2.753  -0.008  0.00  0.00    -0.479 OA
BRANCH  18  19
ATOM     19  C   UNL     1      -0.232  -4.176  -0.011  0.00  0.00    +0.325 C 
BRANCH  19  20
ATOM     20  C   UNL     1       1.138  -4.804  -0.035  0.00  0.00    +0.255 C 
ATOM     21  O   UNL     1       2.127  -4.101  -0.049  0.00  0.00    -0.272 OA
ATOM     22  N   UNL     1       1.265  -6.145  -0.042  0.00  0.00    -0.283 N 
ATOM     23  H   UNL     1       0.478  -6.707   0.037  0.00  0.00    +0.155 HD
BRANCH  22  24
ATOM     24  C   UNL     1       2.531  -6.728  -0.162  0.00  0.00    +0.035 A 
ATOM     25  C   UNL     1       2.688  -7.912  -0.872  0.00  0.00    +0.023 A 
ATOM     26  C   UNL     1       3.940  -8.484  -0.989  0.00  0.00    +0.003 A 
ATOM     27  C   UNL     1       5.036  -7.881  -0.402  0.00  0.00    +0.020 A 
ATOM     28  C   UNL     1       4.884  -6.701   0.306  0.00  0.00    +0.043 A 
ATOM     29  C   UNL     1       3.635  -6.120   0.422  0.00  0.00    +0.043 A 
ATOM     30 CL   UNL     1       6.263  -5.947   1.042  0.00  0.00    -0.083 Cl
ENDBRANCH  22  24
ENDBRANCH  19  20
ENDBRANCH  18  19
ENDBRANCH   6  18
TORSDOF 9
