REMARK  Name = ZINC09915832
REMARK  14 active torsions:
REMARK  status: ('A' for Active; 'I' for Inactive)
REMARK    1  A    between atoms: C_1  and  C_2
REMARK    2  A    between atoms: N_4  and  C_5
REMARK    3  A    between atoms: C_5  and  C_29
REMARK    4  A    between atoms: C_6  and  C_27
REMARK    5  A    between atoms: C_6  and  O_28
REMARK    6  A    between atoms: C_7  and  C_25
REMARK    7  A    between atoms: C_7  and  O_26
REMARK    8  A    between atoms: C_8  and  C_22
REMARK    9  A    between atoms: C_8  and  C_23
REMARK   10  A    between atoms: C_10  and  C_11
REMARK   11  A    between atoms: C_10  and  O_12
REMARK   12  A    between atoms: O_12  and  C_13
REMARK   13  A    between atoms: C_18  and  N_19
REMARK   14  A    between atoms: C_23  and  O_24
REMARK                            x       y       z     vdW  Elec       q    Type
REMARK                         _______ _______ _______ _____ _____    ______ ____
ROOT
ATOM      1  C   UNL     1       6.061   2.078   0.399  0.00  0.00    +0.128 C 
ATOM      2  C   UNL     1       7.084   1.234   1.140  0.00  0.00    +0.121 C 
ATOM      3  C   UNL     1       6.510   0.339   2.224  0.00  0.00    +0.124 C 
ATOM      4  C   UNL     1       5.224  -0.366   1.805  0.00  0.00    +0.125 C 
ATOM      5  O   UNL     1       4.340   0.488   1.115  0.00  0.00    -0.326 OA
ATOM      6  C   UNL     1       4.772   1.334   0.077  0.00  0.00    +0.234 C 
ATOM      7  C   UNL     1       4.922   0.581  -1.250  0.00  0.00    +0.091 C 
ATOM      8  C   UNL     1       5.558  -1.623   0.996  0.00  0.00    +0.047 C 
ATOM      9  C   UNL     1       6.265   1.129   3.515  0.00  0.00    +0.047 C 
ATOM     10  C   UNL     1       8.112   2.184   1.791  0.00  0.00    +0.047 C 
ATOM     11  C   UNL     1       5.733   3.352   1.189  0.00  0.00    +0.041 C 
ENDROOT
BRANCH   1  15
ATOM     12  C   UNL     1       6.600   3.757  -3.015  0.00  0.00    +0.109 C 
ATOM     13  C   UNL     1       5.984   3.323  -1.710  0.00  0.00    +0.211 C 
ATOM     14  O   UNL     1       4.876   3.709  -1.404  0.00  0.00    -0.276 OA
ATOM     15  N   UNL     1       6.665   2.505  -0.883  0.00  0.00    -0.302 N 
ATOM     16  H   UNL     1       7.552   2.196  -1.128  0.00  0.00    +0.150 HD
ENDBRANCH   1  15
BRANCH   3  17
ATOM     17  O   UNL     1       7.488  -0.679   2.526  0.00  0.00    -0.383 OA
ATOM     18  H   UNL     1       7.226  -1.278   3.238  0.00  0.00    +0.210 HD
ENDBRANCH   3  17
BRANCH   2  19
ATOM     19  O   UNL     1       7.802   0.425   0.191  0.00  0.00    -0.384 OA
ATOM     20  H   UNL     1       8.538  -0.071   0.575  0.00  0.00    +0.210 HD
ENDBRANCH   2  19
BRANCH   6  21
ATOM     21  O   UNL     1       3.742   2.332  -0.128  0.00  0.00    -0.457 OA
BRANCH  21  22
ATOM     22  C   UNL     1       2.480   1.880  -0.350  0.00  0.00    +0.154 A 
ATOM     23  C   UNL     1       2.217   0.518  -0.334  0.00  0.00    +0.048 A 
ATOM     24  C   UNL     1       0.933   0.061  -0.560  0.00  0.00    +0.004 A 
ATOM     25  C   UNL     1      -0.090   0.960  -0.802  0.00  0.00    +0.002 A 
ATOM     26  C   UNL     1       0.170   2.318  -0.819  0.00  0.00    +0.036 A 
ATOM     27  C   UNL     1       1.453   2.780  -0.593  0.00  0.00    +0.168 A 
BRANCH  27  28
ATOM     28  N   UNL     1       1.730   4.234  -0.612  0.00  0.00    +0.060 N 
ATOM     29  O   UNL     1       0.828   5.023  -0.826  0.00  0.00    -0.126 OA
ATOM     30  O   UNL     1       2.861   4.640  -0.413  0.00  0.00    -0.126 OA
ENDBRANCH  27  28
ENDBRANCH  21  22
ENDBRANCH   6  21
BRANCH   4  31
ATOM     31  C   UNL     1       4.514  -0.835   3.097  0.00  0.00    +0.193 C 
BRANCH  31  32
ATOM     32  O   UNL     1       3.378  -1.632   2.754  0.00  0.00    -0.392 OA
ATOM     33  H   UNL     1       2.884  -1.961   3.517  0.00  0.00    +0.210 HD
ENDBRANCH  31  32
ENDBRANCH   4  31
TORSDOF 8
