REMARK  Name = ZINC39695641
REMARK  7 active torsions:
REMARK  status: ('A' for Active; 'I' for Inactive)
REMARK    1  A    between atoms: C_1  and  C_2
REMARK    2  A    between atoms: C_2  and  N_3
REMARK    3  A    between atoms: C_7  and  C_9
REMARK    4  A    between atoms: C_9  and  N_10
REMARK    5  A    between atoms: C_11  and  C_13
REMARK    6  A    between atoms: C_24  and  C_26
REMARK    7  A    between atoms: C_29  and  C_31
REMARK                            x       y       z     vdW  Elec       q    Type
REMARK                         _______ _______ _______ _____ _____    ______ ____
ROOT
ATOM      1  C   UNL     1       5.356  -1.458   0.466  0.00  0.00    +0.100 C 
ATOM      2  C   UNL     1       5.331   0.072   0.256  0.00  0.00    +0.121 C 
ATOM      3  N   UNL     1       6.744   0.494   0.408  0.00  0.00    -0.294 N 
ATOM      4  C   UNL     1       7.522  -0.576  -0.259  0.00  0.00    +0.115 C 
ATOM      5  C   UNL     1       6.796  -1.880   0.126  0.00  0.00    -0.004 C 
ATOM      6  C   UNL     1       6.798  -2.852  -1.050  0.00  0.00    -0.010 C 
ATOM      7  C   UNL     1       8.234  -3.303  -1.331  0.00  0.00    -0.082 C 
ATOM      8  N   UNL     1       8.790  -3.948  -0.136  0.00  0.00    +0.379 N 
ATOM      9  C   UNL     1       8.871  -2.979   0.964  0.00  0.00    -0.082 C 
ATOM     10  C   UNL     1       7.462  -2.516   1.343  0.00  0.00    -0.010 C 
ATOM     11  C   UNL     1       7.214   1.601   1.016  0.00  0.00    +0.282 C 
ATOM     12  O   UNL     1       8.403   1.858   0.978  0.00  0.00    -0.267 OA
ATOM     13  H   UNL     1       8.196  -4.716   0.137  0.00  0.00    -0.086 HD
ATOM     14  H   UNL     1       9.714  -4.298  -0.343  0.00  0.00    -0.086 HD
ENDROOT
BRANCH  11  15
ATOM     15  C   UNL     1       6.293   2.496   1.723  0.00  0.00    +0.190 A 
ATOM     16  C   UNL     1       6.621   3.705   2.296  0.00  0.00    +0.055 A 
ATOM     17  C   UNL     1       5.447   4.217   2.858  0.00  0.00    +0.050 A 
ATOM     18  C   UNL     1       4.456   3.311   2.610  0.00  0.00    +0.136 A 
ATOM     19  O   UNL     1       4.976   2.282   1.921  0.00  0.00    -0.450 OA
BRANCH  18  20
ATOM     20  C   UNL     1       3.044   3.444   3.025  0.00  0.00    +0.017 A 
ATOM     21  C   UNL     1       2.601   4.619   3.636  0.00  0.00    +0.011 A 
ATOM     22  C   UNL     1       1.281   4.737   4.021  0.00  0.00    +0.001 A 
ATOM     23  C   UNL     1       0.398   3.694   3.803  0.00  0.00    +0.000 A 
ATOM     24  C   UNL     1       0.831   2.527   3.199  0.00  0.00    +0.001 A 
ATOM     25  C   UNL     1       2.147   2.398   2.803  0.00  0.00    +0.011 A 
ENDBRANCH  18  20
ENDBRANCH  11  15
BRANCH   1  27
ATOM     26  N   UNL     1       3.785  -3.284  -0.094  0.00  0.00    -0.317 N 
ATOM     27  C   UNL     1       4.379  -2.132  -0.462  0.00  0.00    +0.218 C 
ATOM     28  O   UNL     1       4.128  -1.637  -1.541  0.00  0.00    -0.275 OA
ATOM     29  H   UNL     1       3.930  -3.642   0.795  0.00  0.00    +0.149 HD
BRANCH  26  30
ATOM     30  C   UNL     1       2.919  -3.996  -1.038  0.00  0.00    +0.089 C 
BRANCH  30  35
ATOM     31  N   UNL     1       1.788  -5.075   0.861  0.00  0.00    +0.382 N 
ATOM     32  C   UNL     1       0.412  -5.609   0.769  0.00  0.00    -0.078 C 
ATOM     33  C   UNL     1       0.092  -5.620  -0.747  0.00  0.00    -0.020 C 
ATOM     34  C   UNL     1       1.462  -6.022  -1.353  0.00  0.00    -0.016 C 
ATOM     35  C   UNL     1       2.474  -5.323  -0.421  0.00  0.00    -0.051 C 
ATOM     36  H   UNL     1       1.753  -4.082   1.041  0.00  0.00    -0.081 HD
BRANCH  31  38
ATOM     37  C   UNL     1       1.880  -5.374   3.289  0.00  0.00    -0.017 C 
ATOM     38  C   UNL     1       2.509  -5.751   1.947  0.00  0.00    -0.082 C 
ENDBRANCH  31  38
ENDBRANCH  30  35
ENDBRANCH  26  30
ENDBRANCH   1  27
TORSDOF 6
