REMARK  Name = ZINC35763472
REMARK  4 active torsions:
REMARK  status: ('A' for Active; 'I' for Inactive)
REMARK    1  A    between atoms: C_5  and  S_8
REMARK    2  A    between atoms: C_6  and  N_7
REMARK    3  A    between atoms: S_8  and  N_11
REMARK    4  A    between atoms: N_11  and  C_12
REMARK                            x       y       z     vdW  Elec       q    Type
REMARK                         _______ _______ _______ _____ _____    ______ ____
ROOT
ATOM      1  C   UNL     1       0.051   1.371   0.418  0.00  0.00    +0.040 A 
ATOM      2  C   UNL     1       1.274   2.016   0.435  0.00  0.00    +0.021 A 
ATOM      3  C   UNL     1       2.413   1.355   0.013  0.00  0.00    +0.032 A 
ATOM      4  C   UNL     1       2.333   0.045  -0.428  0.00  0.00    +0.047 A 
ATOM      5  C   UNL     1       1.114  -0.605  -0.448  0.00  0.00    +0.143 A 
ATOM      6  C   UNL     1      -0.032   0.057  -0.025  0.00  0.00    +0.054 A 
ATOM      7 BR   UNL     1       3.893  -0.854  -1.005  0.00  0.00    -0.048 Br
ATOM      8 BR   UNL     1       1.388   3.805   1.037  0.00  0.00    -0.050 Br
ENDROOT
BRANCH   6   9
ATOM      9  N   UNL     1      -1.266  -0.598  -0.043  0.00  0.00    -0.356 N 
ATOM     10  H   UNL     1      -2.084  -0.088  -0.146  0.00  0.00    +0.142 HD
ATOM     11  H   UNL     1      -1.304  -1.563   0.046  0.00  0.00    +0.142 HD
ENDBRANCH   6   9
BRANCH   5  12
ATOM     12  S   UNL     1       1.013  -2.272  -1.010  0.00  0.00    +0.075 S 
ATOM     13  O   UNL     1      -0.358  -2.525  -1.286  0.00  0.00    -0.150 OA
ATOM     14  O   UNL     1       2.029  -2.432  -1.990  0.00  0.00    -0.150 OA
BRANCH  12  15
ATOM     15  N   UNL     1       1.427  -3.245   0.264  0.00  0.00    -0.213 N 
ATOM     16  H   UNL     1       2.229  -3.788   0.219  0.00  0.00    +0.174 HD
BRANCH  15  17
ATOM     17  C   UNL     1       0.615  -3.283   1.414  0.00  0.00    +0.085 A 
ATOM     18  C   UNL     1       1.047  -3.232   2.699  0.00  0.00    +0.129 A 
ATOM     19  N   UNL     1      -0.049  -3.295   3.502  0.00  0.00    -0.283 N 
ATOM     20  H   UNL     1      -0.047  -3.279   4.472  0.00  0.00    +0.188 HD
ATOM     21  N   UNL     1      -1.179  -3.386   2.681  0.00  0.00    -0.180 NA
ATOM     22  C   UNL     1      -0.784  -3.374   1.433  0.00  0.00    +0.158 A 
ENDBRANCH  15  17
ENDBRANCH  12  15
ENDBRANCH   5  12
TORSDOF 4
