REMARK  Name = ZINC08458596
REMARK  6 active torsions:
REMARK  status: ('A' for Active; 'I' for Inactive)
REMARK    1  A    between atoms: C_1  and  C_2
REMARK    2  A    between atoms: C_3  and  C_22
REMARK    3  A    between atoms: C_11  and  C_13
REMARK    4  A    between atoms: C_13  and  O_14
REMARK    5  A    between atoms: O_14  and  C_15
REMARK    6  A    between atoms: C_15  and  C_17
REMARK                            x       y       z     vdW  Elec       q    Type
REMARK                         _______ _______ _______ _____ _____    ______ ____
ROOT
ATOM      1  C   UNL     1      -0.018   1.503   0.010  0.00  0.00    +0.045 C 
ATOM      2  C   UNL     1       0.002  -0.004   0.002  0.00  0.00    -0.026 A 
ATOM      3  C   UNL     1       0.006  -0.677  -1.160  0.00  0.00    -0.008 A 
ATOM      4  S   UNL     1       0.032  -2.385  -0.648  0.00  0.00    -0.073 S 
ATOM      5  C   UNL     1       0.037  -2.144   1.110  0.00  0.00    +0.116 A 
ATOM      6  C   UNL     1       0.024  -0.745   1.250  0.00  0.00    +0.075 A 
ATOM      7  C   UNL     1       0.029  -0.257   2.597  0.00  0.00    +0.260 A 
ATOM      8  O   UNL     1       0.014   0.942   2.821  0.00  0.00    -0.267 OA
ATOM      9  N   UNL     1       0.051  -1.142   3.611  0.00  0.00    -0.308 N 
ATOM     10  H   UNL     1       0.054  -0.817   4.525  0.00  0.00    +0.170 HD
ATOM     11  C   UNL     1       0.067  -2.480   3.380  0.00  0.00    +0.149 A 
ATOM     12  N   UNL     1       0.053  -2.956   2.163  0.00  0.00    -0.223 NA
ATOM     13  C   UNL     1      -0.009  -0.122  -2.561  0.00  0.00    +0.052 C 
ENDROOT
BRANCH  11  14
ATOM     14  C   UNL     1       0.090  -3.432   4.547  0.00  0.00    +0.306 C 
BRANCH  14  15
ATOM     15  O   UNL     1       0.104  -4.777   4.065  0.00  0.00    -0.453 OA
BRANCH  15  16
ATOM     16  C   UNL     1       0.125  -5.759   4.989  0.00  0.00    +0.346 C 
ATOM     17  O   UNL     1       0.132  -5.480   6.173  0.00  0.00    -0.244 OA
BRANCH  16  18
ATOM     18  C   UNL     1       0.141  -7.161   4.568  0.00  0.00    +0.096 A 
ATOM     19  C   UNL     1       0.158  -8.309   5.347  0.00  0.00    +0.022 A 
ATOM     20  C   UNL     1       0.169  -9.497   4.659  0.00  0.00    +0.008 A 
ATOM     21  C   UNL     1       0.164  -9.474   3.303  0.00  0.00    +0.046 A 
ATOM     22  S   UNL     1       0.135  -7.839   2.919  0.00  0.00    -0.090 S 
ENDBRANCH  16  18
ENDBRANCH  15  16
ENDBRANCH  14  15
ENDBRANCH  11  14
TORSDOF 4
