REMARK  Name = ZINC26490099
REMARK  4 active torsions:
REMARK  status: ('A' for Active; 'I' for Inactive)
REMARK    1  A    between atoms: C_6  and  C_7
REMARK    2  A    between atoms: C_10  and  S_13
REMARK    3  A    between atoms: S_13  and  C_14
REMARK    4  A    between atoms: C_14  and  C_15
REMARK                            x       y       z     vdW  Elec       q    Type
REMARK                         _______ _______ _______ _____ _____    ______ ____
ROOT
ATOM      1  S   UNL     1      -1.851   2.335   1.730  0.00  0.00    -0.079 S 
ENDROOT
BRANCH   1   5
ATOM      2  C   UNL     1      -5.264   4.238   1.726  0.00  0.00    +0.182 A 
ATOM      3  N   UNL     1      -4.225   3.650   2.410  0.00  0.00    -0.201 NA
ATOM      4  H   UNL     1      -3.519   3.280  -0.730  0.00  0.00    +0.191 HD
ATOM      5  C   UNL     1      -3.371   3.183   1.452  0.00  0.00    +0.185 A 
ATOM      6  N   UNL     1      -3.893   3.484   0.284  0.00  0.00    -0.253 N 
ATOM      7  N   UNL     1      -5.005   4.107   0.445  0.00  0.00    -0.152 NA
BRANCH   2  13
ATOM      8  C   UNL     1      -6.589   4.961   3.707  0.00  0.00    +0.013 A 
ATOM      9  C   UNL     1      -7.694   5.577   4.256  0.00  0.00    +0.021 A 
ATOM     10  C   UNL     1      -8.668   6.119   3.434  0.00  0.00    +0.041 A 
ATOM     11  C   UNL     1      -8.537   6.050   2.058  0.00  0.00    +0.021 A 
ATOM     12  C   UNL     1      -7.434   5.440   1.497  0.00  0.00    +0.013 A 
ATOM     13  C   UNL     1      -6.448   4.893   2.320  0.00  0.00    +0.021 A 
ATOM     14 CL   UNL     1     -10.060   6.886   4.133  0.00  0.00    -0.084 Cl
ENDBRANCH   2  13
ENDBRANCH   1   5
BRANCH   1  15
ATOM     15  C   UNL     1      -1.332   2.051   0.019  0.00  0.00    +0.153 C 
BRANCH  15  16
ATOM     16  C   UNL     1      -0.016   1.317   0.009  0.00  0.00    +0.146 A 
ATOM     17  N   UNL     1       1.117   1.997   0.002  0.00  0.00    -0.199 NA
ATOM     18  C   UNL     1       2.282   1.353  -0.012  0.00  0.00    +0.217 A 
ATOM     19  N   UNL     1       2.304   0.024  -0.020  0.00  0.00    -0.181 NA
ATOM     20  C   UNL     1       1.163  -0.656  -0.013  0.00  0.00    +0.217 A 
ATOM     21  N   UNL     1       0.002  -0.004   0.002  0.00  0.00    -0.199 NA
ATOM     22  N   UNL     1       1.180  -2.035  -0.021  0.00  0.00    -0.327 N 
ATOM     23  N   UNL     1       3.465   2.063  -0.020  0.00  0.00    -0.327 N 
ATOM     24  H   UNL     1       0.235  -2.598  -0.015  0.00  0.00    +0.145 HD
ATOM     25  H   UNL     1       2.140  -2.573  -0.033  0.00  0.00    +0.145 HD
ATOM     26  H   UNL     1       4.427   1.530  -0.032  0.00  0.00    +0.145 HD
ATOM     27  H   UNL     1       3.446   3.163  -0.015  0.00  0.00    +0.145 HD
ENDBRANCH  15  16
ENDBRANCH   1  15
TORSDOF 4
