REMARK  Name = ZINC04811980
REMARK  6 active torsions:
REMARK  status: ('A' for Active; 'I' for Inactive)
REMARK    1  A    between atoms: C_1  and  C_2
REMARK    2  A    between atoms: C_2  and  C_3
REMARK    3  A    between atoms: C_3  and  C_20
REMARK    4  A    between atoms: C_11  and  S_14
REMARK    5  A    between atoms: S_14  and  C_15
REMARK    6  A    between atoms: N_16  and  N_17
REMARK                            x       y       z     vdW  Elec       q    Type
REMARK                         _______ _______ _______ _____ _____    ______ ____
ROOT
ATOM      1  C   UNL     1       1.550   5.939   0.474  0.00  0.00    +0.071 C 
ATOM      2  C   UNL     1       2.104   4.588   0.012  0.00  0.00    +0.071 C 
ATOM      3  C   UNL     1       0.961   3.576   0.024  0.00  0.00    -0.020 A 
ATOM      4  C   UNL     1      -0.320   4.021   0.048  0.00  0.00    +0.021 A 
ATOM      5  S   UNL     1      -1.315   2.554   0.045  0.00  0.00    -0.075 S 
ATOM      6  C   UNL     1      -0.016   1.363   0.019  0.00  0.00    +0.079 A 
ATOM      7  C   UNL     1       1.152   2.139   0.013  0.00  0.00    +0.046 A 
ATOM      8  C   UNL     1       2.446   1.406   0.000  0.00  0.00    +0.118 C 
ATOM      9  C   UNL     1       1.211  -0.633  -0.571  0.00  0.00    +0.227 C 
ATOM     10  N   UNL     1       0.004  -0.008   0.002  0.00  0.00    -0.310 N 
ATOM     11  N   UNL     1       3.639   2.058   0.238  0.00  0.00    -0.269 N 
ATOM     12  C   UNL     1      -0.761   5.450   0.064  0.00  0.00    +0.203 C 
ATOM     13  O   UNL     1       0.373   6.268  -0.269  0.00  0.00    -0.368 OA
ATOM     14  C   UNL     1       1.205   5.864   1.962  0.00  0.00    +0.042 C 
ATOM     15  H   UNL     1      -0.733  -0.536   0.346  0.00  0.00    +0.149 HD
ATOM     16  H   UNL     1       3.652   3.023   0.339  0.00  0.00    +0.167 HD
ATOM     17  N   UNL     1       2.506   0.072  -0.240  0.00  0.00    -0.345 N 
ATOM     18  H   UNL     1       3.396  -0.439  -0.198  0.00  0.00    +0.163 HD
ENDROOT
BRANCH  11  19
ATOM     19  N   UNL     1       4.800   1.345   0.332  0.00  0.00    -0.255 NA
ATOM     20  H   UNL     1       4.951   0.790  -0.497  0.00  0.00    +0.140 HD
ATOM     21  H   UNL     1       5.585   1.954   0.507  0.00  0.00    +0.140 HD
ENDBRANCH  11  19
BRANCH   1  23
ATOM     22  C   UNL     1       2.104   8.349   0.828  0.00  0.00    +0.007 C 
ATOM     23  C   UNL     1       2.607   7.022   0.255  0.00  0.00    +0.032 C 
ENDBRANCH   1  23
BRANCH   9  24
ATOM     24  S   UNL     1       1.037  -0.715  -2.375  0.00  0.00    -0.121 S 
ATOM     25  C   UNL     1       0.856   1.018  -2.877  0.00  0.00    +0.088 C 
ENDBRANCH   9  24
TORSDOF 3
