REMARK  Name = ZINC63767198
REMARK  6 active torsions:
REMARK  status: ('A' for Active; 'I' for Inactive)
REMARK    1  A    between atoms: C_4  and  C_7
REMARK    2  A    between atoms: C_9  and  S_14
REMARK    3  A    between atoms: S_14  and  C_15
REMARK    4  A    between atoms: C_15  and  C_16
REMARK    5  A    between atoms: N_18  and  C_19
REMARK    6  A    between atoms: C_21  and  C_30
REMARK                            x       y       z     vdW  Elec       q    Type
REMARK                         _______ _______ _______ _____ _____    ______ ____
ROOT
ATOM      1  C   UNL     1      10.000  -0.513   0.318  0.00  0.00    +0.224 C 
ATOM      2  O   UNL     1       9.912   0.690   0.186  0.00  0.00    -0.275 OA
ATOM      3  N   UNL     1      11.203  -1.114   0.232  0.00  0.00    -0.302 N 
ATOM      4  H   UNL     1      11.273  -2.076   0.338  0.00  0.00    +0.150 HD
ENDROOT
BRANCH   3   5
ATOM      5  C   UNL     1      12.405  -0.316  -0.022  0.00  0.00    +0.151 C 
ATOM      6  C   UNL     1      13.532  -0.651   0.984  0.00  0.00    +0.132 C 
ATOM      7  C   UNL     1      14.302   0.581   1.387  0.00  0.00    -0.046 C 
ATOM      8  C   UNL     1      13.729   1.760   1.179  0.00  0.00    -0.013 C 
ATOM      9  S   UNL     1      12.148   1.453   0.424  0.00  0.00    -0.106 S 
ATOM     10  C   UNL     1      14.296   3.112   1.510  0.00  0.00    +0.042 C 
ATOM     11  C   UNL     1      15.486   2.930   2.460  0.00  0.00    +0.005 C 
ATOM     12  C   UNL     1      16.394   1.833   1.896  0.00  0.00    +0.005 C 
ATOM     13  C   UNL     1      15.692   0.481   2.014  0.00  0.00    +0.032 C 
BRANCH   6  14
ATOM     14  C   UNL     1      14.481  -1.635   0.348  0.00  0.00    +0.220 C 
ATOM     15  O   UNL     1      14.730  -1.559  -0.836  0.00  0.00    -0.275 OA
ATOM     16  N   UNL     1      15.052  -2.600   1.097  0.00  0.00    -0.329 N 
ATOM     17  H   UNL     1      14.852  -2.661   2.044  0.00  0.00    +0.145 HD
ATOM     18  H   UNL     1      15.662  -3.234   0.688  0.00  0.00    +0.145 HD
ENDBRANCH   6  14
ENDBRANCH   3   5
BRANCH   1  19
ATOM     19  C   UNL     1       8.764  -1.334   0.579  0.00  0.00    +0.172 C 
BRANCH  19  20
ATOM     20  S   UNL     1       7.315  -0.244   0.639  0.00  0.00    -0.079 S 
BRANCH  20  23
ATOM     21  C   UNL     1       3.680  -1.531   1.271  0.00  0.00    +0.060 C 
ATOM     22  N   UNL     1       4.749  -0.804   1.044  0.00  0.00    -0.228 NA
ATOM     23  C   UNL     1       5.970  -1.340   0.948  0.00  0.00    +0.181 C 
ATOM     24  N   UNL     1       6.247  -2.626   1.065  0.00  0.00    -0.155 NA
ATOM     25  C   UNL     1       5.298  -3.533   1.298  0.00  0.00    +0.244 C 
ATOM     26  O   UNL     1       5.563  -4.715   1.404  0.00  0.00    -0.273 OA
ATOM     27  C   UNL     1       3.873  -3.027   1.431  0.00  0.00    +0.154 C 
BRANCH  21  31
ATOM     28  C   UNL     1      -0.162   0.238   1.564  0.00  0.00    +0.000 A 
ATOM     29  C   UNL     1       0.945   1.032   1.318  0.00  0.00    +0.001 A 
ATOM     30  C   UNL     1       2.198   0.466   1.222  0.00  0.00    +0.010 A 
ATOM     31  C   UNL     1       2.349  -0.918   1.373  0.00  0.00    -0.003 A 
ATOM     32  C   UNL     1       1.225  -1.714   1.621  0.00  0.00    +0.010 A 
ATOM     33  C   UNL     1      -0.021  -1.131   1.715  0.00  0.00    +0.001 A 
ENDBRANCH  21  31
ENDBRANCH  20  23
ENDBRANCH  19  20
ENDBRANCH   1  19
TORSDOF 6
