REMARK  Name = ZINC63384082
REMARK  8 active torsions:
REMARK  status: ('A' for Active; 'I' for Inactive)
REMARK    1  A    between atoms: C_1  and  C_2
REMARK    2  A    between atoms: C_2  and  C_38
REMARK    3  A    between atoms: C_3  and  C_14
REMARK    4  A    between atoms: N_16  and  C_17
REMARK    5  A    between atoms: C_17  and  C_19
REMARK    6  A    between atoms: C_17  and  C_29
REMARK    7  A    between atoms: C_19  and  C_20
REMARK    8  A    between atoms: N_31  and  C_32
REMARK                            x       y       z     vdW  Elec       q    Type
REMARK                         _______ _______ _______ _____ _____    ______ ____
ROOT
ATOM      1  C   UNL     1      -0.526   0.655  -4.453  0.00  0.00    +0.163 C 
ENDROOT
BRANCH   1   4
ATOM      2  C   UNL     1       0.699   0.227  -2.390  0.00  0.00    +0.236 C 
ATOM      3  O   UNL     1       1.421   1.164  -2.659  0.00  0.00    -0.274 OA
ATOM      4  N   UNL     1      -0.306  -0.110  -3.223  0.00  0.00    -0.302 N 
ATOM      5  H   UNL     1      -0.883  -0.859  -3.008  0.00  0.00    +0.150 HD
BRANCH   2   8
ATOM      6  C   UNL     1       0.893   1.743  -0.018  0.00  0.00    +0.037 C 
ATOM      7  C   UNL     1       0.453   0.282   0.099  0.00  0.00    +0.111 C 
ATOM      8  C   UNL     1       0.925  -0.560  -1.125  0.00  0.00    +0.190 C 
ATOM      9  N   UNL     1       2.349  -0.874  -0.998  0.00  0.00    -0.265 N 
ATOM     10  C   UNL     1       2.826  -1.123   0.370  0.00  0.00    +0.228 C 
ATOM     11  S   UNL     1       1.397  -0.611   1.415  0.00  0.00    -0.004 S 
ATOM     12  O   UNL     1       1.839   0.321   2.393  0.00  0.00    -0.172 OA
ATOM     13  O   UNL     1       0.670  -1.764   1.816  0.00  0.00    -0.172 OA
ATOM     14  C   UNL     1       3.844  -0.012   0.156  0.00  0.00    +0.142 C 
ATOM     15  C   UNL     1       3.271   0.070  -1.227  0.00  0.00    +0.221 C 
ATOM     16  O   UNL     1       3.543   0.744  -2.198  0.00  0.00    -0.275 OA
ATOM     17  C   UNL     1      -1.058   0.169   0.314  0.00  0.00    +0.037 C 
ENDBRANCH   2   8
ENDBRANCH   1   4
BRANCH   1  18
ATOM     18  C   UNL     1      -1.376   1.862  -4.148  0.00  0.00    +0.234 C 
ATOM     19  O   UNL     1      -1.760   2.063  -3.016  0.00  0.00    -0.274 OA
ATOM     20  N   UNL     1      -1.709   2.718  -5.135  0.00  0.00    -0.311 N 
ATOM     21  H   UNL     1      -1.401   2.557  -6.041  0.00  0.00    +0.149 HD
BRANCH  20  22
ATOM     22  C   UNL     1      -2.535   3.891  -4.839  0.00  0.00    +0.073 C 
ATOM     23  C   UNL     1      -4.013   3.497  -4.881  0.00  0.00    +0.022 C 
ATOM     24  C   UNL     1      -4.876   4.722  -4.572  0.00  0.00    +0.002 C 
ATOM     25  C   UNL     1      -4.608   5.811  -5.614  0.00  0.00    +0.000 C 
ATOM     26  C   UNL     1      -3.130   6.204  -5.572  0.00  0.00    +0.002 C 
ATOM     27  C   UNL     1      -2.267   4.979  -5.881  0.00  0.00    +0.022 C 
ENDBRANCH  20  22
ENDBRANCH   1  18
BRANCH   1  28
ATOM     28  C   UNL     1      -1.239  -0.225  -5.481  0.00  0.00    +0.065 C 
BRANCH  28  29
ATOM     29  C   UNL     1      -0.338  -1.366  -5.877  0.00  0.00    -0.039 C 
ATOM     30  C   UNL     1      -0.330  -2.615  -5.356  0.00  0.00    -0.001 A 
ATOM     31  C   UNL     1      -1.127  -3.259  -4.305  0.00  0.00    +0.010 A 
ATOM     32  C   UNL     1      -0.881  -4.552  -3.996  0.00  0.00    +0.001 A 
ATOM     33  C   UNL     1       0.112  -5.291  -4.652  0.00  0.00    +0.002 A 
ATOM     34  C   UNL     1       0.885  -4.769  -5.628  0.00  0.00    +0.026 A 
ATOM     35  C   UNL     1       0.713  -3.417  -6.034  0.00  0.00    +0.043 A 
ATOM     36  N   UNL     1       1.326  -2.693  -6.939  0.00  0.00    -0.380 N 
ATOM     37  C   UNL     1       0.736  -1.349  -6.941  0.00  0.00    +0.144 C 
ATOM     38  H   UNL     1       2.046  -2.996  -7.514  0.00  0.00    +0.160 HD
ENDBRANCH  28  29
ENDBRANCH   1  28
TORSDOF 6
