REMARK  Name = ZINC23355082
REMARK  9 active torsions:
REMARK  status: ('A' for Active; 'I' for Inactive)
REMARK    1  A    between atoms: C_1  and  N_2
REMARK    2  A    between atoms: C_5  and  C_18
REMARK    3  A    between atoms: C_6  and  N_17
REMARK    4  A    between atoms: N_7  and  C_10
REMARK    5  A    between atoms: C_10  and  C_11
REMARK    6  A    between atoms: C_18  and  C_20
REMARK    7  A    between atoms: C_20  and  N_21
REMARK    8  A    between atoms: N_25  and  C_28
REMARK    9  A    between atoms: C_28  and  C_29
REMARK                            x       y       z     vdW  Elec       q    Type
REMARK                         _______ _______ _______ _____ _____    ______ ____
ROOT
ATOM      1  C   UNL     1       0.519  -2.355   6.481  0.00  0.00    +0.157 C 
ATOM      2  N   UNL     1       1.357  -1.524   5.614  0.00  0.00    -0.263 N 
ATOM      3  C   UNL     1       0.775  -0.665   4.751  0.00  0.00    +0.269 A 
ATOM      4  O   UNL     1      -0.437  -0.575   4.686  0.00  0.00    -0.267 OA
ATOM      5  C   UNL     1       1.635   0.153   3.886  0.00  0.00    +0.121 A 
ATOM      6  C   UNL     1       3.027   0.005   4.014  0.00  0.00    +0.116 A 
ATOM      7  N   UNL     1       3.515  -0.889   4.924  0.00  0.00    -0.277 N 
ATOM      8  C   UNL     1       2.693  -1.622   5.692  0.00  0.00    +0.333 A 
ATOM      9  O   UNL     1       3.178  -2.404   6.486  0.00  0.00    -0.246 OA
ENDROOT
BRANCH   6  10
ATOM     10  N   UNL     1       3.874   0.740   3.244  0.00  0.00    -0.344 N 
ATOM     11  H   UNL     1       4.962   0.617   3.352  0.00  0.00    +0.144 HD
ATOM     12  H   UNL     1       3.471   1.457   2.514  0.00  0.00    +0.144 HD
ENDBRANCH   6  10
BRANCH   5  13
ATOM     13  C   UNL     1       1.082   1.063   2.961  0.00  0.00    +0.185 C 
ATOM     14  O   UNL     1       1.805   1.655   2.184  0.00  0.00    -0.290 OA
BRANCH  13  15
ATOM     15  C   UNL     1      -0.406   1.301   2.935  0.00  0.00    +0.164 C 
BRANCH  15  16
ATOM     16  N   UNL     1      -0.727   2.284   1.891  0.00  0.00    -0.297 NA
ATOM     17  C   UNL     1      -0.434   1.742   0.544  0.00  0.00    +0.083 C 
ATOM     18  C   UNL     1      -1.213   2.408  -0.498  0.00  0.00    -0.003 C 
ATOM     19  C   UNL     1      -0.908   3.918  -0.568  0.00  0.00    -0.077 C 
ATOM     20  N   UNL     1      -1.619   4.582   0.497  0.00  0.00    +0.383 N 
ATOM     21  C   UNL     1      -0.831   4.757   1.740  0.00  0.00    -0.063 C 
ATOM     22  C   UNL     1       0.001   3.513   2.097  0.00  0.00    +0.066 C 
ATOM     23  H   UNL     1      -2.441   3.893   0.740  0.00  0.00    -0.081 HD
BRANCH  20  24
ATOM     24  C   UNL     1      -2.174   5.864   0.041  0.00  0.00    -0.043 C 
BRANCH  24  25
ATOM     25  C   UNL     1      -1.048   6.811  -0.284  0.00  0.00    -0.064 A 
ATOM     26  C   UNL     1      -0.545   7.648   0.695  0.00  0.00    +0.002 A 
ATOM     27  C   UNL     1       0.491   8.514   0.398  0.00  0.00    +0.000 A 
ATOM     28  C   UNL     1       1.017   8.550  -0.879  0.00  0.00    +0.000 A 
ATOM     29  C   UNL     1       0.510   7.718  -1.860  0.00  0.00    +0.000 A 
ATOM     30  C   UNL     1      -0.522   6.848  -1.562  0.00  0.00    +0.002 A 
ENDBRANCH  24  25
ENDBRANCH  20  24
ENDBRANCH  15  16
ENDBRANCH  13  15
ENDBRANCH   5  13
BRANCH   7  31
ATOM     31  C   UNL     1       4.964  -1.051   5.066  0.00  0.00    +0.163 C 
BRANCH  31  32
ATOM     32  C   UNL     1       5.478  -0.088   6.105  0.00  0.00    -0.028 A 
ATOM     33  C   UNL     1       5.894   1.176   5.731  0.00  0.00    +0.005 A 
ATOM     34  C   UNL     1       6.361   2.061   6.685  0.00  0.00    +0.000 A 
ATOM     35  C   UNL     1       6.422   1.678   8.012  0.00  0.00    +0.000 A 
ATOM     36  C   UNL     1       6.011   0.412   8.385  0.00  0.00    +0.000 A 
ATOM     37  C   UNL     1       5.539  -0.471   7.432  0.00  0.00    +0.005 A 
ENDBRANCH  31  32
ENDBRANCH   7  31
TORSDOF 8
