REMARK  Name = ZINC06025512
REMARK  5 active torsions:
REMARK  status: ('A' for Active; 'I' for Inactive)
REMARK    1  A    between atoms: C_3  and  C_8
REMARK    2  A    between atoms: C_5  and  O_7
REMARK    3  A    between atoms: C_11  and  C_22
REMARK    4  A    between atoms: C_17  and  N_21
REMARK    5  A    between atoms: C_18  and  C_19
REMARK                            x       y       z     vdW  Elec       q    Type
REMARK                         _______ _______ _______ _____ _____    ______ ____
ROOT
ATOM      1  C   UNL     1       3.671   2.190  -0.021  0.00  0.00    +0.102 C 
ATOM      2  C   UNL     1       3.724   3.078  -1.238  0.00  0.00    +0.054 A 
ATOM      3  C   UNL     1       3.912   2.730  -2.579  0.00  0.00    +0.100 A 
ATOM      4  N   UNL     1       3.883   3.839  -3.294  0.00  0.00    -0.171 NA
ATOM      5  N   UNL     1       3.676   4.920  -2.423  0.00  0.00    -0.246 N 
ATOM      6  H   UNL     1       3.611   5.854  -2.679  0.00  0.00    +0.192 HD
ATOM      7  C   UNL     1       3.582   4.433  -1.169  0.00  0.00    +0.223 A 
ATOM      8  O   UNL     1       3.385   5.090   0.002  0.00  0.00    -0.423 OA
ATOM      9  C   UNL     1       3.603   4.409   1.145  0.00  0.00    +0.200 C 
ATOM     10  C   UNL     1       3.747   3.065   1.205  0.00  0.00    +0.098 C 
ENDROOT
BRANCH   3  11
ATOM     11  C   UNL     1       4.110   1.357  -3.105  0.00  0.00    +0.004 A 
ATOM     12  C   UNL     1       4.813   0.415  -2.356  0.00  0.00    +0.011 A 
ATOM     13  C   UNL     1       4.995  -0.861  -2.849  0.00  0.00    +0.022 A 
ATOM     14  C   UNL     1       4.480  -1.207  -4.087  0.00  0.00    +0.059 A 
ATOM     15  C   UNL     1       3.780  -0.275  -4.836  0.00  0.00    +0.060 A 
ATOM     16  C   UNL     1       3.588   1.003  -4.348  0.00  0.00    +0.031 A 
ATOM     17 CL   UNL     1       3.137  -0.716  -6.387  0.00  0.00    -0.082 Cl
ATOM     18 CL   UNL     1       4.713  -2.813  -4.702  0.00  0.00    -0.082 Cl
ENDBRANCH   3  11
BRANCH   1  21
ATOM     19  C   UNL     1      -0.017   1.377   0.010  0.00  0.00    +0.004 A 
ATOM     20  C   UNL     1       1.171   2.086   0.002  0.00  0.00    +0.005 A 
ATOM     21  C   UNL     1       2.379   1.415  -0.013  0.00  0.00    -0.031 A 
ATOM     22  C   UNL     1       2.403   0.033  -0.021  0.00  0.00    +0.050 A 
ATOM     23  C   UNL     1       1.214  -0.680  -0.013  0.00  0.00    +0.117 A 
ATOM     24  C   UNL     1       0.002  -0.004   0.002  0.00  0.00    +0.045 A 
BRANCH  23  25
ATOM     25  O   UNL     1       1.235  -2.039  -0.021  0.00  0.00    -0.507 OA
ATOM     26  H   UNL     1       1.249  -2.437   0.860  0.00  0.00    +0.292 HD
ENDBRANCH  23  25
ENDBRANCH   1  21
BRANCH   9  27
ATOM     27  N   UNL     1       3.684   5.120   2.316  0.00  0.00    -0.328 N 
ATOM     28  H   UNL     1       3.585   6.085   2.305  0.00  0.00    +0.145 HD
ATOM     29  H   UNL     1       3.840   4.658   3.154  0.00  0.00    +0.145 HD
ENDBRANCH   9  27
BRANCH  10  30
ATOM     30  C   UNL     1       3.980   2.451   2.478  0.00  0.00    +0.101 C 
ATOM     31  N   UNL     1       4.165   1.964   3.487  0.00  0.00    -0.191 NA
ENDBRANCH  10  30
TORSDOF 5
