REMARK  Name = ZINC17046509
REMARK  4 active torsions:
REMARK  status: ('A' for Active; 'I' for Inactive)
REMARK    1  A    between atoms: C_7  and  C_11
REMARK    2  A    between atoms: C_7  and  O_31
REMARK    3  A    between atoms: C_16  and  C_20
REMARK    4  A    between atoms: C_20  and  O_30
REMARK                            x       y       z     vdW  Elec       q    Type
REMARK                         _______ _______ _______ _____ _____    ______ ____
ROOT
ATOM      1  C   UNL     1      -3.634  -0.452   1.325  0.00  0.00    +0.101 C 
ATOM      2  C   UNL     1      -4.333   0.154   0.104  0.00  0.00    +0.015 C 
ATOM      3  C   UNL     1      -3.690  -0.391  -1.172  0.00  0.00    +0.002 C 
ATOM      4  C   UNL     1      -2.229   0.055  -1.247  0.00  0.00    +0.015 C 
ATOM      5  C   UNL     1      -1.450  -0.555  -0.077  0.00  0.00    +0.101 C 
ATOM      6  C   UNL     1      -2.149  -0.183   1.212  0.00  0.00    +0.147 C 
ATOM      7  O   UNL     1      -1.538   0.315   2.127  0.00  0.00    -0.297 OA
ENDROOT
BRANCH   1  14
ATOM      8  C   UNL     1      -7.669  -2.386   0.750  0.00  0.00    +0.000 A 
ATOM      9  C   UNL     1      -7.943  -3.057   1.928  0.00  0.00    +0.002 A 
ATOM     10  C   UNL     1      -6.929  -3.329   2.834  0.00  0.00    +0.024 A 
ATOM     11  C   UNL     1      -5.623  -2.928   2.557  0.00  0.00    +0.040 A 
ATOM     12  C   UNL     1      -5.364  -2.255   1.367  0.00  0.00    +0.015 A 
ATOM     13  C   UNL     1      -6.374  -1.985   0.471  0.00  0.00    +0.009 A 
ATOM     14  C   UNL     1      -3.881  -1.961   1.363  0.00  0.00    +0.178 C 
ATOM     15  C   UNL     1      -3.384  -2.548   2.667  0.00  0.00    +0.254 C 
ATOM     16  O   UNL     1      -2.240  -2.537   3.072  0.00  0.00    -0.272 OA
ATOM     17  N   UNL     1      -4.446  -3.083   3.291  0.00  0.00    -0.282 N 
ATOM     18  H   UNL     1      -4.401  -3.526   4.153  0.00  0.00    +0.155 HD
BRANCH  14  19
ATOM     19  O   UNL     1      -3.247  -2.599   0.253  0.00  0.00    -0.374 OA
ATOM     20  H   UNL     1      -3.371  -3.558   0.226  0.00  0.00    +0.211 HD
ENDBRANCH  14  19
ENDBRANCH   1  14
BRANCH   5  21
ATOM     21  C   UNL     1      -0.023  -0.002  -0.065  0.00  0.00    +0.178 C 
ATOM     22  C   UNL     1       0.683  -0.332  -1.359  0.00  0.00    +0.015 A 
ATOM     23  C   UNL     1       1.013  -1.522  -1.968  0.00  0.00    +0.009 A 
ATOM     24  C   UNL     1       1.677  -1.515  -3.183  0.00  0.00    +0.000 A 
ATOM     25  C   UNL     1       2.007  -0.312  -3.780  0.00  0.00    +0.002 A 
ATOM     26  C   UNL     1       1.678   0.882  -3.171  0.00  0.00    +0.024 A 
ATOM     27  C   UNL     1       1.009   0.883  -1.949  0.00  0.00    +0.040 A 
ATOM     28  N   UNL     1       0.573   1.939  -1.148  0.00  0.00    -0.282 N 
ATOM     29  C   UNL     1      -0.039   1.512  -0.031  0.00  0.00    +0.254 C 
ATOM     30  O   UNL     1      -0.514   2.208   0.842  0.00  0.00    -0.272 OA
ATOM     31  H   UNL     1       0.699   2.875  -1.372  0.00  0.00    +0.155 HD
BRANCH  21  32
ATOM     32  O   UNL     1       0.704  -0.521   1.050  0.00  0.00    -0.374 OA
ATOM     33  H   UNL     1       1.607  -0.180   1.123  0.00  0.00    +0.211 HD
ENDBRANCH  21  32
ENDBRANCH   5  21
TORSDOF 4
