REMARK  Name = ZINC19353190
REMARK  12 active torsions:
REMARK  status: ('A' for Active; 'I' for Inactive)
REMARK    1  A    between atoms: C_1  and  C_2
REMARK    2  A    between atoms: C_6  and  C_9
REMARK    3  A    between atoms: C_7  and  N_8
REMARK    4  A    between atoms: C_9  and  O_11
REMARK    5  A    between atoms: O_11  and  C_12
REMARK    6  A    between atoms: C_12  and  C_13
REMARK    7  A    between atoms: N_15  and  C_16
REMARK    8  A    between atoms: C_17  and  C_25
REMARK    9  A    between atoms: N_27  and  C_28
REMARK   10  A    between atoms: C_28  and  C_29
REMARK   11  A    between atoms: C_29  and  O_30
REMARK   12  A    between atoms: O_30  and  C_31
REMARK                            x       y       z     vdW  Elec       q    Type
REMARK                         _______ _______ _______ _____ _____    ______ ____
ROOT
ATOM      1  C   UNL     1      -0.793   6.447   0.302  0.00  0.00    +0.255 C 
ATOM      2  O   UNL     1      -1.810   5.791   0.387  0.00  0.00    -0.272 OA
ATOM      3  N   UNL     1      -0.855   7.793   0.334  0.00  0.00    -0.277 N 
ATOM      4  H   UNL     1       0.067   8.387   0.257  0.00  0.00    +0.155 HD
ENDROOT
BRANCH   3   5
ATOM      5  C   UNL     1      -2.080   8.428   0.465  0.00  0.00    +0.084 A 
ATOM      6  C   UNL     1      -2.345   9.789   0.524  0.00  0.00    +0.069 A 
ATOM      7  C   UNL     1      -3.732  10.198   0.659  0.00  0.00    -0.023 A 
ATOM      8  C   UNL     1      -4.626   9.188   0.727  0.00  0.00    -0.004 A 
ATOM      9  S   UNL     1      -3.653   7.714   0.604  0.00  0.00    -0.077 S 
ATOM     10  C   UNL     1      -6.112   9.305   0.873  0.00  0.00    +0.043 C 
ATOM     11  C   UNL     1      -6.443  10.738   1.313  0.00  0.00    +0.005 C 
ATOM     12  C   UNL     1      -5.679  11.718   0.418  0.00  0.00    +0.005 C 
ATOM     13  C   UNL     1      -4.184  11.652   0.731  0.00  0.00    +0.037 C 
BRANCH   6  14
ATOM     14  C   UNL     1      -1.264  10.777   0.447  0.00  0.00    +0.247 C 
ATOM     15  O   UNL     1      -0.914  11.213  -0.634  0.00  0.00    -0.270 OA
ATOM     16  N   UNL     1      -0.658  11.202   1.573  0.00  0.00    -0.309 N 
ATOM     17  H   UNL     1      -0.975  10.807   2.550  0.00  0.00    +0.149 HD
BRANCH  16  18
ATOM     18  C   UNL     1       0.421  12.189   1.497  0.00  0.00    +0.132 C 
BRANCH  18  19
ATOM     19  C   UNL     1       0.932  12.497   2.906  0.00  0.00    +0.178 C 
BRANCH  19  20
ATOM     20  O   UNL     1       1.530  11.325   3.462  0.00  0.00    -0.381 OA
ATOM     21  C   UNL     1       2.043  11.505   4.784  0.00  0.00    +0.194 C 
ENDBRANCH  19  20
ENDBRANCH  18  19
ENDBRANCH  16  18
ENDBRANCH   6  14
ENDBRANCH   3   5
BRANCH   1  22
ATOM     22  C   UNL     1       0.539   5.756   0.159  0.00  0.00    +0.328 C 
BRANCH  22  23
ATOM     23  O   UNL     1       0.341   4.318   0.150  0.00  0.00    -0.452 OA
BRANCH  23  24
ATOM     24  C   UNL     1       1.441   3.549   0.028  0.00  0.00    +0.341 C 
ATOM     25  O   UNL     1       2.536   4.067  -0.067  0.00  0.00    -0.245 OA
BRANCH  24  31
ATOM     26  C   UNL     1       3.561  -0.982  -0.011  0.00  0.00    +0.045 C 
ATOM     27  C   UNL     1       2.333  -0.108  -0.009  0.00  0.00    -0.029 A 
ATOM     28  C   UNL     1       1.078  -0.683  -0.022  0.00  0.00    +0.005 A 
ATOM     29  C   UNL     1      -0.058   0.111  -0.019  0.00  0.00    +0.001 A 
ATOM     30  C   UNL     1       0.052   1.484  -0.003  0.00  0.00    +0.017 A 
ATOM     31  C   UNL     1       1.315   2.082   0.011  0.00  0.00    +0.080 A 
ATOM     32  C   UNL     1       2.465   1.275   0.008  0.00  0.00    +0.042 A 
BRANCH  32  33
ATOM     33  N   UNL     1       3.726   1.855   0.022  0.00  0.00    -0.357 N 
ATOM     34  H   UNL     1       3.827   2.951   0.036  0.00  0.00    +0.142 HD
ATOM     35  H   UNL     1       4.624   1.220   0.021  0.00  0.00    +0.142 HD
ENDBRANCH  32  33
ENDBRANCH  24  31
ENDBRANCH  23  24
ENDBRANCH  22  23
ENDBRANCH   1  22
TORSDOF 10
