REMARK  Name = ZINC25394140
REMARK  9 active torsions:
REMARK  status: ('A' for Active; 'I' for Inactive)
REMARK    1  A    between atoms: C_1  and  C_2
REMARK    2  A    between atoms: C_2  and  C_3
REMARK    3  A    between atoms: C_3  and  C_26
REMARK    4  A    between atoms: N_6  and  N_10
REMARK    5  A    between atoms: C_11  and  C_13
REMARK    6  A    between atoms: C_13  and  C_14
REMARK    7  A    between atoms: C_14  and  C_16
REMARK    8  A    between atoms: C_14  and  N_17
REMARK    9  A    between atoms: C_18  and  C_20
REMARK                            x       y       z     vdW  Elec       q    Type
REMARK                         _______ _______ _______ _____ _____    ______ ____
ROOT
ATOM      1  N   UNL     1       2.915  -0.166   2.780  0.00  0.00    -0.224 N 
ATOM      2  C   UNL     1       2.066   0.581   2.047  0.00  0.00    +0.231 C 
ATOM      3  O   UNL     1       1.064   1.037   2.557  0.00  0.00    -0.274 OA
ATOM      4  H   UNL     1       3.824  -0.579   2.317  0.00  0.00    +0.174 HD
ENDROOT
BRANCH   1   8
ATOM      5  C   UNL     1       2.660  -0.391   6.415  0.00  0.00    +0.139 C 
ATOM      6  C   UNL     1       3.283   0.178   5.156  0.00  0.00    +0.268 C 
ATOM      7  O   UNL     1       4.173   0.999   5.086  0.00  0.00    -0.271 OA
ATOM      8  N   UNL     1       2.641  -0.416   4.131  0.00  0.00    -0.137 N 
ATOM      9  C   UNL     1       1.714  -1.278   4.563  0.00  0.00    +0.327 C 
ATOM     10  O   UNL     1       1.008  -1.937   3.825  0.00  0.00    -0.251 OA
ATOM     11  N   UNL     1       1.649  -1.334   5.905  0.00  0.00    -0.280 N 
ATOM     12  H   UNL     1       1.030  -1.909   6.609  0.00  0.00    +0.152 HD
BRANCH   5  13
ATOM     13  C   UNL     1       3.697  -1.117   7.233  0.00  0.00    -0.015 A 
ATOM     14  C   UNL     1       4.350  -0.461   8.260  0.00  0.00    +0.006 A 
ATOM     15  C   UNL     1       5.298  -1.128   9.014  0.00  0.00    +0.000 A 
ATOM     16  C   UNL     1       5.600  -2.448   8.734  0.00  0.00    +0.000 A 
ATOM     17  C   UNL     1       4.950  -3.102   7.704  0.00  0.00    +0.000 A 
ATOM     18  C   UNL     1       3.999  -2.436   6.953  0.00  0.00    +0.006 A 
ENDBRANCH   5  13
BRANCH   5  20
ATOM     19  C   UNL     1       0.902   1.384   6.414  0.00  0.00    +0.007 C 
ATOM     20  C   UNL     1       1.998   0.712   7.244  0.00  0.00    +0.037 C 
ENDBRANCH   5  20
ENDBRANCH   1   8
BRANCH   2  21
ATOM     21  C   UNL     1       2.361   0.850   0.594  0.00  0.00    +0.119 C 
BRANCH  21  22
ATOM     22  C   UNL     1       1.248   1.716  -0.001  0.00  0.00    +0.079 C 
ATOM     23  C   UNL     1       1.608   2.092  -1.439  0.00  0.00    +0.028 C 
BRANCH  22  24
ATOM     24  N   UNL     1      -0.011   0.966   0.007  0.00  0.00    -0.308 N 
ATOM     25  C   UNL     1      -1.187   1.624   0.017  0.00  0.00    +0.244 C 
ATOM     26  O   UNL     1      -1.204   2.839   0.023  0.00  0.00    -0.270 OA
ATOM     27  H   UNL     1       0.004  -0.134   0.006  0.00  0.00    +0.149 HD
BRANCH  25  28
ATOM     28  C   UNL     1      -2.458   0.867   0.018  0.00  0.00    +0.037 A 
ATOM     29  C   UNL     1      -2.442  -0.528   0.005  0.00  0.00    +0.013 A 
ATOM     30  C   UNL     1      -3.631  -1.228   0.012  0.00  0.00    +0.001 A 
ATOM     31  C   UNL     1      -4.837  -0.550   0.021  0.00  0.00    +0.000 A 
ATOM     32  C   UNL     1      -4.859   0.834   0.029  0.00  0.00    +0.001 A 
ATOM     33  C   UNL     1      -3.677   1.546   0.028  0.00  0.00    +0.013 A 
ENDBRANCH  25  28
ENDBRANCH  22  24
ENDBRANCH  21  22
ENDBRANCH   2  21
TORSDOF 7
