REMARK  Name = ZINC67102098
REMARK  7 active torsions:
REMARK  status: ('A' for Active; 'I' for Inactive)
REMARK    1  A    between atoms: C_1  and  C_2
REMARK    2  A    between atoms: C_6  and  C_7
REMARK    3  A    between atoms: N_9  and  N_10
REMARK    4  A    between atoms: N_13  and  C_14
REMARK    5  A    between atoms: C_14  and  C_15
REMARK    6  A    between atoms: C_15  and  C_17
REMARK    7  A    between atoms: C_15  and  N_22
REMARK                            x       y       z     vdW  Elec       q    Type
REMARK                         _______ _______ _______ _____ _____    ______ ____
ROOT
ATOM      1  N   UNL     1       2.942  -2.688   8.947  0.00  0.00    -0.218 N 
ATOM      2  C   UNL     1       1.768  -2.780   8.291  0.00  0.00    +0.316 C 
ATOM      3  O   UNL     1       0.968  -1.866   8.345  0.00  0.00    -0.251 OA
ATOM      4  N   UNL     1       1.481  -3.885   7.574  0.00  0.00    -0.296 N 
ATOM      5  H   UNL     1       3.148  -1.893   9.463  0.00  0.00    +0.174 HD
ATOM      6  H   UNL     1       2.119  -4.614   7.531  0.00  0.00    +0.150 HD
ENDROOT
BRANCH   1   9
ATOM      7  C   UNL     1       5.037  -3.650   9.542  0.00  0.00    +0.267 C 
ATOM      8  O   UNL     1       5.296  -2.652  10.189  0.00  0.00    -0.268 OA
ATOM      9  N   UNL     1       3.863  -3.742   8.885  0.00  0.00    -0.229 N 
ATOM     10  H   UNL     1       3.657  -4.537   8.369  0.00  0.00    +0.173 HD
BRANCH   7  16
ATOM     11  C   UNL     1       7.822  -3.761  10.931  0.00  0.00    +0.045 C 
ATOM     12  C   UNL     1       7.249  -4.858  10.071  0.00  0.00    -0.031 A 
ATOM     13  C   UNL     1       7.928  -6.028   9.830  0.00  0.00    +0.011 A 
ATOM     14  C   UNL     1       7.354  -6.974   9.046  0.00  0.00    +0.046 A 
ATOM     15  S   UNL     1       5.875  -6.306   8.611  0.00  0.00    -0.092 S 
ATOM     16  C   UNL     1       6.001  -4.752   9.476  0.00  0.00    +0.078 A 
ENDBRANCH   7  16
ENDBRANCH   1   9
BRANCH   4  17
ATOM     17  C   UNL     1       0.206  -3.985   6.861  0.00  0.00    +0.130 C 
BRANCH  17  18
ATOM     18  C   UNL     1       0.173  -5.284   6.054  0.00  0.00    +0.111 C 
BRANCH  18  19
ATOM     19  N   UNL     1       1.356  -5.353   5.187  0.00  0.00    -0.289 NA
ATOM     20  C   UNL     1       1.417  -4.193   4.285  0.00  0.00    +0.113 C 
ATOM     21  C   UNL     1       2.693  -4.274   3.443  0.00  0.00    +0.175 C 
ATOM     22  O   UNL     1       2.711  -5.515   2.732  0.00  0.00    -0.377 OA
ATOM     23  C   UNL     1       2.654  -6.665   3.580  0.00  0.00    +0.175 C 
ATOM     24  C   UNL     1       1.377  -6.609   4.423  0.00  0.00    +0.113 C 
ENDBRANCH  18  19
BRANCH  18  25
ATOM     25  C   UNL     1       0.172  -6.460   6.997  0.00  0.00    +0.008 A 
ATOM     26  C   UNL     1      -0.869  -7.229   7.402  0.00  0.00    +0.013 A 
ATOM     27  C   UNL     1      -0.632  -8.268   8.282  0.00  0.00    +0.008 A 
ATOM     28  C   UNL     1       0.634  -8.488   8.714  0.00  0.00    +0.045 A 
ATOM     29  S   UNL     1       1.542  -7.207   7.864  0.00  0.00    -0.100 S 
ENDBRANCH  18  25
ENDBRANCH  17  18
ENDBRANCH   4  17
TORSDOF 6
