REMARK  Name = ZINC54600722
REMARK  3 active torsions:
REMARK  status: ('A' for Active; 'I' for Inactive)
REMARK    1  A    between atoms: C_2  and  N_17
REMARK    2  A    between atoms: N_3  and  C_7
REMARK    3  A    between atoms: C_14  and  O_16
REMARK                            x       y       z     vdW  Elec       q    Type
REMARK                         _______ _______ _______ _____ _____    ______ ____
ROOT
ATOM      1  C   UNL     1      -0.016   1.361   0.009  0.00  0.00    +0.114 A 
ATOM      2  C   UNL     1       0.002  -0.004   0.002  0.00  0.00    +0.116 A 
ATOM      3  N   UNL     1       1.312  -0.410  -0.013  0.00  0.00    -0.265 N 
ATOM      4  N   UNL     1       2.119   0.735  -0.014  0.00  0.00    -0.262 N 
ATOM      5  C   UNL     1       1.311   1.814  -0.001  0.00  0.00    +0.266 A 
ATOM      6  O   UNL     1       1.671   2.979   0.002  0.00  0.00    -0.266 OA
ATOM      7  H   UNL     1       3.089   0.749  -0.023  0.00  0.00    +0.190 HD
ENDROOT
BRANCH   3   8
ATOM      8  C   UNL     1       1.784  -1.797  -0.024  0.00  0.00    +0.136 C 
ATOM      9  C   UNL     1       2.573  -2.032  -1.284  0.00  0.00    +0.029 C 
ATOM     10  C   UNL     1       2.323  -3.479  -1.755  0.00  0.00    +0.002 C 
ATOM     11  C   UNL     1       3.122  -4.448  -1.020  0.00  0.00    +0.000 C 
ATOM     12  C   UNL     1       2.791  -4.460   0.487  0.00  0.00    +0.003 C 
ATOM     13  C   UNL     1       3.502  -3.306   1.141  0.00  0.00    +0.033 C 
ATOM     14  C   UNL     1       2.616  -2.050   1.247  0.00  0.00    +0.139 C 
BRANCH  14  15
ATOM     15  O   UNL     1       3.451  -0.915   1.485  0.00  0.00    -0.390 OA
ATOM     16  H   UNL     1       4.010  -0.996   2.271  0.00  0.00    +0.210 HD
ENDBRANCH  14  15
ENDBRANCH   3   8
BRANCH   2  17
ATOM     17  N   UNL     1      -1.096  -0.825   0.009  0.00  0.00    -0.343 N 
ATOM     18  H   UNL     1      -1.988  -0.443   0.019  0.00  0.00    +0.144 HD
ATOM     19  H   UNL     1      -0.982  -1.788   0.003  0.00  0.00    +0.144 HD
ENDBRANCH   2  17
TORSDOF 3
