REMARK  Name = ZINC58889159
REMARK  10 active torsions:
REMARK  status: ('A' for Active; 'I' for Inactive)
REMARK    1  A    between atoms: C_4  and  C_7
REMARK    2  A    between atoms: C_7  and  C_9
REMARK    3  A    between atoms: C_7  and  O_29
REMARK    4  A    between atoms: C_9  and  C_10
REMARK    5  A    between atoms: C_10  and  C_11
REMARK    6  A    between atoms: N_13  and  N_14
REMARK    7  A    between atoms: C_15  and  C_16
REMARK    8  A    between atoms: C_19  and  O_23
REMARK    9  A    between atoms: O_23  and  C_24
REMARK   10  A    between atoms: C_24  and  C_25
REMARK                            x       y       z     vdW  Elec       q    Type
REMARK                         _______ _______ _______ _____ _____    ______ ____
ROOT
ATOM      1  C   UNL     1       6.114  -1.472  -3.052  0.00  0.00    +0.232 C 
ATOM      2  O   UNL     1       5.148  -1.660  -3.760  0.00  0.00    -0.274 OA
ATOM      3  N   UNL     1       7.306  -2.009  -3.381  0.00  0.00    -0.207 N 
ATOM      4  H   UNL     1       8.079  -1.859  -2.815  0.00  0.00    +0.177 HD
ENDROOT
BRANCH   3   5
ATOM      5  N   UNL     1       7.428  -2.784  -4.542  0.00  0.00    -0.188 NA
ATOM      6  C   UNL     1       8.542  -3.398  -4.798  0.00  0.00    +0.138 C 
BRANCH   6   7
ATOM      7  C   UNL     1       9.491  -3.689  -3.707  0.00  0.00    -0.003 A 
ATOM      8  C   UNL     1      10.799  -4.082  -4.003  0.00  0.00    +0.028 A 
ATOM      9  C   UNL     1      11.683  -4.353  -2.979  0.00  0.00    +0.061 A 
ATOM     10  C   UNL     1      11.275  -4.236  -1.657  0.00  0.00    +0.149 A 
ATOM     11  C   UNL     1       9.975  -3.846  -1.358  0.00  0.00    +0.061 A 
ATOM     12  C   UNL     1       9.086  -3.567  -2.375  0.00  0.00    +0.028 A 
ATOM     13 BR   UNL     1       9.426  -3.691   0.444  0.00  0.00    -0.046 Br
ATOM     14 BR   UNL     1      13.454  -4.884  -3.378  0.00  0.00    -0.046 Br
BRANCH  10  15
ATOM     15  O   UNL     1      12.149  -4.505  -0.651  0.00  0.00    -0.478 OA
BRANCH  15  16
ATOM     16  C   UNL     1      12.933  -3.414  -0.166  0.00  0.00    +0.353 C 
BRANCH  16  17
ATOM     17  C   UNL     1      13.838  -3.898   0.939  0.00  0.00    +0.393 C 
ATOM     18  O   UNL     1      13.812  -5.069   1.278  0.00  0.00    -0.243 OA
ATOM     19  O   UNL     1      14.594  -3.119   1.492  0.00  0.00    -0.243 OA
ENDBRANCH  16  17
ENDBRANCH  15  16
ENDBRANCH  10  15
ENDBRANCH   6   7
ENDBRANCH   3   5
BRANCH   1  20
ATOM     20  C   UNL     1       5.983  -0.638  -1.803  0.00  0.00    +0.100 C 
BRANCH  20  21
ATOM     21  C   UNL     1       4.538  -0.153  -1.664  0.00  0.00    +0.045 C 
BRANCH  21  22
ATOM     22  C   UNL     1       4.405   0.693  -0.396  0.00  0.00    +0.145 C 
BRANCH  22  26
ATOM     23  C   UNL     1       0.466   2.332  -0.190  0.00  0.00    +0.000 A 
ATOM     24  C   UNL     1       1.496   3.075  -0.735  0.00  0.00    +0.000 A 
ATOM     25  C   UNL     1       2.770   2.545  -0.802  0.00  0.00    +0.006 A 
ATOM     26  C   UNL     1       3.015   1.272  -0.323  0.00  0.00    -0.019 A 
ATOM     27  C   UNL     1       1.985   0.529   0.224  0.00  0.00    +0.006 A 
ATOM     28  C   UNL     1       0.710   1.059   0.289  0.00  0.00    +0.000 A 
ENDBRANCH  22  26
BRANCH  22  29
ATOM     29  O   UNL     1       4.641  -0.126   0.751  0.00  0.00    -0.387 OA
ATOM     30  H   UNL     1       4.027  -0.868   0.837  0.00  0.00    +0.210 HD
ENDBRANCH  22  29
ENDBRANCH  21  22
ENDBRANCH  20  21
ENDBRANCH   1  20
TORSDOF 10
