REMARK  Name = ZINC45282780
REMARK  4 active torsions:
REMARK  status: ('A' for Active; 'I' for Inactive)
REMARK    1  A    between atoms: C_1  and  C_2
REMARK    2  A    between atoms: C_8  and  N_10
REMARK    3  A    between atoms: C_11  and  C_13
REMARK    4  A    between atoms: C_13  and  N_14
REMARK                            x       y       z     vdW  Elec       q    Type
REMARK                         _______ _______ _______ _____ _____    ______ ____
ROOT
ATOM      1  C   UNL     1       4.209   0.649   2.377  0.00  0.00    +0.213 C 
ENDROOT
BRANCH   1   2
ATOM      2  N   UNL     1       4.722   0.698   3.749  0.00  0.00    -0.215 N 
ATOM      3  C   UNL     1       4.599   1.763   4.566  0.00  0.00    +0.248 C 
ATOM      4  O   UNL     1       4.063   2.821   4.315  0.00  0.00    -0.273 OA
ATOM      5  C   UNL     1       5.269   1.362   5.864  0.00  0.00    +0.122 C 
ATOM      6  C   UNL     1       4.252   1.365   7.002  0.00  0.00    +0.047 C 
ATOM      7  C   UNL     1       4.965   1.617   8.361  0.00  0.00    +0.072 C 
ATOM      8  S   UNL     1       6.199   2.885   7.831  0.00  0.00    -0.158 S 
ATOM      9  C   UNL     1       6.482   2.277   6.116  0.00  0.00    +0.104 C 
ATOM     10  N   UNL     1       5.736  -0.010   5.605  0.00  0.00    -0.284 N 
ATOM     11  C   UNL     1       5.365  -0.311   4.347  0.00  0.00    +0.310 C 
ATOM     12  O   UNL     1       5.592  -1.379   3.813  0.00  0.00    -0.252 OA
ATOM     13  H   UNL     1       6.214  -0.586   6.222  0.00  0.00    +0.151 HD
ENDBRANCH   1   2
BRANCH   1  15
ATOM     14  N   UNL     1       2.116  -0.004   1.231  0.00  0.00    -0.311 N 
ATOM     15  C   UNL     1       2.795   0.128   2.388  0.00  0.00    +0.231 C 
ATOM     16  O   UNL     1       2.268  -0.174   3.438  0.00  0.00    -0.274 OA
ATOM     17  H   UNL     1       2.538   0.237   0.392  0.00  0.00    +0.149 HD
BRANCH  14  24
ATOM     18  C   UNL     1      -0.019   1.526   0.010  0.00  0.00    +0.009 C 
ATOM     19  C   UNL     1       0.002  -0.004   0.002  0.00  0.00    +0.006 C 
ATOM     20  C   UNL     1       0.718  -0.497  -1.257  0.00  0.00    +0.005 C 
ATOM     21  C   UNL     1       0.739  -2.027  -1.265  0.00  0.00    +0.000 C 
ATOM     22  C   UNL     1       1.479  -2.534  -0.026  0.00  0.00    +0.002 C 
ATOM     23  C   UNL     1       0.763  -2.041   1.233  0.00  0.00    +0.022 C 
ATOM     24  C   UNL     1       0.742  -0.511   1.242  0.00  0.00    +0.076 C 
ENDBRANCH  14  24
ENDBRANCH   1  15
TORSDOF 3
