REMARK  Name = ZINC34380645
REMARK  7 active torsions:
REMARK  status: ('A' for Active; 'I' for Inactive)
REMARK    1  A    between atoms: C_1  and  C_2
REMARK    2  A    between atoms: C_2  and  C_4
REMARK    3  A    between atoms: C_2  and  O_33
REMARK    4  A    between atoms: C_4  and  C_30
REMARK    5  A    between atoms: C_9  and  C_12
REMARK    6  A    between atoms: C_17  and  O_18
REMARK    7  A    between atoms: N_21  and  C_24
REMARK                            x       y       z     vdW  Elec       q    Type
REMARK                         _______ _______ _______ _____ _____    ______ ____
ROOT
ATOM      1  C   UNL     1       0.817  -0.735   1.209  0.00  0.00    +0.074 C 
ATOM      2  C   UNL     1       0.678  -2.230   1.479  0.00  0.00    +0.088 C 
ATOM      3  C   UNL     1       1.041  -2.186   3.011  0.00  0.00    +0.077 C 
ATOM      4  C   UNL     1       0.207  -1.095   3.530  0.00  0.00    -0.023 C 
ATOM      5  N   UNL     1       0.133  -0.112   2.389  0.00  0.00    +0.397 N 
ATOM      6  C   UNL     1       1.350  -3.569   3.285  0.00  0.00    +0.225 C 
ATOM      7  O   UNL     1       1.152  -4.180   4.313  0.00  0.00    -0.275 OA
ATOM      8  N   UNL     1       1.917  -4.042   2.128  0.00  0.00    -0.239 N 
ATOM      9  C   UNL     1       1.740  -3.193   1.054  0.00  0.00    +0.225 C 
ATOM     10  O   UNL     1       2.322  -3.215  -0.009  0.00  0.00    -0.275 OA
ATOM     11  H   UNL     1       0.597   0.749   2.638  0.00  0.00    -0.083 HD
ATOM     12  H   UNL     1      -0.834   0.071   2.166  0.00  0.00    -0.083 HD
ENDROOT
BRANCH   4  13
ATOM     13  C   UNL     1      -1.160  -1.610   3.902  0.00  0.00    -0.019 A 
ATOM     14  C   UNL     1      -1.585  -2.840   3.439  0.00  0.00    +0.005 A 
ATOM     15  C   UNL     1      -2.839  -3.312   3.779  0.00  0.00    +0.000 A 
ATOM     16  C   UNL     1      -3.670  -2.555   4.585  0.00  0.00    +0.004 A 
ATOM     17  C   UNL     1      -3.250  -1.325   5.051  0.00  0.00    +0.045 A 
ATOM     18  C   UNL     1      -1.990  -0.851   4.715  0.00  0.00    +0.118 A 
BRANCH  18  19
ATOM     19  O   UNL     1      -1.571   0.356   5.177  0.00  0.00    -0.507 OA
ATOM     20  H   UNL     1      -1.792   1.098   4.596  0.00  0.00    +0.292 HD
ENDBRANCH  18  19
ENDBRANCH   4  13
BRANCH   8  21
ATOM     21  C   UNL     1       2.626  -5.320   2.035  0.00  0.00    +0.084 C 
ATOM     22  C   UNL     1       1.676  -6.459   2.411  0.00  0.00    +0.023 C 
ATOM     23  C   UNL     1       2.417  -7.794   2.315  0.00  0.00    +0.002 C 
ATOM     24  C   UNL     1       3.610  -7.786   3.273  0.00  0.00    +0.000 C 
ATOM     25  C   UNL     1       4.559  -6.648   2.897  0.00  0.00    +0.002 C 
ATOM     26  C   UNL     1       3.819  -5.312   2.994  0.00  0.00    +0.023 C 
ENDBRANCH   8  21
BRANCH   1  27
ATOM     27  C   UNL     1       2.268  -0.332   1.160  0.00  0.00    +0.349 C 
ATOM     28  O   UNL     1       2.708   0.461   1.975  0.00  0.00    -0.248 OA
ATOM     29  O   UNL     1       3.002  -0.798   0.306  0.00  0.00    -0.248 OA
ENDBRANCH   1  27
BRANCH   1  31
ATOM     30  C   UNL     1       0.051   1.172  -0.213  0.00  0.00    +0.037 C 
ATOM     31  C   UNL     1       0.108  -0.352  -0.092  0.00  0.00    +0.112 C 
BRANCH  31  32
ATOM     32  O   UNL     1      -1.221  -0.879  -0.083  0.00  0.00    -0.393 OA
ATOM     33  H   UNL     1      -1.793  -0.490   0.593  0.00  0.00    +0.210 HD
ENDBRANCH  31  32
ENDBRANCH   1  31
TORSDOF 6
