REMARK  Name = ZINC63801439
REMARK  11 active torsions:
REMARK  status: ('A' for Active; 'I' for Inactive)
REMARK    1  A    between atoms: C_1  and  C_2
REMARK    2  A    between atoms: C_2  and  O_3
REMARK    3  A    between atoms: O_3  and  C_4
REMARK    4  A    between atoms: C_7  and  S_10
REMARK    5  A    between atoms: S_10  and  N_13
REMARK    6  A    between atoms: N_13  and  C_14
REMARK    7  A    between atoms: C_14  and  C_16
REMARK    8  A    between atoms: C_14  and  C_26
REMARK    9  A    between atoms: C_16  and  C_17
REMARK   10  A    between atoms: N_28  and  N_29
REMARK   11  A    between atoms: C_30  and  C_32
REMARK                            x       y       z     vdW  Elec       q    Type
REMARK                         _______ _______ _______ _____ _____    ______ ____
ROOT
ATOM      1  C   UNL     1      -0.412  -6.341  -4.100  0.00  0.00    +0.168 C 
ENDROOT
BRANCH   1   2
ATOM      2  C   UNL     1      -1.885  -6.149  -4.352  0.00  0.00    +0.248 C 
ATOM      3  O   UNL     1      -2.685  -6.367  -3.467  0.00  0.00    -0.273 OA
ATOM      4  N   UNL     1      -2.314  -5.737  -5.561  0.00  0.00    -0.233 N 
ATOM      5  H   UNL     1      -1.674  -5.563  -6.269  0.00  0.00    +0.173 HD
BRANCH   4   6
ATOM      6  N   UNL     1      -3.683  -5.559  -5.796  0.00  0.00    -0.228 N 
ATOM      7  C   UNL     1      -4.112  -5.146  -7.005  0.00  0.00    +0.295 C 
ATOM      8  O   UNL     1      -3.309  -4.928  -7.894  0.00  0.00    -0.265 OA
ATOM      9  H   UNL     1      -4.323  -5.733  -5.088  0.00  0.00    +0.173 HD
BRANCH   7  10
ATOM     10  C   UNL     1      -5.546  -4.960  -7.251  0.00  0.00    +0.190 A 
ATOM     11  C   UNL     1      -6.113  -4.553  -8.425  0.00  0.00    +0.054 A 
ATOM     12  C   UNL     1      -7.500  -4.513  -8.210  0.00  0.00    +0.042 A 
ATOM     13  C   UNL     1      -7.715  -4.891  -6.931  0.00  0.00    +0.196 A 
ATOM     14  O   UNL     1      -6.536  -5.166  -6.358  0.00  0.00    -0.458 OA
ENDBRANCH   7  10
ENDBRANCH   4   6
ENDBRANCH   1   2
BRANCH   1  15
ATOM     15  N   UNL     1      -0.207  -6.790  -2.721  0.00  0.00    -0.178 NA
ATOM     16  H   UNL     1      -0.853  -7.379  -2.301  0.00  0.00    +0.149 HD
BRANCH  15  17
ATOM     17  S   UNL     1       1.129  -6.292  -1.878  0.00  0.00    +0.059 S 
ATOM     18  O   UNL     1       2.249  -6.512  -2.724  0.00  0.00    -0.153 OA
ATOM     19  O   UNL     1       1.029  -6.867  -0.582  0.00  0.00    -0.153 OA
BRANCH  17  23
ATOM     20  C   UNL     1       0.777  -1.810  -1.336  0.00  0.00    +0.121 A 
ATOM     21  C   UNL     1       0.243  -2.669  -0.386  0.00  0.00    +0.047 A 
ATOM     22  C   UNL     1       0.351  -4.036  -0.554  0.00  0.00    +0.032 A 
ATOM     23  C   UNL     1       0.992  -4.548  -1.667  0.00  0.00    +0.105 A 
ATOM     24  C   UNL     1       1.525  -3.694  -2.615  0.00  0.00    +0.032 A 
ATOM     25  C   UNL     1       1.414  -2.327  -2.455  0.00  0.00    +0.047 A 
BRANCH  20  26
ATOM     26  O   UNL     1       0.671  -0.465  -1.174  0.00  0.00    -0.492 OA
BRANCH  26  28
ATOM     27  C   UNL     1      -0.019   1.526   0.010  0.00  0.00    +0.048 C 
ATOM     28  C   UNL     1       0.002  -0.004   0.002  0.00  0.00    +0.225 C 
ENDBRANCH  26  28
ENDBRANCH  20  26
ENDBRANCH  17  23
ENDBRANCH  15  17
ENDBRANCH   1  15
BRANCH   1  29
ATOM     29  C   UNL     1       0.139  -7.392  -5.066  0.00  0.00    +0.063 C 
BRANCH  29  30
ATOM     30  C   UNL     1       1.633  -7.495  -4.898  0.00  0.00    -0.040 C 
ATOM     31  C   UNL     1       2.305  -8.381  -4.129  0.00  0.00    -0.001 A 
ATOM     32  C   UNL     1       1.864  -9.471  -3.251  0.00  0.00    +0.010 A 
ATOM     33  C   UNL     1       2.794 -10.202  -2.594  0.00  0.00    +0.001 A 
ATOM     34  C   UNL     1       4.165  -9.945  -2.731  0.00  0.00    +0.002 A 
ATOM     35  C   UNL     1       4.647  -8.960  -3.519  0.00  0.00    +0.026 A 
ATOM     36  C   UNL     1       3.759  -8.130  -4.256  0.00  0.00    +0.043 A 
ATOM     37  N   UNL     1       3.976  -7.128  -5.073  0.00  0.00    -0.380 N 
ATOM     38  C   UNL     1       2.684  -6.633  -5.561  0.00  0.00    +0.144 C 
ATOM     39  H   UNL     1       4.846  -6.775  -5.317  0.00  0.00    +0.160 HD
ENDBRANCH  29  30
ENDBRANCH   1  29
TORSDOF 10
