REMARK  Name = ZINC39069928
REMARK  3 active torsions:
REMARK  status: ('A' for Active; 'I' for Inactive)
REMARK    1  A    between atoms: C_1  and  C_2
REMARK    2  A    between atoms: C_8  and  C_9
REMARK    3  A    between atoms: C_8  and  C_10
REMARK                            x       y       z     vdW  Elec       q    Type
REMARK                         _______ _______ _______ _____ _____    ______ ____
ROOT
ATOM      1  C   UNL     1      -0.018   1.503   0.010  0.00  0.00    +0.110 C 
ATOM      2  C   UNL     1       0.002  -0.004   0.002  0.00  0.00    +0.219 C 
ATOM      3  O   UNL     1       0.020  -0.616   1.048  0.00  0.00    -0.275 OA
ATOM      4  N   UNL     1       0.000  -0.672  -1.169  0.00  0.00    -0.232 N 
ATOM      5  C   UNL     1      -0.011  -0.309  -2.465  0.00  0.00    +0.225 C 
ATOM      6  O   UNL     1      -0.024   0.779  -3.000  0.00  0.00    -0.275 OA
ATOM      7  C   UNL     1      -0.002  -1.705  -3.028  0.00  0.00    +0.126 C 
ATOM      8  C   UNL     1       0.016  -2.085  -1.547  0.00  0.00    +0.068 C 
ATOM      9  C   UNL     1       1.300  -2.803  -1.129  0.00  0.00    +0.037 C 
ENDROOT
BRANCH   8  10
ATOM     10  C   UNL     1      -1.223  -2.826  -1.113  0.00  0.00    -0.008 C 
ATOM     11  C   UNL     1      -1.980  -2.335  -0.164  0.00  0.00    +0.006 C 
ENDBRANCH   8  10
TORSDOF 1
