REMARK  Name = ZINC08824730
REMARK  11 active torsions:
REMARK  status: ('A' for Active; 'I' for Inactive)
REMARK    1  A    between atoms: C_4  and  O_7
REMARK    2  A    between atoms: O_7  and  C_8
REMARK    3  A    between atoms: C_12  and  C_14
REMARK    4  A    between atoms: C_14  and  C_16
REMARK    5  A    between atoms: C_14  and  N_35
REMARK    6  A    between atoms: C_16  and  C_17
REMARK    7  A    between atoms: C_17  and  O_19
REMARK    8  A    between atoms: O_19  and  C_20
REMARK    9  A    between atoms: C_20  and  C_21
REMARK   10  A    between atoms: C_21  and  C_23
REMARK   11  A    between atoms: C_23  and  C_33
REMARK                            x       y       z     vdW  Elec       q    Type
REMARK                         _______ _______ _______ _____ _____    ______ ____
ROOT
ATOM      1  C   UNL     1      -0.991  -2.265  -0.007  0.00  0.00    +0.115 C 
ENDROOT
BRANCH   1   2
ATOM      2  N   UNL     1      -1.050  -0.803  -0.081  0.00  0.00    -0.292 N 
ATOM      3  C   UNL     1      -2.020  -0.134   0.572  0.00  0.00    +0.298 C 
ATOM      4  O   UNL     1      -2.904  -0.745   1.140  0.00  0.00    -0.253 OA
ATOM      5  N   UNL     1      -2.009   1.214   0.596  0.00  0.00    -0.313 N 
ATOM      6  H   UNL     1      -0.390  -0.317  -0.600  0.00  0.00    +0.151 HD
ATOM      7  H   UNL     1      -2.708   1.696   1.067  0.00  0.00    +0.146 HD
ATOM      8  H   UNL     1      -1.301   1.702   0.147  0.00  0.00    +0.146 HD
ENDBRANCH   1   2
BRANCH   1  13
ATOM      9  C   UNL     1      -0.052  -4.124   3.146  0.00  0.00    +0.129 A 
ATOM     10  C   UNL     1       1.077  -3.426   3.550  0.00  0.00    +0.046 A 
ATOM     11  C   UNL     1       1.531  -2.357   2.803  0.00  0.00    +0.004 A 
ATOM     12  C   UNL     1       0.864  -1.986   1.649  0.00  0.00    +0.006 A 
ATOM     13  C   UNL     1      -0.264  -2.676   1.248  0.00  0.00    -0.023 A 
ATOM     14  C   UNL     1      -0.723  -3.746   1.992  0.00  0.00    +0.051 A 
BRANCH   9  15
ATOM     15  O   UNL     1      -0.501  -5.176   3.880  0.00  0.00    -0.456 OA
BRANCH  15  19
ATOM     16  C   UNL     1       1.688  -6.301   7.191  0.00  0.00    +0.000 A 
ATOM     17  C   UNL     1       0.810  -5.236   7.273  0.00  0.00    +0.004 A 
ATOM     18  C   UNL     1       0.076  -4.857   6.166  0.00  0.00    +0.046 A 
ATOM     19  C   UNL     1       0.220  -5.547   4.971  0.00  0.00    +0.128 A 
ATOM     20  C   UNL     1       1.097  -6.619   4.893  0.00  0.00    +0.046 A 
ATOM     21  C   UNL     1       1.833  -6.990   6.001  0.00  0.00    +0.004 A 
ENDBRANCH  15  19
ENDBRANCH   9  15
ENDBRANCH   1  13
BRANCH   1  22
ATOM     22  C   UNL     1      -0.248  -2.809  -1.229  0.00  0.00    +0.147 C 
BRANCH  22  23
ATOM     23  C   UNL     1      -1.039  -2.504  -2.475  0.00  0.00    +0.310 C 
ATOM     24  O   UNL     1      -2.089  -1.913  -2.394  0.00  0.00    -0.251 OA
BRANCH  23  25
ATOM     25  O   UNL     1      -0.576  -2.889  -3.674  0.00  0.00    -0.456 OA
BRANCH  25  26
ATOM     26  C   UNL     1      -1.390  -2.562  -4.831  0.00  0.00    +0.312 C 
BRANCH  26  27
ATOM     27  C   UNL     1      -0.716  -3.069  -6.080  0.00  0.00    +0.214 C 
ATOM     28  O   UNL     1       0.348  -3.651  -6.002  0.00  0.00    -0.288 OA
BRANCH  27  29
ATOM     29  C   UNL     1      -1.318  -2.870  -7.334  0.00  0.00    +0.133 C 
ATOM     30  C   UNL     1      -0.689  -3.344  -8.499  0.00  0.00    +0.114 C 
ATOM     31  N   UNL     1       0.499  -4.000  -8.540  0.00  0.00    -0.300 N 
ATOM     32  C   UNL     1       0.783  -4.307  -9.866  0.00  0.00    +0.054 A 
ATOM     33  C   UNL     1       1.841  -4.960 -10.482  0.00  0.00    +0.025 A 
ATOM     34  C   UNL     1       1.850  -5.112 -11.854  0.00  0.00    +0.002 A 
ATOM     35  C   UNL     1       0.807  -4.615 -12.619  0.00  0.00    +0.002 A 
ATOM     36  C   UNL     1      -0.250  -3.965 -12.016  0.00  0.00    +0.025 A 
ATOM     37  C   UNL     1      -0.269  -3.806 -10.637  0.00  0.00    +0.054 A 
ATOM     38  N   UNL     1      -1.171  -3.212  -9.762  0.00  0.00    -0.300 N 
ATOM     39  H   UNL     1       1.054  -4.220  -7.775  0.00  0.00    +0.153 HD
ATOM     40  H   UNL     1      -2.002  -2.778 -10.011  0.00  0.00    +0.153 HD
BRANCH  29  41
ATOM     41  C   UNL     1      -2.572  -2.185  -7.425  0.00  0.00    +0.106 C 
ATOM     42  N   UNL     1      -3.567  -1.641  -7.497  0.00  0.00    -0.191 NA
ENDBRANCH  29  41
ENDBRANCH  27  29
ENDBRANCH  26  27
ENDBRANCH  25  26
ENDBRANCH  23  25
ENDBRANCH  22  23
ENDBRANCH   1  22
TORSDOF 11
