REMARK  Name = ZINC13569520
REMARK  8 active torsions:
REMARK  status: ('A' for Active; 'I' for Inactive)
REMARK    1  A    between atoms: C_7  and  N_12
REMARK    2  A    between atoms: C_16  and  C_19
REMARK    3  A    between atoms: N_21  and  C_22
REMARK    4  A    between atoms: C_22  and  C_23
REMARK    5  A    between atoms: C_23  and  C_24
REMARK    6  A    between atoms: C_24  and  C_25
REMARK    7  A    between atoms: C_25  and  C_26
REMARK    8  A    between atoms: C_26  and  O_27
REMARK                            x       y       z     vdW  Elec       q    Type
REMARK                         _______ _______ _______ _____ _____    ______ ____
ROOT
ATOM      1  N   UNL     1       1.143  -2.858  -0.024  0.00  0.00    -0.313 N 
ATOM      2  C   UNL     1      -0.320  -2.794   0.095  0.00  0.00    +0.106 C 
ATOM      3  C   UNL     1      -0.759  -3.691   1.257  0.00  0.00    +0.020 C 
ATOM      4  C   UNL     1      -0.207  -5.102   1.044  0.00  0.00    +0.016 C 
ATOM      5  C   UNL     1       1.322  -5.055   1.023  0.00  0.00    +0.092 C 
ATOM      6  C   UNL     1       1.785  -4.174  -0.147  0.00  0.00    +0.119 C 
ENDROOT
BRANCH   1  13
ATOM      7  C   UNL     1       5.360  -2.226  -0.680  0.00  0.00    +0.198 A 
ATOM      8  N   UNL     1       5.307  -0.873  -0.521  0.00  0.00    -0.329 N 
ATOM      9  H   UNL     1       6.055  -0.258  -0.582  0.00  0.00    +0.168 HD
ATOM     10  C   UNL     1       4.002  -0.540  -0.258  0.00  0.00    +0.164 A 
ATOM     11  C   UNL     1       3.285  -1.748  -0.269  0.00  0.00    +0.148 A 
ATOM     12  N   UNL     1       4.172  -2.737  -0.532  0.00  0.00    -0.231 NA
ATOM     13  C   UNL     1       1.902  -1.700  -0.025  0.00  0.00    +0.154 A 
ATOM     14  N   UNL     1       1.339  -0.519   0.203  0.00  0.00    -0.200 NA
ATOM     15  C   UNL     1       2.055   0.592   0.204  0.00  0.00    +0.226 A 
ATOM     16  N   UNL     1       3.353   0.595  -0.020  0.00  0.00    -0.198 NA
ATOM     17 CL   UNL     1       1.255   2.102   0.509  0.00  0.00    -0.041 Cl
ENDBRANCH   1  13
BRANCH   5  18
ATOM     18  C   UNL     1       1.866  -6.449   0.847  0.00  0.00    +0.218 C 
ATOM     19  O   UNL     1       2.558  -6.714  -0.113  0.00  0.00    -0.275 OA
ATOM     20  N   UNL     1       1.583  -7.403   1.756  0.00  0.00    -0.315 N 
ATOM     21  H   UNL     1       1.029  -7.191   2.524  0.00  0.00    +0.149 HD
BRANCH  20  22
ATOM     22  C   UNL     1       2.111  -8.758   1.585  0.00  0.00    +0.104 C 
BRANCH  22  23
ATOM     23  C   UNL     1       1.645  -9.638   2.747  0.00  0.00    +0.019 C 
BRANCH  23  24
ATOM     24  C   UNL     1       2.196 -11.054   2.568  0.00  0.00    +0.004 C 
BRANCH  24  25
ATOM     25  C   UNL     1       1.730 -11.934   3.730  0.00  0.00    +0.028 C 
BRANCH  25  26
ATOM     26  C   UNL     1       2.282 -13.349   3.551  0.00  0.00    +0.156 C 
BRANCH  26  27
ATOM     27  O   UNL     1       1.846 -14.171   4.636  0.00  0.00    -0.395 OA
ATOM     28  H   UNL     1       2.159 -15.085   4.588  0.00  0.00    +0.209 HD
ENDBRANCH  26  27
ENDBRANCH  25  26
ENDBRANCH  24  25
ENDBRANCH  23  24
ENDBRANCH  22  23
ENDBRANCH  20  22
ENDBRANCH   5  18
TORSDOF 8
