REMARK  Name = ZINC23969246
REMARK  7 active torsions:
REMARK  status: ('A' for Active; 'I' for Inactive)
REMARK    1  A    between atoms: C_1  and  C_2
REMARK    2  A    between atoms: C_2  and  N_3
REMARK    3  A    between atoms: C_12  and  S_13
REMARK    4  A    between atoms: S_13  and  C_14
REMARK    5  A    between atoms: C_14  and  C_16
REMARK    6  A    between atoms: C_14  and  C_17
REMARK    7  A    between atoms: C_30  and  C_34
REMARK                            x       y       z     vdW  Elec       q    Type
REMARK                         _______ _______ _______ _____ _____    ______ ____
ROOT
ATOM      1  N   UNL     1      -2.103   1.072   1.277  0.00  0.00    -0.288 N 
ATOM      2  C   UNL     1      -2.365  -0.112   1.860  0.00  0.00    +0.263 A 
ATOM      3  O   UNL     1      -1.470  -0.760   2.374  0.00  0.00    -0.267 OA
ATOM      4  C   UNL     1      -3.710  -0.602   1.867  0.00  0.00    +0.076 A 
ATOM      5  C   UNL     1      -4.218  -1.850   2.438  0.00  0.00    -0.023 A 
ATOM      6  C   UNL     1      -5.540  -2.087   2.313  0.00  0.00    -0.004 A 
ATOM      7  S   UNL     1      -6.179  -0.682   1.441  0.00  0.00    -0.073 S 
ATOM      8  C   UNL     1      -4.664   0.222   1.246  0.00  0.00    +0.117 A 
ATOM      9  N   UNL     1      -4.340   1.383   0.688  0.00  0.00    -0.216 NA
ATOM     10  C   UNL     1      -3.094   1.813   0.701  0.00  0.00    +0.173 A 
ATOM     11  C   UNL     1      -6.299  -3.280   2.807  0.00  0.00    +0.046 C 
ATOM     12  C   UNL     1      -5.416  -4.034   3.812  0.00  0.00    -0.009 C 
ATOM     13  C   UNL     1      -4.020  -4.205   3.206  0.00  0.00    +0.008 C 
ATOM     14  C   UNL     1      -3.310  -2.852   3.146  0.00  0.00    +0.037 C 
ATOM     15  C   UNL     1      -6.024  -5.409   4.099  0.00  0.00    +0.008 C 
ENDROOT
BRANCH   1  17
ATOM     16  C   UNL     1      -0.013   1.086   0.008  0.00  0.00    +0.027 C 
ATOM     17  C   UNL     1      -0.729   1.579   1.267  0.00  0.00    +0.124 C 
ENDBRANCH   1  17
BRANCH  10  18
ATOM     18  S   UNL     1      -2.702   3.361  -0.043  0.00  0.00    -0.077 S 
BRANCH  18  19
ATOM     19  C   UNL     1      -4.345   3.861  -0.614  0.00  0.00    +0.117 C 
ATOM     20  C   UNL     1      -5.257   4.089   0.593  0.00  0.00    +0.027 C 
BRANCH  19  21
ATOM     21  C   UNL     1      -4.234   5.137  -1.408  0.00  0.00    +0.124 A 
ATOM     22  N   UNL     1      -5.063   5.309  -2.471  0.00  0.00    -0.309 N 
ATOM     23  H   UNL     1      -5.788   4.525  -2.735  0.00  0.00    +0.170 HD
ATOM     24  C   UNL     1      -5.007   6.439  -3.213  0.00  0.00    +0.259 A 
ATOM     25  O   UNL     1      -5.747   6.608  -4.165  0.00  0.00    -0.267 OA
ATOM     26  C   UNL     1      -4.013   7.453  -2.828  0.00  0.00    +0.065 A 
ATOM     27  C   UNL     1      -3.870   8.648  -3.529  0.00  0.00    +0.015 A 
ATOM     28  C   UNL     1      -2.923   9.563  -3.125  0.00  0.00    +0.001 A 
ATOM     29  C   UNL     1      -2.112   9.302  -2.028  0.00  0.00    +0.002 A 
ATOM     30  C   UNL     1      -2.237   8.127  -1.322  0.00  0.00    +0.028 A 
ATOM     31  C   UNL     1      -3.191   7.184  -1.712  0.00  0.00    +0.078 A 
ATOM     32  N   UNL     1      -3.348   6.013  -1.045  0.00  0.00    -0.233 NA
ENDBRANCH  19  21
ENDBRANCH  18  19
ENDBRANCH  10  18
TORSDOF 4
