REMARK  Name = ZINC39363233
REMARK  7 active torsions:
REMARK  status: ('A' for Active; 'I' for Inactive)
REMARK    1  A    between atoms: C_1  and  C_2
REMARK    2  A    between atoms: C_4  and  C_14
REMARK    3  A    between atoms: C_14  and  C_16
REMARK    4  A    between atoms: C_14  and  N_17
REMARK    5  A    between atoms: C_18  and  C_20
REMARK    6  A    between atoms: C_23  and  C_25
REMARK    7  A    between atoms: N_29  and  C_30
REMARK                            x       y       z     vdW  Elec       q    Type
REMARK                         _______ _______ _______ _____ _____    ______ ____
ROOT
ATOM      1  C   UNL     1       0.486  -0.419  -2.791  0.00  0.00    +0.100 C 
ATOM      2  C   UNL     1      -0.861  -1.082  -3.088  0.00  0.00    +0.033 C 
ENDROOT
BRANCH   1   5
ATOM      3  C   UNL     1      -0.420  -2.275  -0.297  0.00  0.00    +0.035 C 
ATOM      4  C   UNL     1       0.808  -1.361  -0.288  0.00  0.00    +0.122 C 
ATOM      5  C   UNL     1       0.646  -0.250  -1.302  0.00  0.00    -0.013 C 
ATOM      6  C   UNL     1       0.669   0.890  -0.646  0.00  0.00    +0.091 C 
ATOM      7  N   UNL     1       0.830   0.700   0.713  0.00  0.00    -0.269 N 
ATOM      8  N   UNL     1       0.924  -0.670   1.007  0.00  0.00    -0.230 N 
ATOM      9  C   UNL     1       1.091  -1.253   2.257  0.00  0.00    +0.138 A 
ATOM     10  C   UNL     1       1.178  -0.447   3.388  0.00  0.00    +0.045 A 
ATOM     11  C   UNL     1       1.343  -1.041   4.626  0.00  0.00    +0.005 A 
ATOM     12  C   UNL     1       1.416  -2.426   4.692  0.00  0.00    +0.020 A 
ATOM     13  C   UNL     1       1.322  -3.164   3.530  0.00  0.00    +0.113 A 
ATOM     14  N   UNL     1       1.160  -2.571   2.363  0.00  0.00    -0.239 NA
ATOM     15  H   UNL     1       0.873   1.412   1.371  0.00  0.00    +0.170 HD
ENDBRANCH   1   5
BRANCH   1  16
ATOM     16  N   UNL     1       0.538   0.894  -3.439  0.00  0.00    -0.304 N 
ATOM     17  C   UNL     1       0.976   1.001  -4.709  0.00  0.00    +0.261 C 
ATOM     18  O   UNL     1       1.328   0.008  -5.318  0.00  0.00    -0.269 OA
ATOM     19  H   UNL     1       0.257   1.686  -2.954  0.00  0.00    +0.150 HD
BRANCH  17  20
ATOM     20  C   UNL     1       1.027   2.312  -5.356  0.00  0.00    +0.131 C 
ATOM     21  N   UNL     1       0.692   3.469  -4.841  0.00  0.00    -0.148 NA
ATOM     22  N   UNL     1       0.837   4.459  -5.631  0.00  0.00    -0.151 NA
ATOM     23  C   UNL     1       1.299   4.134  -6.824  0.00  0.00    +0.093 C 
ATOM     24  C   UNL     1       1.488   2.627  -6.770  0.00  0.00    +0.122 C 
BRANCH  23  25
ATOM     25  C   UNL     1       1.564   4.995  -7.906  0.00  0.00    +0.065 A 
ATOM     26  C   UNL     1       1.392   6.373  -7.923  0.00  0.00    +0.029 A 
ATOM     27  C   UNL     1       1.774   6.817  -9.188  0.00  0.00    +0.020 A 
ATOM     28  C   UNL     1       2.165   5.737  -9.911  0.00  0.00    +0.086 A 
ATOM     29  N   UNL     1       2.047   4.626  -9.144  0.00  0.00    -0.349 N 
ATOM     30  C   UNL     1       2.375   3.260  -9.561  0.00  0.00    +0.149 C 
ENDBRANCH  23  25
ENDBRANCH  17  20
ENDBRANCH   1  16
TORSDOF 4
