REMARK  Name = ZINC39939296
REMARK  8 active torsions:
REMARK  status: ('A' for Active; 'I' for Inactive)
REMARK    1  A    between atoms: C_1  and  C_2
REMARK    2  A    between atoms: C_2  and  C_3
REMARK    3  A    between atoms: C_2  and  C_4
REMARK    4  A    between atoms: C_4  and  C_5
REMARK    5  A    between atoms: C_5  and  N_6
REMARK    6  A    between atoms: N_15  and  C_20
REMARK    7  A    between atoms: N_18  and  C_19
REMARK    8  A    between atoms: C_20  and  C_21
REMARK                            x       y       z     vdW  Elec       q    Type
REMARK                         _______ _______ _______ _____ _____    ______ ____
ROOT
ATOM      1  N   UNL     1      -3.510  -0.638  -1.275  0.00  0.00    -0.252 NA
ATOM      2  C   UNL     1      -4.512   0.195  -1.261  0.00  0.00    +0.213 C 
ATOM      3  N   UNL     1      -5.846  -0.179  -1.245  0.00  0.00    -0.290 N 
ATOM      4  C   UNL     1      -6.588   1.060  -1.025  0.00  0.00    +0.220 C 
ATOM      5  C   UNL     1      -5.521   2.137  -1.194  0.00  0.00    +0.145 C 
ATOM      6  N   UNL     1      -4.389   1.552  -1.255  0.00  0.00    -0.211 NA
ATOM      7  C   UNL     1      -5.929   3.555  -1.382  0.00  0.00    +0.272 C 
ATOM      8  O   UNL     1      -5.263   4.497  -1.004  0.00  0.00    -0.268 OA
ATOM      9  N   UNL     1      -7.126   3.691  -2.022  0.00  0.00    -0.216 N 
ATOM     10  C   UNL     1      -7.826   2.619  -2.417  0.00  0.00    +0.313 C 
ATOM     11  O   UNL     1      -8.755   2.813  -3.176  0.00  0.00    -0.252 OA
ATOM     12  N   UNL     1      -7.605   1.336  -2.040  0.00  0.00    -0.264 N 
ATOM     13  C   UNL     1      -8.358   0.236  -2.647  0.00  0.00    +0.136 C 
ATOM     14  H   UNL     1      -6.209  -1.072  -1.356  0.00  0.00    +0.151 HD
ENDROOT
BRANCH   1  15
ATOM     15  C   UNL     1      -2.135  -0.131  -1.286  0.00  0.00    +0.145 C 
BRANCH  15  16
ATOM     16  C   UNL     1      -1.433  -0.534   0.013  0.00  0.00    +0.026 C 
BRANCH  16  18
ATOM     17  C   UNL     1      -0.019   1.526   0.010  0.00  0.00    +0.007 C 
ATOM     18  C   UNL     1       0.002  -0.004   0.002  0.00  0.00    -0.015 C 
ATOM     19  C   UNL     1       0.742  -0.511   1.242  0.00  0.00    +0.007 C 
ENDBRANCH  16  18
ENDBRANCH  15  16
ENDBRANCH   1  15
BRANCH   9  20
ATOM     20  C   UNL     1      -7.655   5.032  -2.282  0.00  0.00    +0.153 C 
BRANCH  20  21
ATOM     21  C   UNL     1      -7.165   5.514  -3.623  0.00  0.00    -0.028 A 
ATOM     22  C   UNL     1      -5.974   6.212  -3.713  0.00  0.00    +0.005 A 
ATOM     23  C   UNL     1      -5.524   6.655  -4.942  0.00  0.00    +0.002 A 
ATOM     24  C   UNL     1      -6.263   6.401  -6.083  0.00  0.00    +0.020 A 
ATOM     25  C   UNL     1      -7.454   5.703  -5.993  0.00  0.00    +0.041 A 
ATOM     26  C   UNL     1      -7.901   5.254  -4.763  0.00  0.00    +0.025 A 
ATOM     27 CL   UNL     1      -8.382   5.383  -7.424  0.00  0.00    -0.084 Cl
ENDBRANCH  20  21
ENDBRANCH   9  20
TORSDOF 5
