REMARK  Name = ZINC40156421
REMARK  5 active torsions:
REMARK  status: ('A' for Active; 'I' for Inactive)
REMARK    1  A    between atoms: C_10  and  C_16
REMARK    2  A    between atoms: C_19  and  O_22
REMARK    3  A    between atoms: O_22  and  C_23
REMARK    4  A    between atoms: C_23  and  C_24
REMARK    5  A    between atoms: C_24  and  C_25
REMARK                            x       y       z     vdW  Elec       q    Type
REMARK                         _______ _______ _______ _____ _____    ______ ____
ROOT
ATOM      1  C   UNL     1      -0.017   1.372   0.010  0.00  0.00    +0.002 A 
ATOM      2  C   UNL     1       1.170   2.091   0.002  0.00  0.00    +0.002 A 
ATOM      3  C   UNL     1       2.384   1.437  -0.012  0.00  0.00    +0.028 A 
ATOM      4  C   UNL     1       2.424   0.050  -0.019  0.00  0.00    +0.072 A 
ATOM      5  C   UNL     1       1.223  -0.683  -0.013  0.00  0.00    +0.091 A 
ATOM      6  C   UNL     1       0.002  -0.004   0.002  0.00  0.00    +0.030 A 
ATOM      7  N   UNL     1       1.555  -2.003  -0.027  0.00  0.00    -0.214 NA
ATOM      8  C   UNL     1       2.850  -2.125  -0.041  0.00  0.00    +0.205 A 
ATOM      9  N   UNL     1       3.436  -0.883  -0.028  0.00  0.00    -0.288 N 
ATOM     10  C   UNL     1       4.887  -0.668  -0.018  0.00  0.00    +0.209 C 
ATOM     11  N   UNL     1       5.532  -1.947  -0.371  0.00  0.00    -0.294 N 
ATOM     12  C   UNL     1       4.978  -3.114   0.135  0.00  0.00    +0.159 C 
ATOM     13  N   UNL     1       3.609  -3.293  -0.069  0.00  0.00    -0.259 N 
ATOM     14  N   UNL     1       5.698  -3.997   0.768  0.00  0.00    -0.375 N 
ATOM     15  H   UNL     1       6.318  -1.972  -0.939  0.00  0.00    +0.151 HD
ATOM     16  H   UNL     1       6.647  -3.846   0.895  0.00  0.00    +0.158 HD
ATOM     17  H   UNL     1       3.215  -4.167  -0.219  0.00  0.00    +0.158 HD
ATOM     18  H   UNL     1       5.284  -4.804   1.111  0.00  0.00    +0.158 HD
ENDROOT
BRANCH  10  19
ATOM     19  C   UNL     1       5.329  -0.234   1.355  0.00  0.00    -0.007 A 
ATOM     20  C   UNL     1       5.505  -1.174   2.354  0.00  0.00    +0.011 A 
ATOM     21  C   UNL     1       5.910  -0.778   3.614  0.00  0.00    +0.046 A 
ATOM     22  C   UNL     1       6.140   0.564   3.877  0.00  0.00    +0.121 A 
ATOM     23  C   UNL     1       5.963   1.506   2.874  0.00  0.00    +0.046 A 
ATOM     24  C   UNL     1       5.564   1.104   1.614  0.00  0.00    +0.011 A 
BRANCH  22  25
ATOM     25  O   UNL     1       6.538   0.956   5.116  0.00  0.00    -0.491 OA
BRANCH  25  26
ATOM     26  C   UNL     1       6.757   2.354   5.315  0.00  0.00    +0.240 C 
BRANCH  26  27
ATOM     27  C   UNL     1       7.197   2.602   6.759  0.00  0.00    +0.166 C 
BRANCH  27  28
ATOM     28  C   UNL     1       7.427   4.076   6.969  0.00  0.00    +0.359 C 
ATOM     29  O   UNL     1       7.256   4.857   6.049  0.00  0.00    -0.246 OA
ATOM     30  O   UNL     1       7.785   4.488   8.059  0.00  0.00    -0.246 OA
ENDBRANCH  27  28
ENDBRANCH  26  27
ENDBRANCH  25  26
ENDBRANCH  22  25
ENDBRANCH  10  19
TORSDOF 5
