REMARK  Name = ZINC36694557
REMARK  9 active torsions:
REMARK  status: ('A' for Active; 'I' for Inactive)
REMARK    1  A    between atoms: C_4  and  C_7
REMARK    2  A    between atoms: C_7  and  C_8
REMARK    3  A    between atoms: C_8  and  C_10
REMARK    4  A    between atoms: C_8  and  N_28
REMARK    5  A    between atoms: N_12  and  C_13
REMARK    6  A    between atoms: C_13  and  C_14
REMARK    7  A    between atoms: C_14  and  C_16
REMARK    8  A    between atoms: C_14  and  N_23
REMARK    9  A    between atoms: C_29  and  C_31
REMARK                            x       y       z     vdW  Elec       q    Type
REMARK                         _______ _______ _______ _____ _____    ______ ____
ROOT
ATOM      1  C   UNL     1       5.299  -1.737   1.022  0.00  0.00    +0.234 C 
ATOM      2  O   UNL     1       6.265  -1.264   1.582  0.00  0.00    -0.274 OA
ATOM      3  N   UNL     1       5.340  -3.002   0.559  0.00  0.00    -0.315 N 
ATOM      4  H   UNL     1       4.567  -3.380   0.111  0.00  0.00    +0.149 HD
ENDROOT
BRANCH   1   5
ATOM      5  C   UNL     1       4.051  -0.910   0.844  0.00  0.00    +0.163 C 
BRANCH   5   6
ATOM      6  N   UNL     1       4.258   0.418   1.429  0.00  0.00    -0.297 N 
ATOM      7  C   UNL     1       3.201   1.141   1.849  0.00  0.00    +0.280 C 
ATOM      8  O   UNL     1       2.075   0.691   1.743  0.00  0.00    -0.267 OA
ATOM      9  H   UNL     1       5.155   0.776   1.514  0.00  0.00    +0.150 HD
BRANCH   7  10
ATOM     10  C   UNL     1       3.408   2.470   2.434  0.00  0.00    +0.189 A 
ATOM     11  C   UNL     1       2.431   3.301   2.902  0.00  0.00    +0.054 A 
ATOM     12  C   UNL     1       3.076   4.457   3.370  0.00  0.00    +0.042 A 
ATOM     13  C   UNL     1       4.401   4.283   3.169  0.00  0.00    +0.196 A 
ATOM     14  O   UNL     1       4.597   3.082   2.609  0.00  0.00    -0.458 OA
ENDBRANCH   7  10
ENDBRANCH   5   6
BRANCH   5  15
ATOM     15  C   UNL     1       3.742  -0.768  -0.647  0.00  0.00    +0.067 C 
BRANCH  15  19
ATOM     16  C   UNL     1       0.024   1.276  -1.144  0.00  0.00    +0.000 A 
ATOM     17  C   UNL     1       1.204   1.993  -1.083  0.00  0.00    +0.000 A 
ATOM     18  C   UNL     1       2.408   1.332  -0.922  0.00  0.00    +0.004 A 
ATOM     19  C   UNL     1       2.430  -0.047  -0.822  0.00  0.00    -0.045 A 
ATOM     20  C   UNL     1       1.250  -0.764  -0.882  0.00  0.00    +0.004 A 
ATOM     21  C   UNL     1       0.047  -0.102  -1.045  0.00  0.00    +0.000 A 
ENDBRANCH  15  19
ENDBRANCH   5  15
ENDBRANCH   1   5
BRANCH   3  22
ATOM     22  C   UNL     1       6.553  -3.806   0.732  0.00  0.00    +0.093 C 
BRANCH  22  23
ATOM     23  C   UNL     1       6.296  -5.230   0.235  0.00  0.00    -0.019 C 
BRANCH  23  24
ATOM     24  C   UNL     1       6.050  -5.206  -1.252  0.00  0.00    -0.041 A 
ATOM     25  C   UNL     1       4.756  -5.150  -1.738  0.00  0.00    +0.003 A 
ATOM     26  C   UNL     1       4.531  -5.128  -3.101  0.00  0.00    +0.000 A 
ATOM     27  C   UNL     1       5.598  -5.162  -3.980  0.00  0.00    +0.001 A 
ATOM     28  C   UNL     1       6.891  -5.218  -3.495  0.00  0.00    +0.020 A 
ATOM     29  C   UNL     1       7.118  -5.234  -2.130  0.00  0.00    +0.043 A 
ATOM     30 CL   UNL     1       8.742  -5.297  -1.521  0.00  0.00    -0.083 Cl
ENDBRANCH  23  24
BRANCH  23  31
ATOM     31  N   UNL     1       5.118  -5.782   0.917  0.00  0.00    +0.385 N 
ATOM     32  C   UNL     1       4.915  -7.199   0.523  0.00  0.00    -0.078 C 
ATOM     33  C   UNL     1       4.063  -7.771   1.684  0.00  0.00    -0.020 C 
ATOM     34  C   UNL     1       4.651  -7.063   2.926  0.00  0.00    -0.020 C 
ATOM     35  C   UNL     1       5.337  -5.797   2.380  0.00  0.00    -0.078 C 
ATOM     36  H   UNL     1       4.298  -5.237   0.694  0.00  0.00    -0.081 HD
ENDBRANCH  23  31
ENDBRANCH  22  23
ENDBRANCH   3  22
TORSDOF 9
