REMARK  Name = ZINC09547058
REMARK  6 active torsions:
REMARK  status: ('A' for Active; 'I' for Inactive)
REMARK    1  A    between atoms: C_1  and  C_2
REMARK    2  A    between atoms: C_5  and  N_27
REMARK    3  A    between atoms: C_7  and  N_8
REMARK    4  A    between atoms: C_9  and  C_11
REMARK    5  A    between atoms: N_15  and  C_18
REMARK    6  A    between atoms: C_18  and  C_19
REMARK                            x       y       z     vdW  Elec       q    Type
REMARK                         _______ _______ _______ _____ _____    ______ ____
ROOT
ATOM      1  C   UNL     1       5.009   1.567  -0.308  0.00  0.00    +0.101 A 
ATOM      2  C   UNL     1       6.253   2.195  -0.284  0.00  0.00    +0.020 A 
ATOM      3  C   UNL     1       7.406   1.415  -0.363  0.00  0.00    +0.019 A 
ATOM      4  C   UNL     1       7.309   0.064  -0.462  0.00  0.00    +0.089 A 
ATOM      5  N   UNL     1       6.104  -0.554  -0.485  0.00  0.00    -0.310 N 
ATOM      6  C   UNL     1       4.960   0.152  -0.406  0.00  0.00    +0.264 A 
ATOM      7  O   UNL     1       3.885  -0.422  -0.423  0.00  0.00    -0.267 OA
ENDROOT
BRANCH   1   9
ATOM      8  N   UNL     1       2.580   1.731  -0.127  0.00  0.00    -0.281 N 
ATOM      9  C   UNL     1       3.771   2.355  -0.226  0.00  0.00    +0.254 C 
ATOM     10  O   UNL     1       3.821   3.571  -0.248  0.00  0.00    -0.270 OA
ATOM     11  H   UNL     1       2.544   0.766  -0.036  0.00  0.00    +0.155 HD
BRANCH   8  18
ATOM     12  C   UNL     1       0.292   0.569  -1.356  0.00  0.00    +0.045 C 
ATOM     13  C   UNL     1       0.256   1.946  -0.745  0.00  0.00    -0.029 A 
ATOM     14  C   UNL     1      -0.911   2.686  -0.776  0.00  0.00    +0.007 A 
ATOM     15  C   UNL     1      -0.946   3.947  -0.211  0.00  0.00    +0.033 A 
ATOM     16  C   UNL     1       0.188   4.477   0.377  0.00  0.00    +0.128 A 
ATOM     17  C   UNL     1       1.359   3.745   0.406  0.00  0.00    +0.056 A 
ATOM     18  C   UNL     1       1.396   2.475  -0.156  0.00  0.00    +0.039 A 
BRANCH  16  19
ATOM     19  N   UNL     1       0.147   5.831   0.975  0.00  0.00    +0.056 N 
ATOM     20  O   UNL     1       1.146   6.298   1.492  0.00  0.00    -0.126 OA
ATOM     21  O   UNL     1      -0.885   6.477   0.949  0.00  0.00    -0.126 OA
ENDBRANCH  16  19
ENDBRANCH   8  18
ENDBRANCH   1   9
BRANCH   5  22
ATOM     22  C   UNL     1       6.044  -2.014  -0.592  0.00  0.00    +0.161 C 
BRANCH  22  23
ATOM     23  C   UNL     1       5.850  -2.404  -2.035  0.00  0.00    -0.009 A 
ATOM     24  C   UNL     1       4.587  -2.715  -2.503  0.00  0.00    +0.008 A 
ATOM     25  C   UNL     1       4.407  -3.068  -3.827  0.00  0.00    +0.020 A 
ATOM     26  C   UNL     1       5.493  -3.120  -4.683  0.00  0.00    +0.042 A 
ATOM     27  C   UNL     1       6.758  -2.813  -4.214  0.00  0.00    +0.040 A 
ATOM     28  C   UNL     1       6.936  -2.455  -2.890  0.00  0.00    +0.047 A 
ATOM     29 CL   UNL     1       8.524  -2.071  -2.300  0.00  0.00    -0.083 Cl
ATOM     30 CL   UNL     1       5.269  -3.570  -6.344  0.00  0.00    -0.083 Cl
ENDBRANCH  22  23
ENDBRANCH   5  22
TORSDOF 5
