REMARK  Name = ZINC41186757
REMARK  4 active torsions:
REMARK  status: ('A' for Active; 'I' for Inactive)
REMARK    1  A    between atoms: C_1  and  C_2
REMARK    2  A    between atoms: C_9  and  C_14
REMARK    3  A    between atoms: C_14  and  C_15
REMARK    4  A    between atoms: C_15  and  C_16
REMARK                            x       y       z     vdW  Elec       q    Type
REMARK                         _______ _______ _______ _____ _____    ______ ____
ROOT
ATOM      1  C   UNL     1       0.088  -5.040   3.609  0.00  0.00    +0.050 C 
ENDROOT
BRANCH   1  10
ATOM      2  C   UNL     1      -0.059   1.408  -0.137  0.00  0.00    +0.044 C 
ATOM      3  C   UNL     1      -0.024  -0.099  -0.115  0.00  0.00    -0.050 A 
ATOM      4  C   UNL     1      -0.005  -0.804  -1.310  0.00  0.00    +0.005 A 
ATOM      5  C   UNL     1       0.027  -2.182  -1.313  0.00  0.00    +0.026 A 
ATOM      6  C   UNL     1       0.041  -2.875  -0.107  0.00  0.00    +0.049 A 
ATOM      7  C   UNL     1       0.023  -2.156   1.103  0.00  0.00    -0.001 A 
ATOM      8  C   UNL     1      -0.004  -0.758   1.082  0.00  0.00    +0.013 A 
ATOM      9  C   UNL     1       0.039  -2.894   2.367  0.00  0.00    +0.019 A 
ATOM     10  C   UNL     1       0.071  -4.249   2.326  0.00  0.00    +0.018 A 
ATOM     11  C   UNL     1       0.088  -4.922   1.085  0.00  0.00    +0.252 A 
ATOM     12  O   UNL     1       0.117  -6.141   1.070  0.00  0.00    -0.268 OA
ATOM     13  N   UNL     1       0.074  -4.253  -0.081  0.00  0.00    -0.322 N 
ATOM     14  H   UNL     1       0.086  -4.747  -0.916  0.00  0.00    +0.169 HD
ENDBRANCH   1  10
BRANCH   1  15
ATOM     15  C   UNL     1      -1.340  -5.447   3.975  0.00  0.00    +0.101 C 
BRANCH  15  16
ATOM     16  C   UNL     1      -1.323  -6.238   5.259  0.00  0.00    +0.220 C 
ATOM     17  O   UNL     1      -0.266  -6.531   5.776  0.00  0.00    -0.275 OA
ATOM     18  N   UNL     1      -2.482  -6.619   5.831  0.00  0.00    -0.271 N 
ATOM     19  C   UNL     1      -3.766  -6.345   5.171  0.00  0.00    +0.114 C 
ATOM     20  C   UNL     1      -4.735  -5.811   6.234  0.00  0.00    +0.024 C 
ATOM     21  C   UNL     1      -4.969  -6.900   7.282  0.00  0.00    +0.038 C 
ATOM     22  C   UNL     1      -3.655  -7.433   7.790  0.00  0.00    -0.026 A 
ATOM     23  C   UNL     1      -2.483  -7.287   7.063  0.00  0.00    +0.039 A 
ATOM     24  C   UNL     1      -1.289  -7.800   7.555  0.00  0.00    +0.024 A 
ATOM     25  C   UNL     1      -1.268  -8.460   8.768  0.00  0.00    +0.002 A 
ATOM     26  C   UNL     1      -2.436  -8.609   9.492  0.00  0.00    +0.000 A 
ATOM     27  C   UNL     1      -3.626  -8.089   9.009  0.00  0.00    +0.005 A 
ENDBRANCH  15  16
ENDBRANCH   1  15
TORSDOF 3
