REMARK  Name = ZINC46577007
REMARK  9 active torsions:
REMARK  status: ('A' for Active; 'I' for Inactive)
REMARK    1  A    between atoms: C_1  and  S_2
REMARK    2  A    between atoms: S_2  and  C_3
REMARK    3  A    between atoms: C_3  and  C_4
REMARK    4  A    between atoms: C_4  and  C_5
REMARK    5  A    between atoms: C_5  and  C_7
REMARK    6  A    between atoms: C_5  and  N_20
REMARK    7  A    between atoms: N_9  and  C_10
REMARK    8  A    between atoms: C_14  and  C_16
REMARK    9  A    between atoms: C_21  and  C_23
REMARK                            x       y       z     vdW  Elec       q    Type
REMARK                         _______ _______ _______ _____ _____    ______ ____
ROOT
ATOM      1  C   UNL     1       1.700  -2.298  -2.956  0.00  0.00    +0.160 C 
ENDROOT
BRANCH   1   2
ATOM      2  C   UNL     1       1.684  -3.791  -3.160  0.00  0.00    +0.238 C 
ATOM      3  O   UNL     1       2.728  -4.404  -3.232  0.00  0.00    -0.273 OA
ATOM      4  N   UNL     1       0.510  -4.444  -3.262  0.00  0.00    -0.284 N 
ATOM      5  H   UNL     1      -0.324  -3.966  -3.137  0.00  0.00    +0.155 HD
BRANCH   4   6
ATOM      6  C   UNL     1       0.494  -5.815  -3.548  0.00  0.00    +0.034 A 
ATOM      7  C   UNL     1       1.488  -6.642  -3.038  0.00  0.00    +0.025 A 
ATOM      8  C   UNL     1       1.478  -7.996  -3.316  0.00  0.00    +0.022 A 
ATOM      9  C   UNL     1       0.480  -8.536  -4.104  0.00  0.00    +0.053 A 
ATOM     10  C   UNL     1      -0.523  -7.712  -4.621  0.00  0.00    +0.057 A 
ATOM     11  C   UNL     1      -0.515  -6.347  -4.334  0.00  0.00    +0.037 A 
ATOM     12 CL   UNL     1       0.472 -10.236  -4.452  0.00  0.00    -0.083 Cl
BRANCH  10  13
ATOM     13  C   UNL     1      -1.593  -8.286  -5.465  0.00  0.00    +0.243 C 
ATOM     14  O   UNL     1      -1.601  -9.477  -5.710  0.00  0.00    -0.270 OA
ATOM     15  N   UNL     1      -2.559  -7.489  -5.962  0.00  0.00    -0.325 N 
ATOM     16  H   UNL     1      -2.553  -6.539  -5.767  0.00  0.00    +0.145 HD
ATOM     17  H   UNL     1      -3.261  -7.866  -6.516  0.00  0.00    +0.145 HD
ENDBRANCH  10  13
ENDBRANCH   4   6
ENDBRANCH   1   2
BRANCH   1  18
ATOM     18  N   UNL     1       3.087  -1.831  -2.877  0.00  0.00    -0.300 N 
ATOM     19  C   UNL     1       3.388  -0.556  -3.198  0.00  0.00    +0.246 C 
ATOM     20  O   UNL     1       2.509   0.205  -3.552  0.00  0.00    -0.270 OA
ATOM     21  H   UNL     1       3.788  -2.438  -2.594  0.00  0.00    +0.150 HD
BRANCH  19  22
ATOM     22  C   UNL     1       4.786  -0.085  -3.118  0.00  0.00    +0.055 A 
ATOM     23  C   UNL     1       5.799  -0.959  -2.717  0.00  0.00    +0.014 A 
ATOM     24  C   UNL     1       7.101  -0.512  -2.645  0.00  0.00    +0.001 A 
ATOM     25  C   UNL     1       7.407   0.798  -2.970  0.00  0.00    +0.001 A 
ATOM     26  C   UNL     1       6.410   1.669  -3.367  0.00  0.00    +0.021 A 
ATOM     27  C   UNL     1       5.101   1.235  -3.450  0.00  0.00    +0.053 A 
ATOM     28 CL   UNL     1       3.852   2.327  -3.957  0.00  0.00    -0.083 Cl
ENDBRANCH  19  22
ENDBRANCH   1  18
BRANCH   1  29
ATOM     29  C   UNL     1       0.971  -1.953  -1.656  0.00  0.00    +0.042 C 
BRANCH  29  30
ATOM     30  C   UNL     1       0.878  -0.433  -1.511  0.00  0.00    +0.071 C 
BRANCH  30  32
ATOM     31  C   UNL     1      -0.012   1.790   0.051  0.00  0.00    +0.084 C 
ATOM     32  S   UNL     1       0.014  -0.024   0.030  0.00  0.00    -0.164 S 
ENDBRANCH  30  32
ENDBRANCH  29  30
ENDBRANCH   1  29
TORSDOF 8
