REMARK  Name = ZINC39604175
REMARK  10 active torsions:
REMARK  status: ('A' for Active; 'I' for Inactive)
REMARK    1  A    between atoms: C_1  and  C_2
REMARK    2  A    between atoms: C_2  and  O_3
REMARK    3  A    between atoms: O_3  and  C_4
REMARK    4  A    between atoms: C_4  and  C_6
REMARK    5  A    between atoms: C_6  and  C_7
REMARK    6  A    between atoms: C_7  and  N_8
REMARK    7  A    between atoms: C_9  and  C_11
REMARK    8  A    between atoms: C_22  and  C_24
REMARK    9  A    between atoms: C_29  and  O_30
REMARK   10  A    between atoms: O_30  and  C_31
REMARK                            x       y       z     vdW  Elec       q    Type
REMARK                         _______ _______ _______ _____ _____    ______ ____
ROOT
ATOM      1  C   UNL     1       2.737  -6.345  -4.511  0.00  0.00    +0.100 C 
ATOM      2  C   UNL     1       4.153  -5.798  -4.799  0.00  0.00    +0.121 C 
ATOM      3  N   UNL     1       5.069  -6.856  -4.313  0.00  0.00    -0.296 N 
ATOM      4  C   UNL     1       4.408  -8.124  -4.702  0.00  0.00    +0.115 C 
ATOM      5  C   UNL     1       2.908  -7.872  -4.451  0.00  0.00    -0.004 C 
ATOM      6  C   UNL     1       2.509  -8.395  -3.074  0.00  0.00    -0.010 C 
ATOM      7  C   UNL     1       2.634  -9.921  -3.057  0.00  0.00    -0.082 C 
ATOM      8  N   UNL     1       1.765 -10.496  -4.091  0.00  0.00    +0.379 N 
ATOM      9  C   UNL     1       2.213 -10.061  -5.420  0.00  0.00    -0.082 C 
ATOM     10  C   UNL     1       2.071  -8.541  -5.537  0.00  0.00    -0.010 C 
ATOM     11  C   UNL     1       6.240  -6.700  -3.663  0.00  0.00    +0.252 C 
ATOM     12  O   UNL     1       6.928  -7.670  -3.409  0.00  0.00    -0.270 OA
ATOM     13  H   UNL     1       1.802 -11.503  -4.038  0.00  0.00    -0.086 HD
ATOM     14  H   UNL     1       0.816 -10.188  -3.941  0.00  0.00    -0.086 HD
ENDROOT
BRANCH  11  15
ATOM     15  C   UNL     1       6.686  -5.353  -3.259  0.00  0.00    +0.099 A 
ATOM     16  C   UNL     1       6.405  -4.240  -4.060  0.00  0.00    +0.020 A 
ATOM     17  C   UNL     1       6.845  -2.999  -3.636  0.00  0.00    +0.021 A 
ATOM     18  C   UNL     1       7.542  -2.893  -2.445  0.00  0.00    +0.114 A 
ATOM     19  N   UNL     1       7.795  -3.956  -1.706  0.00  0.00    -0.220 NA
ATOM     20  C   UNL     1       7.393  -5.164  -2.062  0.00  0.00    +0.233 A 
BRANCH  20  21
ATOM     21  O   UNL     1       7.671  -6.227  -1.269  0.00  0.00    -0.437 OA
BRANCH  21  22
ATOM     22  C   UNL     1       8.442  -6.018  -0.170  0.00  0.00    +0.130 A 
ATOM     23  C   UNL     1       7.893  -5.439   0.965  0.00  0.00    +0.048 A 
ATOM     24  C   UNL     1       8.679  -5.228   2.081  0.00  0.00    +0.023 A 
ATOM     25  C   UNL     1      10.013  -5.594   2.068  0.00  0.00    +0.041 A 
ATOM     26  C   UNL     1      10.563  -6.171   0.937  0.00  0.00    +0.023 A 
ATOM     27  C   UNL     1       9.779  -6.389  -0.179  0.00  0.00    +0.048 A 
ATOM     28 CL   UNL     1      10.999  -5.328   3.472  0.00  0.00    -0.084 Cl
ENDBRANCH  21  22
ENDBRANCH  20  21
ENDBRANCH  11  15
BRANCH   1  30
ATOM     29  N   UNL     1       0.907  -5.667  -2.990  0.00  0.00    -0.314 N 
ATOM     30  C   UNL     1       2.231  -5.821  -3.191  0.00  0.00    +0.218 C 
ATOM     31  O   UNL     1       3.015  -5.539  -2.310  0.00  0.00    -0.275 OA
ATOM     32  H   UNL     1       0.280  -5.893  -3.695  0.00  0.00    +0.149 HD
BRANCH  29  33
ATOM     33  C   UNL     1       0.416  -5.158  -1.707  0.00  0.00    +0.115 C 
BRANCH  33  34
ATOM     34  C   UNL     1      -1.112  -5.079  -1.742  0.00  0.00    +0.139 C 
BRANCH  34  35
ATOM     35  C   UNL     1      -1.617  -4.556  -0.422  0.00  0.00    +0.309 C 
ATOM     36  O   UNL     1      -0.836  -4.274   0.456  0.00  0.00    -0.251 OA
BRANCH  35  37
ATOM     37  O   UNL     1      -2.936  -4.402  -0.222  0.00  0.00    -0.465 OA
BRANCH  37  39
ATOM     38  C   UNL     1      -4.870  -3.794   1.094  0.00  0.00    +0.048 C 
ATOM     39  C   UNL     1      -3.344  -3.901   1.053  0.00  0.00    +0.229 C 
ENDBRANCH  37  39
ENDBRANCH  35  37
ENDBRANCH  34  35
ENDBRANCH  33  34
ENDBRANCH  29  33
ENDBRANCH   1  30
TORSDOF 9
