REMARK  Name = ZINC25597544
REMARK  9 active torsions:
REMARK  status: ('A' for Active; 'I' for Inactive)
REMARK    1  A    between atoms: C_1  and  C_2
REMARK    2  A    between atoms: C_2  and  C_3
REMARK    3  A    between atoms: C_2  and  N_4
REMARK    4  A    between atoms: N_4  and  C_5
REMARK    5  A    between atoms: C_5  and  N_7
REMARK    6  A    between atoms: N_7  and  N_8
REMARK    7  A    between atoms: C_9  and  C_11
REMARK    8  A    between atoms: C_15  and  C_20
REMARK    9  A    between atoms: C_20  and  C_21
REMARK                            x       y       z     vdW  Elec       q    Type
REMARK                         _______ _______ _______ _____ _____    ______ ____
ROOT
ATOM      1  C   UNL     1      -2.802   4.737   3.241  0.00  0.00    +0.170 C 
ATOM      2  C   UNL     1      -1.540   4.030   3.735  0.00  0.00    +0.101 C 
ATOM      3  S   UNL     1      -0.594   3.478   2.280  0.00  0.00    -0.145 S 
ATOM      4  C   UNL     1      -1.770   2.354   1.466  0.00  0.00    +0.136 C 
ATOM      5  C   UNL     1      -3.135   2.982   1.480  0.00  0.00    +0.227 C 
ATOM      6  O   UNL     1      -3.938   2.564   0.673  0.00  0.00    -0.275 OA
ATOM      7  N   UNL     1      -3.541   3.945   2.284  0.00  0.00    -0.302 N 
ATOM      8  H   UNL     1      -4.619   4.114   2.147  0.00  0.00    +0.150 HD
ENDROOT
BRANCH   1  10
ATOM      9  N   UNL     1      -2.138   7.116   3.360  0.00  0.00    -0.234 N 
ATOM     10  C   UNL     1      -2.409   6.040   2.595  0.00  0.00    +0.250 C 
ATOM     11  O   UNL     1      -2.337   6.122   1.387  0.00  0.00    -0.272 OA
ATOM     12  H   UNL     1      -2.203   7.043   4.456  0.00  0.00    +0.173 HD
BRANCH   9  13
ATOM     13  N   UNL     1      -1.772   8.329   2.760  0.00  0.00    -0.246 N 
ATOM     14  H   UNL     1      -1.707   8.402   1.665  0.00  0.00    +0.172 HD
BRANCH  13  15
ATOM     15  C   UNL     1      -1.501   9.404   3.525  0.00  0.00    +0.147 C 
ATOM     16  S   UNL     1      -1.055  10.886   2.792  0.00  0.00    -0.017 S 
BRANCH  15  17
ATOM     17  N   UNL     1      -1.581   9.314   4.868  0.00  0.00    -0.323 N 
ATOM     18  H   UNL     1      -1.868   8.363   5.339  0.00  0.00    +0.148 HD
BRANCH  17  20
ATOM     19  C   UNL     1      -2.542  11.347   5.829  0.00  0.00    +0.027 C 
ATOM     20  C   UNL     1      -1.286  10.484   5.699  0.00  0.00    +0.066 C 
ATOM     21  C   UNL     1      -0.838  10.022   7.088  0.00  0.00    +0.027 C 
ENDBRANCH  17  20
ENDBRANCH  15  17
ENDBRANCH  13  15
ENDBRANCH   9  13
ENDBRANCH   1  10
BRANCH   4  22
ATOM     22  C   UNL     1      -1.332   2.113   0.020  0.00  0.00    +0.058 C 
BRANCH  22  23
ATOM     23  C   UNL     1      -0.017   1.378   0.010  0.00  0.00    -0.046 A 
ATOM     24  C   UNL     1       1.170   2.087   0.002  0.00  0.00    +0.006 A 
ATOM     25  C   UNL     1       2.377   1.414  -0.013  0.00  0.00    +0.038 A 
ATOM     26  C   UNL     1       2.397   0.029  -0.020  0.00  0.00    +0.123 A 
ATOM     27  C   UNL     1       1.208  -0.679  -0.013  0.00  0.00    +0.038 A 
ATOM     28  C   UNL     1       0.002  -0.004   0.002  0.00  0.00    +0.006 A 
ATOM     29  F   UNL     1       3.577  -0.630  -0.035  0.00  0.00    -0.205 F 
ENDBRANCH  22  23
ENDBRANCH   4  22
TORSDOF 7
