REMARK  Name = ZINC41545581
REMARK  6 active torsions:
REMARK  status: ('A' for Active; 'I' for Inactive)
REMARK    1  A    between atoms: C_1  and  C_2
REMARK    2  A    between atoms: C_5  and  O_9
REMARK    3  A    between atoms: C_7  and  C_8
REMARK    4  A    between atoms: O_9  and  C_10
REMARK    5  A    between atoms: C_10  and  C_11
REMARK    6  A    between atoms: C_21  and  N_23
REMARK                            x       y       z     vdW  Elec       q    Type
REMARK                         _______ _______ _______ _____ _____    ______ ____
ROOT
ATOM      1  C   UNL     1       0.079  -6.266  -1.108  0.00  0.00    +0.257 C 
ATOM      2  O   UNL     1       0.157  -6.735   0.008  0.00  0.00    -0.272 OA
ATOM      3  N   UNL     1      -0.018  -7.082  -2.177  0.00  0.00    -0.268 N 
ATOM      4  C   UNL     1      -0.027  -6.531  -3.539  0.00  0.00    +0.114 C 
ATOM      5  C   UNL     1      -1.135  -7.244  -4.325  0.00  0.00    +0.024 C 
ATOM      6  C   UNL     1      -0.793  -8.730  -4.423  0.00  0.00    +0.038 C 
ATOM      7  C   UNL     1      -0.482  -9.292  -3.061  0.00  0.00    -0.024 A 
ATOM      8  C   UNL     1      -0.105  -8.473  -2.007  0.00  0.00    +0.040 A 
ATOM      9  C   UNL     1       0.185  -9.021  -0.763  0.00  0.00    +0.025 A 
ATOM     10  C   UNL     1       0.103 -10.386  -0.571  0.00  0.00    +0.024 A 
ATOM     11  C   UNL     1      -0.271 -11.210  -1.624  0.00  0.00    +0.025 A 
ATOM     12  C   UNL     1      -0.571 -10.660  -2.866  0.00  0.00    +0.028 A 
ENDROOT
BRANCH  11  13
ATOM     13  N   UNL     1      -0.356 -12.593  -1.433  0.00  0.00    -0.358 N 
ATOM     14  H   UNL     1      -0.154 -12.977  -0.566  0.00  0.00    +0.142 HD
ATOM     15  H   UNL     1      -0.618 -13.169  -2.169  0.00  0.00    +0.142 HD
ENDBRANCH  11  13
BRANCH   1  16
ATOM     16  C   UNL     1       0.089  -4.771  -1.300  0.00  0.00    +0.325 C 
BRANCH  16  17
ATOM     17  O   UNL     1       0.082  -4.127  -0.024  0.00  0.00    -0.483 OA
BRANCH  17  22
ATOM     18  C   UNL     1       0.112   1.505  -0.003  0.00  0.00    +0.044 C 
ATOM     19  C   UNL     1       0.105  -0.002  -0.009  0.00  0.00    -0.047 A 
ATOM     20  C   UNL     1       0.112  -0.688  -1.210  0.00  0.00    +0.007 A 
ATOM     21  C   UNL     1       0.104  -2.069  -1.218  0.00  0.00    +0.046 A 
ATOM     22  C   UNL     1       0.090  -2.768  -0.019  0.00  0.00    +0.121 A 
ATOM     23  C   UNL     1       0.083  -2.078   1.184  0.00  0.00    +0.049 A 
ATOM     24  C   UNL     1       0.096  -0.696   1.186  0.00  0.00    -0.044 A 
ATOM     25  C   UNL     1       0.094   0.054   2.493  0.00  0.00    +0.044 C 
ENDBRANCH  17  22
ENDBRANCH  16  17
ENDBRANCH   1  16
TORSDOF 4
