REMARK  Name = ZINC41600280
REMARK  5 active torsions:
REMARK  status: ('A' for Active; 'I' for Inactive)
REMARK    1  A    between atoms: C_1  and  C_2
REMARK    2  A    between atoms: C_8  and  N_10
REMARK    3  A    between atoms: N_10  and  S_11
REMARK    4  A    between atoms: S_11  and  C_14
REMARK    5  A    between atoms: C_22  and  C_25
REMARK                            x       y       z     vdW  Elec       q    Type
REMARK                         _______ _______ _______ _____ _____    ______ ____
ROOT
ATOM      1  S   UNL     1       2.864   0.392   2.655  0.00  0.00    +0.059 S 
ATOM      2  O   UNL     1       4.176   0.820   2.319  0.00  0.00    -0.153 OA
ATOM      3  O   UNL     1       1.955   1.214   3.375  0.00  0.00    -0.153 OA
ENDROOT
BRANCH   1   4
ATOM      4  C   UNL     1       3.041  -1.095   3.582  0.00  0.00    +0.107 A 
ATOM      5  C   UNL     1       2.039  -1.492   4.449  0.00  0.00    +0.032 A 
ATOM      6  C   UNL     1       2.170  -2.659   5.178  0.00  0.00    +0.049 A 
ATOM      7  C   UNL     1       3.309  -3.438   5.043  0.00  0.00    +0.142 A 
ATOM      8  C   UNL     1       4.317  -3.035   4.171  0.00  0.00    +0.071 A 
ATOM      9  C   UNL     1       4.178  -1.868   3.438  0.00  0.00    +0.055 A 
ATOM     10  N   UNL     1       5.476  -3.817   4.037  0.00  0.00    -0.337 N 
ATOM     11  C   UNL     1       5.447  -5.184   4.584  0.00  0.00    +0.145 C 
ATOM     12  C   UNL     1       4.740  -5.124   5.946  0.00  0.00    +0.187 C 
ATOM     13  O   UNL     1       3.428  -4.587   5.761  0.00  0.00    -0.486 OA
ATOM     14  C   UNL     1       4.642  -6.532   6.536  0.00  0.00    +0.053 C 
ATOM     15  H   UNL     1       6.268  -3.469   3.599  0.00  0.00    +0.146 HD
ENDBRANCH   1   4
BRANCH   1  16
ATOM     16  N   UNL     1       2.116  -0.004   1.231  0.00  0.00    -0.187 NA
ATOM     17  H   UNL     1       2.589   0.100   0.390  0.00  0.00    +0.148 HD
BRANCH  16  24
ATOM     18  C   UNL     1      -0.019   1.526   0.010  0.00  0.00    +0.009 C 
ATOM     19  C   UNL     1       0.002  -0.004   0.002  0.00  0.00    +0.005 C 
ATOM     20  C   UNL     1      -1.433  -0.534   0.013  0.00  0.00    +0.005 C 
ATOM     21  C   UNL     1      -1.413  -2.063   0.004  0.00  0.00    +0.000 C 
ATOM     22  C   UNL     1      -0.673  -2.570   1.244  0.00  0.00    +0.002 C 
ATOM     23  C   UNL     1       0.763  -2.041   1.233  0.00  0.00    +0.020 C 
ATOM     24  C   UNL     1       0.742  -0.511   1.242  0.00  0.00    +0.079 C 
ENDBRANCH  16  24
ENDBRANCH   1  16
TORSDOF 3
