REMARK  Name = ZINC49148543
REMARK  7 active torsions:
REMARK  status: ('A' for Active; 'I' for Inactive)
REMARK    1  A    between atoms: C_1  and  C_2
REMARK    2  A    between atoms: C_2  and  C_4
REMARK    3  A    between atoms: C_2  and  N_10
REMARK    4  A    between atoms: C_11  and  C_13
REMARK    5  A    between atoms: C_16  and  C_18
REMARK    6  A    between atoms: C_19  and  C_20
REMARK    7  A    between atoms: C_20  and  N_21
REMARK                            x       y       z     vdW  Elec       q    Type
REMARK                         _______ _______ _______ _____ _____    ______ ____
ROOT
ATOM      1  N   UNL     1       0.711  -0.489   1.189  0.00  0.00    -0.304 N 
ATOM      2  C   UNL     1       0.051  -0.633   2.355  0.00  0.00    +0.251 C 
ATOM      3  O   UNL     1      -1.133  -0.360   2.423  0.00  0.00    -0.270 OA
ATOM      4  H   UNL     1       1.654  -0.707   1.135  0.00  0.00    +0.150 HD
ENDROOT
BRANCH   2   5
ATOM      5  C   UNL     1       0.760  -1.119   3.542  0.00  0.00    +0.075 A 
ATOM      6  C   UNL     1       0.268  -1.340   4.821  0.00  0.00    +0.022 A 
ATOM      7  C   UNL     1       1.123  -1.800   5.782  0.00  0.00    +0.025 A 
ATOM      8  C   UNL     1       2.449  -2.029   5.441  0.00  0.00    +0.063 A 
ATOM      9  S   UNL     1       2.474  -1.585   3.712  0.00  0.00    -0.075 S 
BRANCH   8  10
ATOM     10  C   UNL     1       3.520  -2.505   6.264  0.00  0.00    -0.061 C 
ATOM     11  C   UNL     1       4.398  -2.895   6.938  0.00  0.00    -0.116 C 
BRANCH  11  12
ATOM     12  C   UNL     1       5.499  -3.384   7.784  0.00  0.00    +0.005 C 
BRANCH  12  13
ATOM     13  N   UNL     1       6.729  -3.469   6.985  0.00  0.00    +0.385 N 
ATOM     14  H   UNL     1       7.484  -3.804   7.565  0.00  0.00    -0.089 HD
ATOM     15  H   UNL     1       6.588  -4.106   6.216  0.00  0.00    -0.089 HD
ATOM     16  H   UNL     1       6.961  -2.554   6.627  0.00  0.00    -0.089 HD
ENDBRANCH  12  13
ENDBRANCH  11  12
ENDBRANCH   8  10
ENDBRANCH   2   5
BRANCH   1  18
ATOM     17  C   UNL     1      -0.019   1.526   0.010  0.00  0.00    +0.033 C 
ATOM     18  C   UNL     1       0.002  -0.004   0.002  0.00  0.00    +0.107 C 
BRANCH  18  19
ATOM     19  C   UNL     1       0.707  -0.490  -1.238  0.00  0.00    +0.011 A 
ATOM     20  C   UNL     1       0.176  -0.943  -2.400  0.00  0.00    +0.014 A 
ATOM     21  C   UNL     1       1.026  -1.341  -3.415  0.00  0.00    +0.028 A 
ATOM     22  C   UNL     1       2.366  -1.267  -3.218  0.00  0.00    +0.078 A 
ATOM     23  S   UNL     1       2.459  -0.612  -1.560  0.00  0.00    -0.080 S 
ATOM     24 CL   UNL     1       3.656  -1.693  -4.299  0.00  0.00    -0.076 Cl
ENDBRANCH  18  19
ENDBRANCH   1  18
TORSDOF 6
