REMARK  Name = ZINC16754137
REMARK  5 active torsions:
REMARK  status: ('A' for Active; 'I' for Inactive)
REMARK    1  A    between atoms: C_1  and  C_2
REMARK    2  A    between atoms: N_16  and  C_19
REMARK    3  A    between atoms: C_19  and  C_20
REMARK    4  A    between atoms: C_28  and  C_32
REMARK    5  A    between atoms: C_29  and  N_31
REMARK                            x       y       z     vdW  Elec       q    Type
REMARK                         _______ _______ _______ _____ _____    ______ ____
ROOT
ATOM      1  C   UNL     1       2.444   1.013  -0.014  0.00  0.00    +0.086 C 
ATOM      2  C   UNL     1       1.140   1.769   0.001  0.00  0.00    +0.110 A 
ATOM      3  C   UNL     1      -0.013   1.076   0.008  0.00  0.00    +0.088 A 
ATOM      4  C   UNL     1      -1.243   1.771   0.018  0.00  0.00    +0.145 A 
ATOM      5  C   UNL     1      -1.214   3.151   0.028  0.00  0.00    +0.104 A 
ATOM      6  C   UNL     1       0.025   3.801   0.017  0.00  0.00    +0.345 A 
ATOM      7  O   UNL     1       0.063   5.021   0.020  0.00  0.00    -0.245 OA
ATOM      8  O   UNL     1       1.170   3.105   0.005  0.00  0.00    -0.427 OA
ATOM      9  C   UNL     1      -2.491   3.940   0.046  0.00  0.00    +0.148 C 
ATOM     10  C   UNL     1      -2.702   4.583   1.382  0.00  0.00    -0.001 A 
ATOM     11  C   UNL     1      -2.866   4.042   2.639  0.00  0.00    +0.007 A 
ATOM     12  C   UNL     1      -3.042   4.934   3.692  0.00  0.00    +0.000 A 
ATOM     13  C   UNL     1      -3.051   6.298   3.483  0.00  0.00    +0.002 A 
ATOM     14  C   UNL     1      -2.888   6.849   2.222  0.00  0.00    +0.024 A 
ATOM     15  C   UNL     1      -2.712   5.965   1.156  0.00  0.00    +0.041 A 
ATOM     16  N   UNL     1      -2.530   6.233  -0.188  0.00  0.00    -0.265 N 
ATOM     17  C   UNL     1      -2.392   5.106  -0.916  0.00  0.00    +0.241 C 
ATOM     18  O   UNL     1      -2.222   5.038  -2.115  0.00  0.00    -0.274 OA
ATOM     19  C   UNL     1      -3.655   3.069  -0.338  0.00  0.00    +0.110 C 
ATOM     20  C   UNL     1      -3.551   1.718  -0.324  0.00  0.00    +0.199 C 
ATOM     21  O   UNL     1      -2.409   1.096   0.022  0.00  0.00    -0.441 OA
ENDROOT
BRANCH  20  22
ATOM     22  N   UNL     1      -4.641   0.962  -0.674  0.00  0.00    -0.328 N 
ATOM     23  H   UNL     1      -4.582  -0.007  -0.669  0.00  0.00    +0.145 HD
ATOM     24  H   UNL     1      -5.471   1.395  -0.926  0.00  0.00    +0.145 HD
ENDBRANCH  20  22
BRANCH  19  25
ATOM     25  C   UNL     1      -4.896   3.675  -0.715  0.00  0.00    +0.102 C 
ATOM     26  N   UNL     1      -5.881   4.156  -1.014  0.00  0.00    -0.191 NA
ENDBRANCH  19  25
BRANCH  16  27
ATOM     27  C   UNL     1      -2.491   7.584  -0.755  0.00  0.00    +0.148 C 
BRANCH  27  28
ATOM     28  C   UNL     1      -3.884   8.004  -1.148  0.00  0.00    -0.028 A 
ATOM     29  C   UNL     1      -4.691   8.659  -0.237  0.00  0.00    +0.007 A 
ATOM     30  C   UNL     1      -5.969   9.045  -0.596  0.00  0.00    +0.022 A 
ATOM     31  C   UNL     1      -6.441   8.775  -1.868  0.00  0.00    +0.059 A 
ATOM     32  C   UNL     1      -5.633   8.119  -2.780  0.00  0.00    +0.060 A 
ATOM     33  C   UNL     1      -4.352   7.738  -2.421  0.00  0.00    +0.026 A 
ATOM     34 CL   UNL     1      -6.224   7.779  -4.377  0.00  0.00    -0.082 Cl
ATOM     35 CL   UNL     1      -8.046   9.259  -2.319  0.00  0.00    -0.082 Cl
ENDBRANCH  27  28
ENDBRANCH  16  27
TORSDOF 4
