REMARK  Name = ZINC50641019
REMARK  6 active torsions:
REMARK  status: ('A' for Active; 'I' for Inactive)
REMARK    1  A    between atoms: C_1  and  C_2
REMARK    2  A    between atoms: C_8  and  N_10
REMARK    3  A    between atoms: N_10  and  S_11
REMARK    4  A    between atoms: S_11  and  C_14
REMARK    5  A    between atoms: C_17  and  N_23
REMARK    6  A    between atoms: C_19  and  N_20
REMARK                            x       y       z     vdW  Elec       q    Type
REMARK                         _______ _______ _______ _____ _____    ______ ____
ROOT
ATOM      1  S   UNL     1       0.926   0.256   3.929  0.00  0.00    +0.061 S 
ATOM      2  O   UNL     1       0.094   0.593   5.031  0.00  0.00    -0.153 OA
ATOM      3  O   UNL     1       1.809  -0.857   3.954  0.00  0.00    -0.153 OA
ENDROOT
BRANCH   1   4
ATOM      4  C   UNL     1       1.915   1.675   3.592  0.00  0.00    +0.135 A 
ATOM      5  C   UNL     1       3.288   1.548   3.477  0.00  0.00    +0.032 A 
ATOM      6  C   UNL     1       4.066   2.658   3.213  0.00  0.00    +0.025 A 
ATOM      7  C   UNL     1       3.468   3.903   3.062  0.00  0.00    +0.027 A 
ATOM      8  C   UNL     1       2.090   4.027   3.178  0.00  0.00    +0.057 A 
ATOM      9  C   UNL     1       1.317   2.912   3.438  0.00  0.00    +0.154 A 
BRANCH   9  10
ATOM     10  N   UNL     1      -0.153   3.042   3.556  0.00  0.00    +0.058 N 
ATOM     11  O   UNL     1      -0.665   4.137   3.548  0.00  0.00    -0.126 OA
ATOM     12  O   UNL     1      -0.841   2.053   3.660  0.00  0.00    -0.126 OA
ENDBRANCH   9  10
BRANCH   7  13
ATOM     13  N   UNL     1       4.252   5.028   2.795  0.00  0.00    -0.358 N 
ATOM     14  H   UNL     1       5.215   4.940   2.714  0.00  0.00    +0.142 HD
ATOM     15  H   UNL     1       3.834   5.897   2.690  0.00  0.00    +0.142 HD
ENDBRANCH   7  13
ENDBRANCH   1   4
BRANCH   1  16
ATOM     16  N   UNL     1      -0.075   0.038   2.629  0.00  0.00    -0.187 NA
ATOM     17  H   UNL     1      -1.034   0.141   2.732  0.00  0.00    +0.148 HD
BRANCH  16  24
ATOM     18  C   UNL     1      -0.334   1.857   0.390  0.00  0.00    +0.009 C 
ATOM     19  C   UNL     1      -0.350   0.337   0.217  0.00  0.00    +0.005 C 
ATOM     20  C   UNL     1      -1.791  -0.171   0.305  0.00  0.00    +0.005 C 
ATOM     21  C   UNL     1      -1.808  -1.691   0.132  0.00  0.00    +0.000 C 
ATOM     22  C   UNL     1      -0.971  -2.339   1.236  0.00  0.00    +0.002 C 
ATOM     23  C   UNL     1       0.470  -1.832   1.149  0.00  0.00    +0.020 C 
ATOM     24  C   UNL     1       0.487  -0.311   1.322  0.00  0.00    +0.079 C 
ENDBRANCH  16  24
ENDBRANCH   1  16
TORSDOF 5
