REMARK  Name = ZINC65381877
REMARK  3 active torsions:
REMARK  status: ('A' for Active; 'I' for Inactive)
REMARK    1  A    between atoms: C_4  and  N_7
REMARK    2  A    between atoms: C_14  and  C_20
REMARK    3  A    between atoms: C_25  and  C_26
REMARK                            x       y       z     vdW  Elec       q    Type
REMARK                         _______ _______ _______ _____ _____    ______ ____
ROOT
ATOM      1  N   UNL     1       2.841  -0.442  -2.476  0.00  0.00    +0.410 N 
ATOM      2  C   UNL     1       3.018  -1.897  -2.419  0.00  0.00    +0.077 C 
ATOM      3  C   UNL     1       4.514  -2.071  -2.206  0.00  0.00    +0.001 C 
ATOM      4  C   UNL     1       5.064  -0.888  -2.336  0.00  0.00    +0.223 C 
ATOM      5  N   UNL     1       4.103   0.089  -2.540  0.00  0.00    -0.356 N 
ATOM      6  O   UNL     1       6.398  -0.652  -2.278  0.00  0.00    -0.273 OA
ATOM      7  C   UNL     1       5.102  -3.402  -1.809  0.00  0.00    +0.043 C 
ATOM      8  C   UNL     1       4.397  -3.810  -0.506  0.00  0.00    +0.104 C 
ATOM      9  C   UNL     1       2.952  -3.430  -0.513  0.00  0.00    +0.213 C 
ATOM     10  O   UNL     1       2.241  -4.017   0.275  0.00  0.00    -0.276 OA
ATOM     11  N   UNL     1       2.335  -2.525  -1.296  0.00  0.00    -0.322 N 
ATOM     12  H   UNL     1       4.297   1.025  -2.706  0.00  0.00    +0.129 HD
ATOM     13  H   UNL     1       1.418  -2.271  -1.107  0.00  0.00    +0.147 HD
ATOM     14  H   UNL     1       2.315  -0.187  -3.299  0.00  0.00    -0.047 HD
ENDROOT
BRANCH   1  18
ATOM     15  C   UNL     1       2.055   1.754   1.101  0.00  0.00    -0.000 C 
ATOM     16  C   UNL     1       2.311   0.250   1.216  0.00  0.00    -0.001 C 
ATOM     17  C   UNL     1       3.027  -0.244  -0.043  0.00  0.00    -0.012 C 
ATOM     18  C   UNL     1       2.154   0.032  -1.268  0.00  0.00    -0.040 C 
ATOM     19  C   UNL     1       1.897   1.536  -1.383  0.00  0.00    -0.012 C 
ATOM     20  C   UNL     1       1.181   2.030  -0.124  0.00  0.00    -0.001 C 
ENDBRANCH   1  18
BRANCH   7  21
ATOM     21  C   UNL     1       4.837  -4.441  -2.901  0.00  0.00    +0.097 C 
ATOM     22  C   UNL     1       5.518  -5.760  -2.576  0.00  0.00    +0.118 C 
ATOM     23  N   UNL     1       6.365  -5.947  -3.544  0.00  0.00    -0.161 NA
ATOM     24  N   UNL     1       6.373  -5.025  -4.426  0.00  0.00    -0.147 NA
ATOM     25  C   UNL     1       5.527  -4.056  -4.199  0.00  0.00    +0.160 C 
BRANCH  25  26
ATOM     26  C   UNL     1       5.294  -2.860  -5.018  0.00  0.00    +0.403 C 
ATOM     27  O   UNL     1       5.935  -2.688  -6.046  0.00  0.00    -0.239 OA
ATOM     28  O   UNL     1       4.460  -2.034  -4.671  0.00  0.00    -0.239 OA
ENDBRANCH  25  26
ENDBRANCH   7  21
TORSDOF 3
