REMARK  Name = ZINC66961275
REMARK  4 active torsions:
REMARK  status: ('A' for Active; 'I' for Inactive)
REMARK    1  A    between atoms: C_1  and  C_2
REMARK    2  A    between atoms: C_8  and  C_12
REMARK    3  A    between atoms: C_17  and  C_20
REMARK    4  A    between atoms: C_22  and  C_26
REMARK                            x       y       z     vdW  Elec       q    Type
REMARK                         _______ _______ _______ _____ _____    ______ ____
ROOT
ATOM      1  C   UNL     1       0.193   0.165   3.409  0.00  0.00    +0.240 C 
ATOM      2  O   UNL     1       1.077   0.974   3.218  0.00  0.00    -0.273 OA
ATOM      3  N   UNL     1      -0.468   0.154   4.583  0.00  0.00    -0.263 N 
ATOM      4  C   UNL     1      -0.136   1.068   5.576  0.00  0.00    +0.165 A 
ATOM      5  N   UNL     1      -0.664   1.198   6.772  0.00  0.00    -0.225 NA
ATOM      6  C   UNL     1      -0.234   2.130   7.614  0.00  0.00    +0.082 A 
ATOM      7  C   UNL     1       0.776   2.935   7.171  0.00  0.00    +0.077 A 
ATOM      8  S   UNL     1       1.042   2.269   5.536  0.00  0.00    -0.060 S 
ATOM      9  H   UNL     1      -1.174  -0.493   4.736  0.00  0.00    +0.157 HD
ENDROOT
BRANCH   1  17
ATOM     10  C   UNL     1      -0.019   1.526   0.010  0.00  0.00    +0.044 C 
ATOM     11  C   UNL     1       0.002  -0.004   0.002  0.00  0.00    +0.082 C 
ATOM     12  C   UNL     1       0.727  -0.586  -1.221  0.00  0.00    +0.046 C 
ATOM     13  C   UNL     1       2.173  -0.676  -0.673  0.00  0.00    +0.099 C 
ATOM     14  C   UNL     1       1.998  -0.817   0.822  0.00  0.00    +0.217 C 
ATOM     15  O   UNL     1       2.886  -1.093   1.599  0.00  0.00    -0.276 OA
ATOM     16  N   UNL     1       0.703  -0.589   1.174  0.00  0.00    -0.275 N 
ATOM     17  C   UNL     1      -0.166  -0.826   2.332  0.00  0.00    +0.173 C 
ATOM     18  C   UNL     1      -1.681  -0.702   2.044  0.00  0.00    +0.103 C 
ATOM     19  S   UNL     1      -1.671  -0.749   0.195  0.00  0.00    -0.133 S 
ENDBRANCH   1  17
BRANCH   6  20
ATOM     20  C   UNL     1      -0.822   2.288   8.968  0.00  0.00    +0.019 A 
ATOM     21  C   UNL     1      -1.788   1.452   9.560  0.00  0.00    +0.042 A 
ATOM     22  C   UNL     1      -2.048   1.954  10.805  0.00  0.00    +0.102 A 
ATOM     23  N   UNL     1      -1.267   3.072  10.985  0.00  0.00    -0.356 N 
ATOM     24  H   UNL     1      -1.250   3.627  11.780  0.00  0.00    +0.165 HD
ATOM     25  C   UNL     1      -0.521   3.269   9.870  0.00  0.00    +0.093 A 
BRANCH  22  26
ATOM     26  C   UNL     1      -2.995   1.398  11.778  0.00  0.00    +0.258 C 
ATOM     27  O   UNL     1      -3.634   0.399  11.503  0.00  0.00    -0.269 OA
ATOM     28  N   UNL     1      -3.158   1.993  12.976  0.00  0.00    -0.324 N 
ATOM     29  H   UNL     1      -2.649   2.789  13.195  0.00  0.00    +0.145 HD
ATOM     30  H   UNL     1      -3.784   1.626  13.619  0.00  0.00    +0.145 HD
ENDBRANCH  22  26
ENDBRANCH   6  20
TORSDOF 3
