REMARK  Name = ZINC60240587
REMARK  6 active torsions:
REMARK  status: ('A' for Active; 'I' for Inactive)
REMARK    1  A    between atoms: C_1  and  C_2
REMARK    2  A    between atoms: C_7  and  C_9
REMARK    3  A    between atoms: C_7  and  C_10
REMARK    4  A    between atoms: N_13  and  C_17
REMARK    5  A    between atoms: C_17  and  C_18
REMARK    6  A    between atoms: C_23  and  C_26
REMARK                            x       y       z     vdW  Elec       q    Type
REMARK                         _______ _______ _______ _____ _____    ______ ____
ROOT
ATOM      1  C   UNL     1      -0.019   1.528   0.010  0.00  0.00    +0.007 C 
ATOM      2  C   UNL     1       0.002  -0.004   0.002  0.00  0.00    -0.011 C 
ATOM      3  C   UNL     1       0.727  -0.492  -1.254  0.00  0.00    +0.038 C 
ATOM      4  C   UNL     1       0.711  -2.014  -1.298  0.00  0.00    +0.113 C 
ATOM      5  C   UNL     1       1.263  -2.646  -0.036  0.00  0.00    +0.041 C 
ATOM      6  C   UNL     1       0.787  -2.030   1.268  0.00  0.00    -0.032 C 
ATOM      7  C   UNL     1       0.763  -0.507   1.227  0.00  0.00    +0.009 C 
ATOM      8  C   UNL     1       1.769  -2.455   2.382  0.00  0.00    +0.011 C 
ATOM      9  C   UNL     1      -0.596  -2.567   1.648  0.00  0.00    +0.011 C 
ATOM     10  C   UNL     1      -0.666  -2.529  -1.638  0.00  0.00    +0.247 C 
ATOM     11  O   UNL     1      -1.717  -2.280  -1.086  0.00  0.00    -0.273 OA
ATOM     12  N   UNL     1      -0.505  -3.321  -2.720  0.00  0.00    -0.215 N 
ATOM     13  C   UNL     1       0.748  -3.270  -3.183  0.00  0.00    +0.310 C 
ATOM     14  O   UNL     1       1.136  -3.886  -4.157  0.00  0.00    -0.252 OA
ATOM     15  N   UNL     1       1.531  -2.463  -2.446  0.00  0.00    -0.285 N 
ATOM     16  H   UNL     1       2.451  -2.215  -2.619  0.00  0.00    +0.151 HD
ENDROOT
BRANCH  12  17
ATOM     17  C   UNL     1      -1.572  -4.133  -3.310  0.00  0.00    +0.213 C 
BRANCH  17  18
ATOM     18  C   UNL     1      -2.295  -3.328  -4.359  0.00  0.00    +0.234 C 
ATOM     19  O   UNL     1      -1.953  -2.188  -4.591  0.00  0.00    -0.274 OA
ATOM     20  N   UNL     1      -3.321  -3.876  -5.040  0.00  0.00    -0.300 N 
ATOM     21  C   UNL     1      -3.751  -5.254  -4.766  0.00  0.00    +0.109 C 
ATOM     22  C   UNL     1      -5.253  -5.251  -4.466  0.00  0.00    +0.037 C 
ATOM     23  C   UNL     1      -5.999  -4.578  -5.621  0.00  0.00    +0.094 C 
ATOM     24  C   UNL     1      -5.531  -3.127  -5.755  0.00  0.00    +0.037 C 
ATOM     25  C   UNL     1      -4.035  -3.103  -6.066  0.00  0.00    +0.109 C 
BRANCH  23  26
ATOM     26  C   UNL     1      -7.446  -4.604  -5.351  0.00  0.00    +0.066 C 
ATOM     27  N   UNL     1      -8.562  -4.623  -5.144  0.00  0.00    -0.196 NA
ENDBRANCH  23  26
ENDBRANCH  17  18
ENDBRANCH  12  17
TORSDOF 3
