REMARK  Name = ZINC32779477
REMARK  6 active torsions:
REMARK  status: ('A' for Active; 'I' for Inactive)
REMARK    1  A    between atoms: C_6  and  C_7
REMARK    2  A    between atoms: C_7  and  C_9
REMARK    3  A    between atoms: C_7  and  O_23
REMARK    4  A    between atoms: C_9  and  N_10
REMARK    5  A    between atoms: N_13  and  C_14
REMARK    6  A    between atoms: C_17  and  N_20
REMARK                            x       y       z     vdW  Elec       q    Type
REMARK                         _______ _______ _______ _____ _____    ______ ____
ROOT
ATOM      1  N   UNL     1       2.423  -4.078  -0.245  0.00  0.00    -0.296 N 
ATOM      2  C   UNL     1       2.409  -2.734  -0.137  0.00  0.00    +0.304 C 
ATOM      3  O   UNL     1       3.455  -2.113  -0.144  0.00  0.00    -0.253 OA
ATOM      4  N   UNL     1       1.237  -2.080  -0.021  0.00  0.00    -0.269 N 
ATOM      5  H   UNL     1       1.478  -4.640  -0.239  0.00  0.00    +0.150 HD
ATOM      6  H   UNL     1       0.298  -2.645   0.074  0.00  0.00    +0.156 HD
ENDROOT
BRANCH   4   7
ATOM      7  C   UNL     1       1.214  -0.680  -0.020  0.00  0.00    +0.035 A 
ATOM      8  C   UNL     1       2.137   0.031  -0.776  0.00  0.00    +0.025 A 
ATOM      9  C   UNL     1       2.111   1.412  -0.773  0.00  0.00    +0.034 A 
ATOM     10  C   UNL     1       1.168   2.086  -0.019  0.00  0.00    +0.126 A 
ATOM     11  C   UNL     1       0.248   1.381   0.734  0.00  0.00    +0.034 A 
ATOM     12  C   UNL     1       0.268  -0.001   0.736  0.00  0.00    +0.025 A 
BRANCH  10  13
ATOM     13  N   UNL     1       1.143   3.566  -0.019  0.00  0.00    +0.056 N 
ATOM     14  O   UNL     1       1.954   4.189  -0.682  0.00  0.00    -0.126 OA
ATOM     15  O   UNL     1       0.313   4.161   0.645  0.00  0.00    -0.126 OA
ENDBRANCH  10  13
ENDBRANCH   4   7
BRANCH   1  16
ATOM     16  C   UNL     1       3.698  -4.789  -0.372  0.00  0.00    +0.141 C 
BRANCH  16  17
ATOM     17  C   UNL     1       3.434  -6.293  -0.478  0.00  0.00    +0.162 C 
BRANCH  17  23
ATOM     18  C   UNL     1       5.465  -7.359   0.523  0.00  0.00    +0.007 A 
ATOM     19  C   UNL     1       6.665  -8.035   0.405  0.00  0.00    +0.020 A 
ATOM     20  C   UNL     1       7.151  -8.366  -0.848  0.00  0.00    +0.041 A 
ATOM     21  C   UNL     1       6.433  -8.026  -1.980  0.00  0.00    +0.020 A 
ATOM     22  C   UNL     1       5.230  -7.356  -1.860  0.00  0.00    +0.007 A 
ATOM     23  C   UNL     1       4.745  -7.024  -0.608  0.00  0.00    -0.018 A 
ATOM     24 CL   UNL     1       8.662  -9.208  -0.998  0.00  0.00    -0.084 Cl
ENDBRANCH  17  23
BRANCH  17  25
ATOM     25  O   UNL     1       2.753  -6.741   0.695  0.00  0.00    -0.386 OA
ATOM     26  H   UNL     1       1.772  -6.317   0.958  0.00  0.00    +0.210 HD
ENDBRANCH  17  25
ENDBRANCH  16  17
ENDBRANCH   1  16
TORSDOF 6
