REMARK  Name = ZINC36577367
REMARK  9 active torsions:
REMARK  status: ('A' for Active; 'I' for Inactive)
REMARK    1  A    between atoms: C_1  and  C_2
REMARK    2  A    between atoms: C_5  and  C_13
REMARK    3  A    between atoms: C_6  and  C_7
REMARK    4  A    between atoms: C_6  and  C_8
REMARK    5  A    between atoms: C_10  and  O_12
REMARK    6  A    between atoms: N_15  and  N_16
REMARK    7  A    between atoms: C_17  and  C_18
REMARK    8  A    between atoms: C_21  and  O_25
REMARK    9  A    between atoms: C_23  and  O_24
REMARK                            x       y       z     vdW  Elec       q    Type
REMARK                         _______ _______ _______ _____ _____    ______ ____
ROOT
ATOM      1  C   UNL     1       0.034  -3.466   2.229  0.00  0.00    +0.239 C 
ATOM      2  O   UNL     1       0.833  -3.074   3.054  0.00  0.00    -0.273 OA
ATOM      3  N   UNL     1       0.084  -4.740   1.795  0.00  0.00    -0.207 N 
ATOM      4  H   UNL     1      -0.555  -5.054   1.135  0.00  0.00    +0.177 HD
ENDROOT
BRANCH   1   9
ATOM      5  C   UNL     1      -2.567   0.938   1.590  0.00  0.00    +0.014 C 
ATOM      6  C   UNL     1      -2.195  -0.534   1.399  0.00  0.00    +0.000 C 
ATOM      7  C   UNL     1      -1.751  -0.944  -0.039  0.00  0.00    +0.011 C 
ATOM      8  C   UNL     1      -0.970  -2.263   0.155  0.00  0.00    +0.017 C 
ATOM      9  C   UNL     1      -1.015  -2.527   1.691  0.00  0.00    +0.057 C 
ATOM     10  C   UNL     1      -0.976  -1.056   2.239  0.00  0.00    -0.013 C 
ATOM     11  C   UNL     1      -1.249  -0.997   3.743  0.00  0.00    +0.012 C 
ATOM     12  C   UNL     1       0.324  -0.340   1.869  0.00  0.00    +0.012 C 
ATOM     13  C   UNL     1      -2.500  -2.903   1.979  0.00  0.00    +0.048 C 
ATOM     14  C   UNL     1      -3.288  -1.571   1.801  0.00  0.00    +0.122 C 
BRANCH  14  15
ATOM     15  O   UNL     1      -4.250  -1.712   0.754  0.00  0.00    -0.391 OA
ATOM     16  H   UNL     1      -4.954  -2.346   0.950  0.00  0.00    +0.210 HD
ENDBRANCH  14  15
ENDBRANCH   1   9
BRANCH   3  17
ATOM     17  N   UNL     1       1.058  -5.614   2.295  0.00  0.00    -0.188 NA
ATOM     18  C   UNL     1       1.176  -6.808   1.800  0.00  0.00    +0.142 C 
BRANCH  18  19
ATOM     19  C   UNL     1       0.472  -7.162   0.556  0.00  0.00    +0.036 A 
ATOM     20  C   UNL     1       0.139  -6.169  -0.369  0.00  0.00    +0.016 A 
ATOM     21  C   UNL     1      -0.519  -6.504  -1.532  0.00  0.00    +0.046 A 
ATOM     22  C   UNL     1      -0.855  -7.829  -1.789  0.00  0.00    +0.120 A 
ATOM     23  C   UNL     1      -0.530  -8.822  -0.876  0.00  0.00    +0.091 A 
ATOM     24  C   UNL     1       0.137  -8.498   0.292  0.00  0.00    +0.129 A 
BRANCH  24  25
ATOM     25  O   UNL     1       0.461  -9.470   1.184  0.00  0.00    -0.506 OA
ATOM     26  H   UNL     1      -0.187  -9.585   1.892  0.00  0.00    +0.292 HD
ENDBRANCH  24  25
BRANCH  22  27
ATOM     27  O   UNL     1      -1.505  -8.151  -2.937  0.00  0.00    -0.507 OA
ATOM     28  H   UNL     1      -0.917  -8.363  -3.675  0.00  0.00    +0.292 HD
ENDBRANCH  22  27
ENDBRANCH  18  19
ENDBRANCH   3  17
TORSDOF 6
