REMARK  Name = ZINC36034007
REMARK  4 active torsions:
REMARK  status: ('A' for Active; 'I' for Inactive)
REMARK    1  A    between atoms: C_11  and  C_20
REMARK    2  A    between atoms: CA_14  and  C_17
REMARK    3  A    between atoms: C_22  and  N_27
REMARK    4  A    between atoms: C_25  and  O_26
REMARK                            x       y       z     vdW  Elec       q    Type
REMARK                         _______ _______ _______ _____ _____    ______ ____
ROOT
ATOM      1  C   UNL     1      -0.016   1.361   0.009  0.00  0.00    +0.001 A 
ATOM      2  C   UNL     1       1.169   2.083   0.002  0.00  0.00    +0.002 A 
ATOM      3  C   UNL     1       2.385   1.435  -0.013  0.00  0.00    +0.026 A 
ATOM      4  C   UNL     1       2.428   0.045  -0.021  0.00  0.00    +0.047 A 
ATOM      5  C   UNL     1       1.222  -0.684  -0.013  0.00  0.00    +0.003 A 
ATOM      6  C   UNL     1       0.002  -0.004   0.002  0.00  0.00    +0.010 A 
ATOM      7  C   UNL     1       1.609  -2.088  -0.025  0.00  0.00    -0.021 A 
ATOM      8  C   UNL     1       2.957  -2.137  -0.037  0.00  0.00    +0.010 A 
ATOM      9  N   UNL     1       3.460  -0.869  -0.036  0.00  0.00    -0.359 N 
ATOM     10  H   UNL     1       4.404  -0.644  -0.045  0.00  0.00    +0.166 HD
ATOM     11  C   UNL     1       3.729  -3.436  -0.046  0.00  0.00    +0.012 C 
ATOM     12  N   UNL     1       2.830  -4.518   0.382  0.00  0.00    +0.396 N 
ATOM     13  CA  UNL     1       1.605  -4.511  -0.429  0.00  0.00    +0.049 C 
ATOM     14  C   UNL     1       0.731  -3.313  -0.028  0.00  0.00    +0.033 C 
ATOM     15  H1  UNL     1       3.298  -5.405   0.272  0.00  0.00    -0.083 HD
ATOM     16  H2  UNL     1       2.589  -4.388   1.353  0.00  0.00    -0.083 HD
ENDROOT
BRANCH  11  17
ATOM     17  C   UNL     1       4.896  -3.337   0.902  0.00  0.00    -0.012 A 
ATOM     18  C   UNL     1       4.813  -3.900   2.161  0.00  0.00    +0.038 A 
ATOM     19  C   UNL     1       5.883  -3.810   3.032  0.00  0.00    +0.127 A 
ATOM     20  C   UNL     1       7.040  -3.158   2.645  0.00  0.00    +0.036 A 
ATOM     21  C   UNL     1       7.128  -2.594   1.387  0.00  0.00    +0.048 A 
ATOM     22  C   UNL     1       6.057  -2.687   0.509  0.00  0.00    +0.119 A 
BRANCH  19  23
ATOM     23  N   UNL     1       5.791  -4.413   4.380  0.00  0.00    +0.056 N 
ATOM     24  O   UNL     1       4.781  -4.984   4.720  0.00  0.00    -0.126 OA
ATOM     25  O   UNL     1       6.727  -4.335   5.142  0.00  0.00    -0.126 OA
ENDBRANCH  19  23
BRANCH  22  26
ATOM     26  O   UNL     1       6.144  -2.138  -0.731  0.00  0.00    -0.507 OA
ATOM     27  H   UNL     1       5.849  -1.218  -0.774  0.00  0.00    +0.292 HD
ENDBRANCH  22  26
ENDBRANCH  11  17
BRANCH  13  28
ATOM     28  C   UNL     1       0.841  -5.789  -0.195  0.00  0.00    +0.343 C 
ATOM     29  O   UNL     1       0.915  -6.356   0.882  0.00  0.00    -0.248 OA
ATOM     30  OXT UNL     1       0.148  -6.257  -1.082  0.00  0.00    -0.248 OA
ENDBRANCH  13  28
TORSDOF 4
