REMARK  Name = ZINC03072671
REMARK  12 active torsions:
REMARK  status: ('A' for Active; 'I' for Inactive)
REMARK    1  A    between atoms: C_1  and  C_2
REMARK    2  A    between atoms: C_2  and  O_3
REMARK    3  A    between atoms: O_3  and  C_4
REMARK    4  A    between atoms: C_4  and  C_6
REMARK    5  A    between atoms: C_7  and  C_22
REMARK    6  A    between atoms: C_9  and  N_21
REMARK    7  A    between atoms: C_10  and  C_19
REMARK    8  A    between atoms: C_11  and  C_13
REMARK    9  A    between atoms: C_22  and  S_23
REMARK   10  A    between atoms: S_23  and  C_24
REMARK   11  A    between atoms: C_25  and  C_32
REMARK   12  A    between atoms: C_26  and  C_31
REMARK                            x       y       z     vdW  Elec       q    Type
REMARK                         _______ _______ _______ _____ _____    ______ ____
ROOT
ATOM      1  C   UNL     1      -2.797  -2.411   0.127  0.00  0.00    +0.088 C 
ATOM      2  C   UNL     1      -2.945  -3.725  -0.086  0.00  0.00    +0.128 C 
ATOM      3  O   UNL     1      -4.155  -4.295  -0.193  0.00  0.00    -0.444 OA
ATOM      4  C   UNL     1      -5.242  -3.653   0.274  0.00  0.00    +0.198 C 
ATOM      5  C   UNL     1      -5.229  -2.319   0.510  0.00  0.00    +0.098 C 
ATOM      6  C   UNL     1      -3.990  -1.505   0.263  0.00  0.00    +0.105 C 
ENDROOT
BRANCH   6   7
ATOM      7  C   UNL     1      -4.163  -0.712  -1.007  0.00  0.00    -0.034 A 
ATOM      8  C   UNL     1      -4.379  -1.366  -2.206  0.00  0.00    +0.004 A 
ATOM      9  C   UNL     1      -4.538  -0.639  -3.371  0.00  0.00    +0.000 A 
ATOM     10  C   UNL     1      -4.481   0.742  -3.337  0.00  0.00    +0.000 A 
ATOM     11  C   UNL     1      -4.266   1.396  -2.138  0.00  0.00    +0.000 A 
ATOM     12  C   UNL     1      -4.112   0.669  -0.972  0.00  0.00    +0.004 A 
ENDBRANCH   6   7
BRANCH   4  13
ATOM     13  N   UNL     1      -6.390  -4.366   0.515  0.00  0.00    -0.328 N 
ATOM     14  H   UNL     1      -6.412  -5.322   0.350  0.00  0.00    +0.145 HD
ATOM     15  H   UNL     1      -7.180  -3.914   0.852  0.00  0.00    +0.145 HD
ENDBRANCH   4  13
BRANCH   1  16
ATOM     16  C   UNL     1      -1.494  -1.866   0.232  0.00  0.00    +0.339 C 
ATOM     17  O   UNL     1      -1.021  -1.627   1.327  0.00  0.00    -0.245 OA
BRANCH  16  18
ATOM     18  O   UNL     1      -0.777  -1.611  -0.883  0.00  0.00    -0.462 OA
BRANCH  18  20
ATOM     19  C   UNL     1       1.184  -0.843  -2.068  0.00  0.00    +0.048 C 
ATOM     20  C   UNL     1       0.529  -1.062  -0.703  0.00  0.00    +0.229 C 
ENDBRANCH  18  20
ENDBRANCH  16  18
ENDBRANCH   1  16
BRANCH   5  21
ATOM     21  C   UNL     1      -6.409  -1.677   1.006  0.00  0.00    +0.101 C 
ATOM     22  N   UNL     1      -7.345  -1.167   1.400  0.00  0.00    -0.191 NA
ENDBRANCH   5  21
BRANCH   2  23
ATOM     23  C   UNL     1      -1.716  -4.589  -0.209  0.00  0.00    +0.150 C 
BRANCH  23  24
ATOM     24  S   UNL     1      -1.492  -5.543   1.317  0.00  0.00    -0.097 S 
BRANCH  24  25
ATOM     25  C   UNL     1      -0.035  -6.489   1.018  0.00  0.00    +0.119 A 
ATOM     26  C   UNL     1       0.443  -7.366   2.008  0.00  0.00    +0.087 A 
ATOM     27  C   UNL     1       1.603  -8.109   1.750  0.00  0.00    -0.025 A 
ATOM     28  C   UNL     1       2.230  -7.948   0.531  0.00  0.00    +0.076 A 
ATOM     29  C   UNL     1       1.699  -7.061  -0.400  0.00  0.00    +0.272 A 
ATOM     30  N   UNL     1       0.599  -6.373  -0.138  0.00  0.00    -0.201 NA
ATOM     31  O   UNL     1       2.315  -6.902  -1.597  0.00  0.00    -0.266 OA
ATOM     32  C   UNL     1       2.154  -9.062   2.780  0.00  0.00    +0.045 C 
BRANCH  26  33
ATOM     33  C   UNL     1      -0.243  -7.498   3.258  0.00  0.00    +0.102 C 
ATOM     34  N   UNL     1      -0.787  -7.603   4.249  0.00  0.00    -0.191 NA
ENDBRANCH  26  33
ENDBRANCH  24  25
ENDBRANCH  23  24
ENDBRANCH   2  23
TORSDOF 10
