REMARK  Name = ZINC26540738
REMARK  8 active torsions:
REMARK  status: ('A' for Active; 'I' for Inactive)
REMARK    1  A    between atoms: C_3  and  N_24
REMARK    2  A    between atoms: C_4  and  N_10
REMARK    3  A    between atoms: C_6  and  N_7
REMARK    4  A    between atoms: N_10  and  S_11
REMARK    5  A    between atoms: S_11  and  C_14
REMARK    6  A    between atoms: N_24  and  C_25
REMARK    7  A    between atoms: C_25  and  C_26
REMARK    8  A    between atoms: C_26  and  O_27
REMARK                            x       y       z     vdW  Elec       q    Type
REMARK                         _______ _______ _______ _____ _____    ______ ____
ROOT
ATOM      1  C   UNL     1      -1.521   3.568   0.539  0.00  0.00    +0.034 A 
ATOM      2  C   UNL     1      -2.770   4.157   0.470  0.00  0.00    +0.027 A 
ATOM      3  C   UNL     1      -3.900   3.370   0.304  0.00  0.00    +0.050 A 
ATOM      4  C   UNL     1      -3.771   1.985   0.201  0.00  0.00    +0.071 A 
ATOM      5  C   UNL     1      -2.514   1.403   0.265  0.00  0.00    +0.059 A 
ATOM      6  C   UNL     1      -1.393   2.196   0.431  0.00  0.00    +0.128 A 
ENDROOT
BRANCH   6   7
ATOM      7  N   UNL     1      -0.052   1.572   0.500  0.00  0.00    +0.056 N 
ATOM      8  O   UNL     1       0.062   0.363   0.410  0.00  0.00    -0.126 OA
ATOM      9  O   UNL     1       0.937   2.269   0.641  0.00  0.00    -0.126 OA
ENDBRANCH   6   7
BRANCH   4  10
ATOM     10  N   UNL     1      -4.907   1.185   0.032  0.00  0.00    -0.214 N 
ATOM     11  H   UNL     1      -5.752   1.549  -0.571  0.00  0.00    +0.174 HD
BRANCH  10  12
ATOM     12  S   UNL     1      -4.979  -0.310   0.740  0.00  0.00    +0.072 S 
ATOM     13  O   UNL     1      -6.288  -0.810   0.500  0.00  0.00    -0.150 OA
ATOM     14  O   UNL     1      -3.811  -1.009   0.334  0.00  0.00    -0.150 OA
BRANCH  12  15
ATOM     15  C   UNL     1      -4.844  -0.070   2.480  0.00  0.00    +0.109 A 
ATOM     16  C   UNL     1      -3.601  -0.076   3.087  0.00  0.00    +0.029 A 
ATOM     17  C   UNL     1      -3.503   0.117   4.449  0.00  0.00    +0.006 A 
ATOM     18  C   UNL     1      -4.644   0.306   5.219  0.00  0.00    -0.044 A 
ATOM     19  C   UNL     1      -5.881   0.309   4.616  0.00  0.00    -0.042 A 
ATOM     20  C   UNL     1      -5.977   0.120   3.243  0.00  0.00    +0.032 A 
ATOM     21  C   UNL     1      -7.158   0.518   5.387  0.00  0.00    +0.035 C 
ATOM     22  C   UNL     1      -6.931   0.279   6.878  0.00  0.00    +0.005 C 
ATOM     23  C   UNL     1      -5.720   1.108   7.321  0.00  0.00    +0.005 C 
ATOM     24  C   UNL     1      -4.464   0.496   6.703  0.00  0.00    +0.035 C 
ENDBRANCH  12  15
ENDBRANCH  10  12
ENDBRANCH   4  10
BRANCH   3  25
ATOM     25  N   UNL     1      -5.166   3.964   0.239  0.00  0.00    -0.340 N 
ATOM     26  H   UNL     1      -6.061   3.339   0.107  0.00  0.00    +0.146 HD
BRANCH  25  27
ATOM     27  C   UNL     1      -5.299   5.419   0.348  0.00  0.00    +0.129 C 
BRANCH  27  28
ATOM     28  C   UNL     1      -6.776   5.805   0.247  0.00  0.00    +0.174 C 
BRANCH  28  29
ATOM     29  O   UNL     1      -7.484   5.276   1.370  0.00  0.00    -0.393 OA
ATOM     30  H   UNL     1      -8.565   5.452   1.470  0.00  0.00    +0.209 HD
ENDBRANCH  28  29
ENDBRANCH  27  28
ENDBRANCH  25  27
ENDBRANCH   3  25
TORSDOF 8
