REMARK  Name = ZINC19924294
REMARK  4 active torsions:
REMARK  status: ('A' for Active; 'I' for Inactive)
REMARK    1  A    between atoms: N_12  and  C_13
REMARK    2  A    between atoms: C_13  and  C_14
REMARK    3  A    between atoms: C_14  and  N_15
REMARK    4  A    between atoms: C_16  and  C_18
REMARK                            x       y       z     vdW  Elec       q    Type
REMARK                         _______ _______ _______ _____ _____    ______ ____
ROOT
ATOM      1  C   UNL     1      -7.062   3.740   0.051  0.00  0.00    +0.041 A 
ATOM      2  C   UNL     1      -6.459   5.002   0.055  0.00  0.00    +0.135 A 
ATOM      3  N   UNL     1      -5.160   4.839   0.050  0.00  0.00    -0.173 NA
ATOM      4  N   UNL     1      -4.891   3.464   0.042  0.00  0.00    -0.220 N 
ATOM      5  C   UNL     1      -6.080   2.808   0.038  0.00  0.00    +0.116 A 
ATOM      6  C   UNL     1      -3.623   2.872   0.034  0.00  0.00    +0.176 A 
ATOM      7  C   UNL     1      -2.479   3.671   0.033  0.00  0.00    +0.053 A 
ATOM      8  C   UNL     1      -1.247   3.041   0.025  0.00  0.00    +0.049 A 
ATOM      9  C   UNL     1      -1.226   1.645   0.017  0.00  0.00    +0.141 A 
ATOM     10  N   UNL     1      -2.364   0.970   0.013  0.00  0.00    -0.132 NA
ATOM     11  N   UNL     1      -3.506   1.555   0.026  0.00  0.00    -0.128 NA
ATOM     12  N   UNL     1      -0.011   0.966   0.007  0.00  0.00    -0.326 N 
ATOM     13  H   UNL     1       0.004  -0.134   0.006  0.00  0.00    +0.148 HD
ENDROOT
BRANCH  12  14
ATOM     14  C   UNL     1       1.248   1.716  -0.001  0.00  0.00    +0.121 C 
BRANCH  14  15
ATOM     15  C   UNL     1       2.424   0.737  -0.017  0.00  0.00    +0.123 C 
BRANCH  15  16
ATOM     16  N   UNL     1       3.682   1.487  -0.025  0.00  0.00    -0.307 N 
ATOM     17  C   UNL     1       4.859   0.829  -0.040  0.00  0.00    +0.279 C 
ATOM     18  O   UNL     1       4.875  -0.388  -0.047  0.00  0.00    -0.267 OA
ATOM     19  H   UNL     1       3.667   2.587  -0.019  0.00  0.00    +0.149 HD
BRANCH  17  20
ATOM     20  C   UNL     1       6.118   1.579  -0.048  0.00  0.00    +0.191 A 
ATOM     21  C   UNL     1       7.373   1.040  -0.057  0.00  0.00    +0.056 A 
ATOM     22  C   UNL     1       8.274   2.115  -0.065  0.00  0.00    +0.058 A 
ATOM     23  C   UNL     1       7.539   3.251  -0.052  0.00  0.00    +0.171 A 
ATOM     24  O   UNL     1       6.240   2.923  -0.041  0.00  0.00    -0.444 OA
ATOM     25 BR   UNL     1       8.231   5.011  -0.049  0.00  0.00    -0.008 Br
ENDBRANCH  17  20
ENDBRANCH  15  16
ENDBRANCH  14  15
ENDBRANCH  12  14
TORSDOF 4
