REMARK  Name = ZINC63089635
REMARK  10 active torsions:
REMARK  status: ('A' for Active; 'I' for Inactive)
REMARK    1  A    between atoms: C_1  and  C_2
REMARK    2  A    between atoms: C_2  and  C_4
REMARK    3  A    between atoms: C_2  and  N_9
REMARK    4  A    between atoms: C_4  and  C_5
REMARK    5  A    between atoms: N_6  and  O_7
REMARK    6  A    between atoms: N_9  and  C_10
REMARK    7  A    between atoms: N_9  and  C_11
REMARK    8  A    between atoms: C_11  and  C_12
REMARK    9  A    between atoms: C_17  and  O_18
REMARK   10  A    between atoms: O_18  and  C_19
REMARK                            x       y       z     vdW  Elec       q    Type
REMARK                         _______ _______ _______ _____ _____    ______ ____
ROOT
ATOM      1  N   UNL     1      -1.513  -0.211   0.144  0.00  0.00    +0.383 N 
ATOM      2  C   UNL     1      -1.435  -1.665  -0.045  0.00  0.00    -0.095 C 
ATOM      3  H   UNL     1      -1.784  -0.009   1.095  0.00  0.00    -0.081 HD
ENDROOT
BRANCH   1   5
ATOM      4  C   UNL     1      -0.295   1.910   0.011  0.00  0.00    -0.013 C 
ATOM      5  C   UNL     1      -0.200   0.389  -0.128  0.00  0.00    -0.065 C 
BRANCH   5   6
ATOM      6  C   UNL     1       0.825  -0.151   0.871  0.00  0.00    +0.059 C 
BRANCH   6   7
ATOM      7  C   UNL     1       2.201   0.334   0.492  0.00  0.00    +0.130 C 
ATOM      8  N   UNL     1       2.373   0.997  -0.604  0.00  0.00    -0.077 NA
ATOM      9  N   UNL     1       3.274   0.072   1.314  0.00  0.00    -0.344 N 
ATOM     10  H   UNL     1       3.145  -0.425   2.136  0.00  0.00    +0.143 HD
ATOM     11  H   UNL     1       4.160   0.384   1.070  0.00  0.00    +0.143 HD
BRANCH   8  12
ATOM     12  O   UNL     1       3.665   1.452  -0.960  0.00  0.00    -0.408 OA
ATOM     13  H   UNL     1       3.694   1.938  -1.796  0.00  0.00    +0.328 HD
ENDBRANCH   8  12
ENDBRANCH   6   7
ENDBRANCH   5   6
ENDBRANCH   1   5
BRANCH   1  14
ATOM     14  C   UNL     1      -2.509   0.351  -0.778  0.00  0.00    -0.039 C 
BRANCH  14  15
ATOM     15  C   UNL     1      -3.876  -0.172  -0.420  0.00  0.00    -0.021 A 
ATOM     16  C   UNL     1      -4.425  -1.219  -1.134  0.00  0.00    +0.020 A 
ATOM     17  C   UNL     1      -5.680  -1.699  -0.806  0.00  0.00    +0.018 A 
ATOM     18  C   UNL     1      -6.388  -1.131   0.239  0.00  0.00    +0.019 A 
ATOM     19  C   UNL     1      -5.843  -0.085   0.956  0.00  0.00    +0.047 A 
ATOM     20  C   UNL     1      -4.582   0.395   0.631  0.00  0.00    +0.121 A 
ATOM     21 BR   UNL     1      -6.430  -3.132  -1.786  0.00  0.00    -0.050 Br
BRANCH  20  22
ATOM     22  O   UNL     1      -4.041   1.422   1.339  0.00  0.00    -0.495 OA
ATOM     23  C   UNL     1      -4.824   1.956   2.408  0.00  0.00    +0.277 C 
ENDBRANCH  20  22
ENDBRANCH  14  15
ENDBRANCH   1  14
TORSDOF 7
