REMARK  Name = ZINC47613488
REMARK  11 active torsions:
REMARK  status: ('A' for Active; 'I' for Inactive)
REMARK    1  A    between atoms: C_1  and  C_2
REMARK    2  A    between atoms: C_2  and  N_3
REMARK    3  A    between atoms: C_7  and  C_9
REMARK    4  A    between atoms: C_9  and  N_10
REMARK    5  A    between atoms: N_10  and  C_11
REMARK    6  A    between atoms: N_10  and  C_19
REMARK    7  A    between atoms: C_11  and  C_12
REMARK    8  A    between atoms: C_12  and  C_13
REMARK    9  A    between atoms: C_19  and  C_20
REMARK   10  A    between atoms: N_25  and  C_26
REMARK   11  A    between atoms: C_26  and  C_27
REMARK                            x       y       z     vdW  Elec       q    Type
REMARK                         _______ _______ _______ _____ _____    ______ ____
ROOT
ATOM      1  N   UNL     1       2.284  -5.256  -3.756  0.00  0.00    +0.391 N 
ATOM      2  H   UNL     1       2.514  -5.539  -2.815  0.00  0.00    -0.080 HD
ENDROOT
BRANCH   1   3
ATOM      3  C   UNL     1       2.478  -3.807  -3.893  0.00  0.00    +0.020 C 
BRANCH   3   8
ATOM      4  N   UNL     1       1.006   0.241  -1.759  0.00  0.00    -0.299 N 
ATOM      5  C   UNL     1       0.982  -1.104  -1.827  0.00  0.00    +0.306 C 
ATOM      6  O   UNL     1       0.312  -1.741  -1.036  0.00  0.00    -0.252 OA
ATOM      7  N   UNL     1       1.700  -1.745  -2.770  0.00  0.00    -0.242 N 
ATOM      8  C   UNL     1       1.675  -3.091  -2.838  0.00  0.00    +0.204 C 
ATOM      9  O   UNL     1       1.008  -3.725  -2.050  0.00  0.00    -0.277 OA
ATOM     10  H   UNL     1       1.540   0.749  -2.390  0.00  0.00    +0.150 HD
ATOM     11  H   UNL     1       2.234  -1.237  -3.401  0.00  0.00    +0.159 HD
BRANCH   4  13
ATOM     12  C   UNL     1       0.427   2.447  -0.876  0.00  0.00    +0.024 C 
ATOM     13  C   UNL     1       0.225   0.938  -0.733  0.00  0.00    +0.102 C 
ENDBRANCH   4  13
ENDBRANCH   3   8
ENDBRANCH   1   3
BRANCH   1  14
ATOM     14  C   UNL     1       0.883  -5.592  -4.040  0.00  0.00    -0.073 C 
BRANCH  14  15
ATOM     15  C   UNL     1       0.649  -7.079  -3.767  0.00  0.00    +0.012 C 
BRANCH  15  16
ATOM     16  C   UNL     1      -0.816  -7.395  -3.928  0.00  0.00    -0.075 C 
ATOM     17  C   UNL     1      -1.216  -7.852  -5.071  0.00  0.00    -0.028 C 
ATOM     18  C   UNL     1      -2.642  -8.201  -5.384  0.00  0.00    +0.027 C 
ATOM     19  C   UNL     1      -3.444  -8.351  -4.090  0.00  0.00    +0.004 C 
ATOM     20  C   UNL     1      -3.179  -7.123  -3.210  0.00  0.00    +0.005 C 
ATOM     21  C   UNL     1      -1.718  -7.167  -2.751  0.00  0.00    +0.030 C 
ENDBRANCH  15  16
ENDBRANCH  14  15
ENDBRANCH   1  14
BRANCH   1  22
ATOM     22  C   UNL     1       3.158  -5.959  -4.705  0.00  0.00    +0.020 C 
BRANCH  22  23
ATOM     23  C   UNL     1       4.598  -5.750  -4.312  0.00  0.00    +0.204 C 
ATOM     24  O   UNL     1       4.867  -5.175  -3.280  0.00  0.00    -0.277 OA
ATOM     25  N   UNL     1       5.586  -6.204  -5.109  0.00  0.00    -0.242 N 
ATOM     26  C   UNL     1       6.874  -6.017  -4.757  0.00  0.00    +0.306 C 
ATOM     27  O   UNL     1       7.144  -5.439  -3.722  0.00  0.00    -0.252 OA
ATOM     28  N   UNL     1       7.862  -6.470  -5.553  0.00  0.00    -0.299 N 
ATOM     29  H   UNL     1       5.371  -6.664  -5.934  0.00  0.00    +0.159 HD
ATOM     30  H   UNL     1       7.647  -6.931  -6.379  0.00  0.00    +0.150 HD
BRANCH  28  31
ATOM     31  C   UNL     1       9.262  -6.267  -5.171  0.00  0.00    +0.102 C 
ATOM     32  C   UNL     1      10.175  -6.872  -6.239  0.00  0.00    +0.024 C 
ENDBRANCH  28  31
ENDBRANCH  22  23
ENDBRANCH   1  22
TORSDOF 9
