REMARK  Name = ZINC28808370
REMARK  10 active torsions:
REMARK  status: ('A' for Active; 'I' for Inactive)
REMARK    1  A    between atoms: C_1  and  C_2
REMARK    2  A    between atoms: C_2  and  C_4
REMARK    3  A    between atoms: C_2  and  N_16
REMARK    4  A    between atoms: N_6  and  C_7
REMARK    5  A    between atoms: C_10  and  C_14
REMARK    6  A    between atoms: N_16  and  C_17
REMARK    7  A    between atoms: C_19  and  N_25
REMARK    8  A    between atoms: C_22  and  O_23
REMARK    9  A    between atoms: O_23  and  C_24
REMARK   10  A    between atoms: C_26  and  C_28
REMARK                            x       y       z     vdW  Elec       q    Type
REMARK                         _______ _______ _______ _____ _____    ______ ____
ROOT
ATOM      1  C   UNL     1      -5.741   3.960  -1.762  0.00  0.00    +0.038 C 
ATOM      2  C   UNL     1      -5.971   3.459  -0.335  0.00  0.00    +0.154 C 
ENDROOT
BRANCH   2   3
ATOM      3  C   UNL     1      -7.282   3.993   0.181  0.00  0.00    +0.237 C 
ATOM      4  O   UNL     1      -8.159   3.226   0.517  0.00  0.00    -0.273 OA
ATOM      5  N   UNL     1      -7.480   5.324   0.268  0.00  0.00    -0.284 N 
ATOM      6  H   UNL     1      -6.715   6.019  -0.108  0.00  0.00    +0.155 HD
BRANCH   5   7
ATOM      7  C   UNL     1      -8.655   5.819   0.834  0.00  0.00    +0.035 A 
ATOM      8  C   UNL     1      -9.856   5.141   0.644  0.00  0.00    +0.024 A 
ATOM      9  C   UNL     1     -11.017   5.622   1.205  0.00  0.00    +0.022 A 
ATOM     10  C   UNL     1     -10.992   6.801   1.957  0.00  0.00    +0.070 A 
ATOM     11  C   UNL     1      -9.784   7.483   2.142  0.00  0.00    +0.060 A 
ATOM     12  C   UNL     1      -8.625   6.990   1.581  0.00  0.00    +0.044 A 
ATOM     13 CL   UNL     1      -9.746   8.947   3.074  0.00  0.00    -0.082 Cl
BRANCH  10  14
ATOM     14  C   UNL     1     -12.199   7.308   2.537  0.00  0.00    +0.101 C 
ATOM     15  N   UNL     1     -13.156   7.711   2.997  0.00  0.00    -0.191 NA
ENDBRANCH  10  14
ENDBRANCH   5   7
ENDBRANCH   2   3
BRANCH   2  16
ATOM     16  N   UNL     1      -6.005   1.994  -0.332  0.00  0.00    -0.330 N 
ATOM     17  H   UNL     1      -6.969   1.467  -0.392  0.00  0.00    +0.147 HD
BRANCH  16  18
ATOM     18  C   UNL     1      -4.813   1.266  -0.253  0.00  0.00    +0.072 A 
ATOM     19  C   UNL     1      -3.598   1.930  -0.171  0.00  0.00    +0.050 A 
ATOM     20  C   UNL     1      -2.417   1.205  -0.098  0.00  0.00    +0.035 A 
ATOM     21  C   UNL     1      -2.453  -0.183  -0.095  0.00  0.00    +0.027 A 
ATOM     22  C   UNL     1      -3.663  -0.846  -0.171  0.00  0.00    +0.049 A 
ATOM     23  C   UNL     1      -4.845  -0.127  -0.250  0.00  0.00    +0.141 A 
BRANCH  20  24
ATOM     24  N   UNL     1      -1.188   1.874  -0.021  0.00  0.00    -0.286 N 
ATOM     25  C   UNL     1      -0.099   1.354  -0.621  0.00  0.00    +0.214 C 
ATOM     26  O   UNL     1      -0.162   0.268  -1.156  0.00  0.00    -0.276 OA
ATOM     27  C   UNL     1       1.195   2.126  -0.633  0.00  0.00    +0.109 C 
ATOM     28  H   UNL     1      -1.113   2.823   0.530  0.00  0.00    +0.155 HD
ENDBRANCH  20  24
BRANCH  23  29
ATOM     29  O   UNL     1      -6.036  -0.781  -0.323  0.00  0.00    -0.493 OA
ATOM     30  C   UNL     1      -5.993  -2.209  -0.315  0.00  0.00    +0.277 C 
ENDBRANCH  23  29
ENDBRANCH  16  18
ENDBRANCH   2  16
TORSDOF 7
