REMARK  Name = ZINC38577356
REMARK  3 active torsions:
REMARK  status: ('A' for Active; 'I' for Inactive)
REMARK    1  A    between atoms: C_3  and  C_6
REMARK    2  A    between atoms: C_6  and  C_7
REMARK    3  A    between atoms: C_7  and  N_8
REMARK                            x       y       z     vdW  Elec       q    Type
REMARK                         _______ _______ _______ _____ _____    ______ ____
ROOT
ATOM      1  N   UNL     1       5.633   2.506   1.403  0.00  0.00    -0.264 NA
ATOM      2  C   UNL     1       5.907   3.692   1.886  0.00  0.00    +0.177 C 
ATOM      3  N   UNL     1       4.955   4.515   2.419  0.00  0.00    -0.198 NA
ATOM      4  C   UNL     1       5.253   5.694   2.913  0.00  0.00    +0.181 C 
ATOM      5  N   UNL     1       6.517   6.227   2.961  0.00  0.00    -0.291 N 
ATOM      6  C   UNL     1       7.645   5.284   2.983  0.00  0.00    +0.245 C 
ATOM      7  C   UNL     1       7.275   4.257   1.908  0.00  0.00    +0.129 C 
ATOM      8  N   UNL     1       8.318   4.133   1.183  0.00  0.00    -0.233 NA
ATOM      9  C   UNL     1       9.224   5.102   1.453  0.00  0.00    +0.218 C 
ATOM     10  N   UNL     1       8.893   5.848   2.473  0.00  0.00    -0.243 NA
ATOM     11  N   UNL     1       4.229   6.446   3.418  0.00  0.00    -0.331 N 
ATOM     12  H   UNL     1       3.322   6.104   3.401  0.00  0.00    +0.145 HD
ATOM     13  H   UNL     1       4.410   7.323   3.792  0.00  0.00    +0.145 HD
ATOM     14  H   UNL     1       6.660   7.186   2.980  0.00  0.00    +0.151 HD
ENDROOT
BRANCH   1  15
ATOM     15  C   UNL     1       4.255   2.011   1.414  0.00  0.00    +0.149 C 
BRANCH  15  16
ATOM     16  C   UNL     1       3.761   1.845  -0.024  0.00  0.00    +0.065 C 
BRANCH  16  19
ATOM     17  C   UNL     1      -0.016   1.351   0.009  0.00  0.00    +0.008 A 
ATOM     18  C   UNL     1       1.183   2.038   0.002  0.00  0.00    +0.011 A 
ATOM     19  C   UNL     1       2.343   1.336  -0.013  0.00  0.00    -0.008 A 
ATOM     20  S   UNL     1       1.754  -0.349  -0.017  0.00  0.00    -0.102 S 
ATOM     21  C   UNL     1       0.002  -0.004   0.002  0.00  0.00    +0.045 A 
ENDBRANCH  16  19
ENDBRANCH  15  16
ENDBRANCH   1  15
TORSDOF 3
