REMARK  Name = ZINC28805980
REMARK  10 active torsions:
REMARK  status: ('A' for Active; 'I' for Inactive)
REMARK    1  A    between atoms: C_1  and  C_2
REMARK    2  A    between atoms: C_2  and  C_4
REMARK    3  A    between atoms: C_2  and  O_14
REMARK    4  A    between atoms: N_9  and  C_10
REMARK    5  A    between atoms: C_10  and  C_11
REMARK    6  A    between atoms: C_10  and  C_12
REMARK    7  A    between atoms: C_10  and  C_13
REMARK    8  A    between atoms: O_14  and  C_15
REMARK    9  A    between atoms: C_15  and  C_17
REMARK   10  A    between atoms: C_19  and  C_27
REMARK                            x       y       z     vdW  Elec       q    Type
REMARK                         _______ _______ _______ _____ _____    ______ ____
ROOT
ATOM      1  C   UNL     1       2.002  -0.651  -1.087  0.00  0.00    +0.341 C 
ATOM      2  O   UNL     1       2.577  -0.444  -0.037  0.00  0.00    -0.245 OA
ENDROOT
BRANCH   1   3
ATOM      3  C   UNL     1       2.760  -1.127  -2.263  0.00  0.00    +0.070 A 
ATOM      4  C   UNL     1       2.112  -1.485  -3.435  0.00  0.00    +0.044 A 
ATOM      5  C   UNL     1       2.864  -1.932  -4.532  0.00  0.00    +0.073 A 
ATOM      6  N   UNL     1       4.178  -2.020  -4.479  0.00  0.00    -0.247 NA
ATOM      7  C   UNL     1       4.860  -1.690  -3.382  0.00  0.00    +0.072 A 
ATOM      8  C   UNL     1       4.176  -1.224  -2.231  0.00  0.00    +0.014 A 
ATOM      9  C   UNL     1       4.903  -0.876  -1.085  0.00  0.00    +0.011 A 
ATOM     10  C   UNL     1       6.261  -0.983  -1.090  0.00  0.00    +0.001 A 
ATOM     11  C   UNL     1       6.939  -1.435  -2.220  0.00  0.00    +0.002 A 
ATOM     12  C   UNL     1       6.264  -1.792  -3.346  0.00  0.00    +0.028 A 
BRANCH   5  13
ATOM     13  C   UNL     1       2.163  -2.314  -5.782  0.00  0.00    +0.003 A 
ATOM     14  C   UNL     1       0.771  -2.230  -5.880  0.00  0.00    +0.030 A 
ATOM     15  C   UNL     1       0.160  -2.596  -7.062  0.00  0.00    +0.111 A 
ATOM     16  N   UNL     1       0.870  -3.021  -8.089  0.00  0.00    -0.263 NA
ATOM     17  C   UNL     1       2.185  -3.115  -8.038  0.00  0.00    +0.111 A 
ATOM     18  C   UNL     1       2.877  -2.764  -6.897  0.00  0.00    +0.030 A 
ENDBRANCH   5  13
ENDBRANCH   1   3
BRANCH   1  19
ATOM     19  O   UNL     1       0.674  -0.448  -1.179  0.00  0.00    -0.449 OA
BRANCH  19  21
ATOM     20  C   UNL     1       0.002   1.541   0.018  0.00  0.00    +0.062 C 
ATOM     21  C   UNL     1       0.005   0.011  -0.003  0.00  0.00    +0.259 C 
BRANCH  21  22
ATOM     22  C   UNL     1      -1.415  -0.493  -0.003  0.00  0.00    +0.261 C 
ATOM     23  O   UNL     1      -1.842  -1.102  -0.960  0.00  0.00    -0.271 OA
ATOM     24  N   UNL     1      -2.211  -0.268   1.062  0.00  0.00    -0.237 N 
ATOM     25  C   UNL     1      -3.480  -0.720   1.062  0.00  0.00    +0.306 C 
ATOM     26  O   UNL     1      -3.908  -1.330   0.102  0.00  0.00    -0.252 OA
ATOM     27  N   UNL     1      -4.276  -0.495   2.127  0.00  0.00    -0.294 N 
ATOM     28  H   UNL     1      -1.869   0.219   1.828  0.00  0.00    +0.159 HD
ATOM     29  H   UNL     1      -3.934  -0.008   2.893  0.00  0.00    +0.151 HD
BRANCH  27  30
ATOM     30  C   UNL     1      -5.656  -0.986   2.127  0.00  0.00    +0.028 C 
ATOM     31  C   UNL     1      -5.656  -2.509   1.981  0.00  0.00    +0.031 C 
ATOM     32  C   UNL     1      -6.335  -0.599   3.442  0.00  0.00    +0.031 C 
ATOM     33  C   UNL     1      -6.419  -0.361   0.957  0.00  0.00    +0.031 C 
ENDBRANCH  27  30
ENDBRANCH  21  22
ENDBRANCH  19  21
ENDBRANCH   1  19
TORSDOF 6
