REMARK  Name = ZINC67497234
REMARK  9 active torsions:
REMARK  status: ('A' for Active; 'I' for Inactive)
REMARK    1  A    between atoms: C_1  and  N_2
REMARK    2  A    between atoms: N_2  and  C_3
REMARK    3  A    between atoms: C_7  and  C_10
REMARK    4  A    between atoms: C_10  and  N_11
REMARK    5  A    between atoms: C_12  and  C_14
REMARK    6  A    between atoms: N_16  and  C_17
REMARK    7  A    between atoms: C_21  and  N_23
REMARK    8  A    between atoms: C_24  and  O_26
REMARK    9  A    between atoms: O_26  and  C_27
REMARK                            x       y       z     vdW  Elec       q    Type
REMARK                         _______ _______ _______ _____ _____    ______ ____
ROOT
ATOM      1  C   UNL     1      -3.024  -3.787  -6.986  0.00  0.00    +0.303 C 
ATOM      2  O   UNL     1      -3.942  -3.437  -6.274  0.00  0.00    -0.265 OA
ATOM      3  N   UNL     1      -3.278  -4.400  -8.160  0.00  0.00    -0.278 N 
ATOM      4  H   UNL     1      -2.548  -4.621  -8.759  0.00  0.00    +0.155 HD
ENDROOT
BRANCH   3   5
ATOM      5  C   UNL     1      -4.593  -4.717  -8.513  0.00  0.00    +0.036 A 
ATOM      6  C   UNL     1      -5.633  -3.868  -8.154  0.00  0.00    +0.026 A 
ATOM      7  C   UNL     1      -6.933  -4.181  -8.502  0.00  0.00    +0.042 A 
ATOM      8  C   UNL     1      -7.204  -5.339  -9.208  0.00  0.00    +0.145 A 
ATOM      9  C   UNL     1      -6.166  -6.192  -9.570  0.00  0.00    +0.073 A 
ATOM     10  C   UNL     1      -4.860  -5.878  -9.226  0.00  0.00    +0.049 A 
ATOM     11  F   UNL     1      -8.476  -5.642  -9.546  0.00  0.00    -0.204 F 
BRANCH   9  12
ATOM     12  N   UNL     1      -6.440  -7.366 -10.284  0.00  0.00    -0.248 N 
ATOM     13  C   UNL     1      -5.707  -8.475 -10.065  0.00  0.00    +0.404 C 
ATOM     14  O   UNL     1      -4.756  -8.435  -9.309  0.00  0.00    -0.226 OA
ATOM     15  H   UNL     1      -7.157  -7.380 -10.937  0.00  0.00    +0.158 HD
BRANCH  13  16
ATOM     16  O   UNL     1      -6.027  -9.627 -10.683  0.00  0.00    -0.453 OA
ATOM     17  C   UNL     1      -5.207 -10.763 -10.404  0.00  0.00    +0.282 C 
ENDBRANCH  13  16
ENDBRANCH   9  12
ENDBRANCH   3   5
BRANCH   1  19
ATOM     18  N   UNL     1      -1.360  -2.927  -5.390  0.00  0.00    -0.303 N 
ATOM     19  C   UNL     1      -1.614  -3.540  -6.563  0.00  0.00    +0.300 C 
ATOM     20  O   UNL     1      -0.696  -3.890  -7.275  0.00  0.00    -0.265 OA
ATOM     21  H   UNL     1      -2.094  -2.647  -4.820  0.00  0.00    +0.149 HD
BRANCH  18  22
ATOM     22  C   UNL     1       0.024  -2.684  -4.974  0.00  0.00    +0.141 C 
BRANCH  22  29
ATOM     23  C   UNL     1       0.030   1.489  -0.047  0.00  0.00    +0.130 C 
ATOM     24  N   UNL     1       0.054   0.024  -0.052  0.00  0.00    -0.323 N 
ATOM     25  C   UNL     1       0.087  -0.712   1.214  0.00  0.00    +0.130 C 
ATOM     26  C   UNL     1       0.047  -0.667  -1.258  0.00  0.00    +0.098 A 
ATOM     27  C   UNL     1       0.065  -2.058  -1.255  0.00  0.00    +0.042 A 
ATOM     28  C   UNL     1       0.058  -2.733  -2.462  0.00  0.00    +0.010 A 
ATOM     29  C   UNL     1       0.032  -1.991  -3.636  0.00  0.00    -0.014 A 
ATOM     30  C   UNL     1       0.016  -0.613  -3.565  0.00  0.00    +0.089 A 
ATOM     31  N   UNL     1       0.018   0.004  -2.398  0.00  0.00    -0.349 N 
ATOM     32  H   UNL     1       0.002   0.974  -2.376  0.00  0.00    +0.167 HD
ENDBRANCH  22  29
ENDBRANCH  18  22
ENDBRANCH   1  19
TORSDOF 6
