REMARK  Name = ZINC09033840
REMARK  2 active torsions:
REMARK  status: ('A' for Active; 'I' for Inactive)
REMARK    1  A    between atoms: C_14  and  C_16
REMARK    2  A    between atoms: C_16  and  C_18
REMARK                            x       y       z     vdW  Elec       q    Type
REMARK                         _______ _______ _______ _____ _____    ______ ____
ROOT
ATOM      1  C   UNL     1       6.278  -2.281   2.494  0.00  0.00    +0.000 A 
ATOM      2  C   UNL     1       7.323  -1.536   3.009  0.00  0.00    +0.002 A 
ATOM      3  C   UNL     1       7.403  -0.182   2.757  0.00  0.00    +0.023 A 
ATOM      4  C   UNL     1       6.431   0.445   1.981  0.00  0.00    +0.038 A 
ATOM      5  C   UNL     1       5.385  -0.315   1.467  0.00  0.00    -0.012 A 
ATOM      6  C   UNL     1       5.308  -1.666   1.722  0.00  0.00    +0.006 A 
ATOM      7  C   UNL     1       4.525   0.642   0.691  0.00  0.00    +0.071 C 
ATOM      8  C   UNL     1       4.411   0.231  -0.781  0.00  0.00    -0.046 C 
ATOM      9  C   UNL     1       5.429   1.034  -1.613  0.00  0.00    -0.016 C 
ATOM     10  C   UNL     1       4.580   1.976  -2.496  0.00  0.00    -0.020 C 
ATOM     11  C   UNL     1       3.238   2.058  -1.726  0.00  0.00    -0.076 C 
ATOM     12  C   UNL     1       2.197   0.683  -0.022  0.00  0.00    +0.052 C 
ATOM     13  C   UNL     1       3.090   0.671   1.226  0.00  0.00    +0.084 C 
ATOM     14  C   UNL     1       1.284   1.880  -0.014  0.00  0.00    -0.027 A 
ATOM     15  C   UNL     1       1.510   3.239  -0.009  0.00  0.00    +0.004 A 
ATOM     16  C   UNL     1       0.441   4.117  -0.003  0.00  0.00    +0.000 A 
ATOM     17  C   UNL     1      -0.853   3.627  -0.002  0.00  0.00    +0.002 A 
ATOM     18  C   UNL     1      -1.083   2.267  -0.001  0.00  0.00    +0.023 A 
ATOM     19  C   UNL     1      -0.012   1.376  -0.012  0.00  0.00    +0.036 A 
ATOM     20  N   UNL     1       0.013  -0.020  -0.018  0.00  0.00    -0.286 N 
ATOM     21  C   UNL     1       1.268  -0.505  -0.023  0.00  0.00    +0.212 C 
ATOM     22  O   UNL     1       1.591  -1.675  -0.027  0.00  0.00    -0.277 OA
ATOM     23  C   UNL     1       5.197   1.979   0.837  0.00  0.00    +0.227 C 
ATOM     24  O   UNL     1       4.825   3.033   0.365  0.00  0.00    -0.275 OA
ATOM     25  N   UNL     1       6.293   1.780   1.595  0.00  0.00    -0.285 N 
ATOM     26  H   UNL     1      -0.782  -0.576  -0.017  0.00  0.00    +0.155 HD
ATOM     27  H   UNL     1       6.915   2.483   1.843  0.00  0.00    +0.155 HD
ATOM     28  N   UNL     1       3.094   0.687  -1.195  0.00  0.00    +0.395 N 
ATOM     29  H   UNL     1       2.716   0.069  -1.922  0.00  0.00    -0.079 HD
ENDROOT
BRANCH  13  30
ATOM     30  C   UNL     1       2.815  -0.557   2.054  0.00  0.00    +0.202 C 
ATOM     31  O   UNL     1       2.886  -1.659   1.548  0.00  0.00    -0.288 OA
BRANCH  30  32
ATOM     32  C   UNL     1       2.474  -0.427   3.419  0.00  0.00    +0.170 A 
ATOM     33  C   UNL     1       2.199  -1.462   4.291  0.00  0.00    +0.053 A 
ATOM     34  C   UNL     1       1.914  -0.873   5.530  0.00  0.00    +0.042 A 
ATOM     35  C   UNL     1       2.024   0.466   5.372  0.00  0.00    +0.196 A 
ATOM     36  O   UNL     1       2.366   0.730   4.106  0.00  0.00    -0.460 OA
ENDBRANCH  30  32
ENDBRANCH  13  30
TORSDOF 2
