REMARK  Name = ZINC51423052
REMARK  11 active torsions:
REMARK  status: ('A' for Active; 'I' for Inactive)
REMARK    1  A    between atoms: C_1  and  C_2
REMARK    2  A    between atoms: C_2  and  C_3
REMARK    3  A    between atoms: C_3  and  C_5
REMARK    4  A    between atoms: C_3  and  N_6
REMARK    5  A    between atoms: C_7  and  C_9
REMARK    6  A    between atoms: C_9  and  N_10
REMARK    7  A    between atoms: N_13  and  C_16
REMARK    8  A    between atoms: C_16  and  C_17
REMARK    9  A    between atoms: N_19  and  C_20
REMARK   10  A    between atoms: C_20  and  C_22
REMARK   11  A    between atoms: C_20  and  C_23
REMARK                            x       y       z     vdW  Elec       q    Type
REMARK                         _______ _______ _______ _____ _____    ______ ____
ROOT
ATOM      1  N   UNL     1      -5.110   0.016   3.572  0.00  0.00    +0.387 N 
ATOM      2  C   UNL     1      -5.548  -1.379   3.428  0.00  0.00    -0.063 C 
ATOM      3  C   UNL     1      -7.006  -1.410   2.964  0.00  0.00    +0.066 C 
ATOM      4  N   UNL     1      -7.846  -0.714   3.950  0.00  0.00    -0.298 NA
ATOM      5  C   UNL     1      -7.403   0.677   4.123  0.00  0.00    +0.066 C 
ATOM      6  C   UNL     1      -5.941   0.691   4.577  0.00  0.00    -0.063 C 
ATOM      7  H   UNL     1      -5.202   0.490   2.686  0.00  0.00    -0.081 HD
ENDROOT
BRANCH   1   8
ATOM      8  C   UNL     1      -3.705   0.046   3.999  0.00  0.00    +0.019 C 
BRANCH   8  10
ATOM      9  N   UNL     1      -1.502  -0.612   3.085  0.00  0.00    -0.314 N 
ATOM     10  C   UNL     1      -2.837  -0.536   2.913  0.00  0.00    +0.197 C 
ATOM     11  O   UNL     1      -3.340  -0.937   1.884  0.00  0.00    -0.278 OA
ATOM     12  H   UNL     1      -1.101  -0.292   3.908  0.00  0.00    +0.149 HD
BRANCH   9  13
ATOM     13  C   UNL     1      -0.659  -1.178   2.029  0.00  0.00    +0.070 C 
ATOM     14  C   UNL     1      -0.616  -2.701   2.172  0.00  0.00    +0.028 C 
BRANCH  13  16
ATOM     15  C   UNL     1       0.733   0.892   1.885  0.00  0.00    +0.005 C 
ATOM     16  C   UNL     1       0.758  -0.615   2.152  0.00  0.00    +0.018 C 
ENDBRANCH  13  16
ENDBRANCH   9  13
ENDBRANCH   8  10
ENDBRANCH   1   8
BRANCH   4  17
ATOM     17  C   UNL     1      -9.263  -0.772   3.569  0.00  0.00    +0.180 C 
BRANCH  17  18
ATOM     18  C   UNL     1     -10.111  -0.271   4.710  0.00  0.00    +0.228 C 
ATOM     19  O   UNL     1      -9.586   0.098   5.739  0.00  0.00    -0.274 OA
ATOM     20  N   UNL     1     -11.452  -0.232   4.586  0.00  0.00    -0.303 N 
ATOM     21  H   UNL     1     -11.872  -0.527   3.763  0.00  0.00    +0.149 HD
BRANCH  20  22
ATOM     22  C   UNL     1     -12.277   0.254   5.695  0.00  0.00    +0.156 C 
ATOM     23  C   UNL     1     -12.373   1.780   5.627  0.00  0.00    +0.038 C 
BRANCH  22  24
ATOM     24  C   UNL     1     -13.657  -0.342   5.595  0.00  0.00    +0.236 C 
ATOM     25  O   UNL     1     -14.094  -0.680   4.515  0.00  0.00    -0.274 OA
ATOM     26  N   UNL     1     -14.406  -0.499   6.704  0.00  0.00    -0.300 N 
ATOM     27  C   UNL     1     -13.938   0.011   8.001  0.00  0.00    +0.108 C 
ATOM     28  C   UNL     1     -15.026   0.909   8.598  0.00  0.00    +0.019 C 
ATOM     29  C   UNL     1     -16.343   0.133   8.666  0.00  0.00    +0.003 C 
ATOM     30  C   UNL     1     -16.772  -0.271   7.253  0.00  0.00    +0.019 C 
ATOM     31  C   UNL     1     -15.707  -1.177   6.639  0.00  0.00    +0.108 C 
ENDBRANCH  22  24
ENDBRANCH  20  22
ENDBRANCH  17  18
ENDBRANCH   4  17
TORSDOF 8
