REMARK  Name = ZINC05379291
REMARK  8 active torsions:
REMARK  status: ('A' for Active; 'I' for Inactive)
REMARK    1  A    between atoms: C_1  and  C_2
REMARK    2  A    between atoms: C_4  and  C_9
REMARK    3  A    between atoms: C_7  and  N_8
REMARK    4  A    between atoms: C_9  and  C_11
REMARK    5  A    between atoms: C_9  and  N_25
REMARK    6  A    between atoms: C_11  and  C_12
REMARK    7  A    between atoms: C_11  and  C_18
REMARK    8  A    between atoms: C_11  and  O_24
REMARK                            x       y       z     vdW  Elec       q    Type
REMARK                         _______ _______ _______ _____ _____    ______ ____
ROOT
ATOM      1  C   UNL     1       0.029  -2.884  -2.433  0.00  0.00    +0.181 C 
ENDROOT
BRANCH   1   2
ATOM      2  N   UNL     1      -1.155  -3.745  -2.476  0.00  0.00    -0.233 N 
ATOM      3  C   UNL     1      -2.147  -3.732  -3.428  0.00  0.00    +0.090 A 
ATOM      4  C   UNL     1      -2.374  -2.983  -4.577  0.00  0.00    +0.029 A 
ATOM      5  C   UNL     1      -3.488  -3.219  -5.333  0.00  0.00    +0.002 A 
ATOM      6  C   UNL     1      -4.398  -4.201  -4.963  0.00  0.00    +0.002 A 
ATOM      7  C   UNL     1      -4.199  -4.950  -3.840  0.00  0.00    +0.032 A 
ATOM      8  C   UNL     1      -3.064  -4.728  -3.048  0.00  0.00    +0.113 A 
ATOM      9  N   UNL     1      -2.608  -5.293  -1.912  0.00  0.00    -0.129 NA
ATOM     10  N   UNL     1      -1.498  -4.748  -1.557  0.00  0.00    -0.064 NA
ENDBRANCH   1   2
BRANCH   1  14
ATOM     11  C   UNL     1      -0.018   1.503   0.010  0.00  0.00    +0.047 C 
ATOM     12  C   UNL     1       0.002  -0.004   0.002  0.00  0.00    -0.012 A 
ATOM     13  C   UNL     1       0.006  -0.699  -1.194  0.00  0.00    +0.014 A 
ATOM     14  C   UNL     1       0.025  -2.086  -1.155  0.00  0.00    -0.003 A 
ATOM     15  C   UNL     1       0.039  -2.728   0.068  0.00  0.00    +0.090 A 
ATOM     16  N   UNL     1       0.035  -2.040   1.193  0.00  0.00    -0.349 N 
ATOM     17  C   UNL     1       0.023  -0.715   1.197  0.00  0.00    +0.096 A 
ATOM     18  H   UNL     1       0.045  -2.515   2.038  0.00  0.00    +0.167 HD
BRANCH  17  19
ATOM     19  N   UNL     1       0.025  -0.030   2.407  0.00  0.00    -0.344 N 
ATOM     20  H   UNL     1       0.012   0.940   2.415  0.00  0.00    +0.144 HD
ATOM     21  H   UNL     1       0.040  -0.522   3.243  0.00  0.00    +0.144 HD
ENDBRANCH  17  19
ENDBRANCH   1  14
BRANCH   1  22
ATOM     22  C   UNL     1       1.290  -3.749  -2.490  0.00  0.00    +0.142 C 
BRANCH  22  23
ATOM     23  C   UNL     1       1.294  -4.547  -3.769  0.00  0.00    -0.009 A 
ATOM     24  C   UNL     1       0.688  -4.039  -4.903  0.00  0.00    +0.007 A 
ATOM     25  C   UNL     1       0.692  -4.771  -6.075  0.00  0.00    +0.000 A 
ATOM     26  C   UNL     1       1.303  -6.010  -6.114  0.00  0.00    +0.000 A 
ATOM     27  C   UNL     1       1.910  -6.518  -4.981  0.00  0.00    +0.000 A 
ATOM     28  C   UNL     1       1.910  -5.784  -3.809  0.00  0.00    +0.007 A 
ENDBRANCH  22  23
BRANCH  22  29
ATOM     29  C   UNL     1       2.509  -2.864  -2.447  0.00  0.00    -0.009 A 
ATOM     30  C   UNL     1       2.453  -1.585  -2.967  0.00  0.00    +0.007 A 
ATOM     31  C   UNL     1       3.571  -0.772  -2.927  0.00  0.00    +0.000 A 
ATOM     32  C   UNL     1       4.745  -1.240  -2.366  0.00  0.00    +0.000 A 
ATOM     33  C   UNL     1       4.800  -2.519  -1.844  0.00  0.00    +0.000 A 
ATOM     34  C   UNL     1       3.681  -3.329  -1.881  0.00  0.00    +0.007 A 
ENDBRANCH  22  29
BRANCH  22  35
ATOM     35  O   UNL     1       1.308  -4.640  -1.373  0.00  0.00    -0.377 OA
ATOM     36  H   UNL     1       2.081  -5.220  -1.345  0.00  0.00    +0.211 HD
ENDBRANCH  22  35
ENDBRANCH   1  22
TORSDOF 7
