REMARK  Name = ZINC07094478
REMARK  5 active torsions:
REMARK  status: ('A' for Active; 'I' for Inactive)
REMARK    1  A    between atoms: C_1  and  C_2
REMARK    2  A    between atoms: C_4  and  N_24
REMARK    3  A    between atoms: C_6  and  S_8
REMARK    4  A    between atoms: S_8  and  C_9
REMARK    5  A    between atoms: C_9  and  C_10
REMARK                            x       y       z     vdW  Elec       q    Type
REMARK                         _______ _______ _______ _____ _____    ______ ____
ROOT
ATOM      1  C   UNL     1      -1.916   0.127   3.424  0.00  0.00    +0.173 C 
ENDROOT
BRANCH   1   2
ATOM      2  C   UNL     1      -2.723   0.507   2.210  0.00  0.00    +0.226 C 
ATOM      3  O   UNL     1      -3.893   0.196   2.138  0.00  0.00    -0.275 OA
ATOM      4  N   UNL     1      -2.144   1.192   1.204  0.00  0.00    -0.297 N 
ATOM      5  C   UNL     1      -0.727   1.579   1.269  0.00  0.00    +0.108 C 
ATOM      6  C   UNL     1      -0.013   1.086   0.008  0.00  0.00    +0.019 C 
ATOM      7  C   UNL     1      -0.752   1.592  -1.234  0.00  0.00    +0.007 C 
ATOM      8  C   UNL     1      -2.179   1.047  -1.227  0.00  0.00    +0.010 C 
ATOM      9  C   UNL     1      -2.911   1.572   0.012  0.00  0.00    +0.079 C 
ATOM     10  C   UNL     1      -4.313   0.968   0.058  0.00  0.00    +0.023 C 
ATOM     11  C   UNL     1      -5.082   1.395  -1.197  0.00  0.00    +0.002 C 
ATOM     12  C   UNL     1      -4.347   0.909  -2.446  0.00  0.00    +0.000 C 
ATOM     13  C   UNL     1      -2.933   1.492  -2.479  0.00  0.00    +0.005 C 
ENDBRANCH   1   2
BRANCH   1  14
ATOM     14  S   UNL     1      -2.966  -0.779   4.587  0.00  0.00    -0.077 S 
BRANCH  14  20
ATOM     15  C   UNL     1      -1.802  -2.766   9.158  0.00  0.00    +0.066 C 
ATOM     16  C   UNL     1      -1.345  -2.007   7.938  0.00  0.00    +0.044 A 
ATOM     17  C   UNL     1      -0.039  -1.569   7.838  0.00  0.00    +0.066 A 
ATOM     18  C   UNL     1       0.343  -0.870   6.691  0.00  0.00    +0.121 A 
ATOM     19  N   UNL     1      -0.559  -0.651   5.739  0.00  0.00    -0.207 NA
ATOM     20  C   UNL     1      -1.802  -1.089   5.873  0.00  0.00    +0.191 A 
ATOM     21  N   UNL     1      -2.193  -1.750   6.953  0.00  0.00    -0.227 NA
BRANCH  18  22
ATOM     22  N   UNL     1       1.642  -0.410   6.548  0.00  0.00    -0.343 N 
ATOM     23  H   UNL     1       1.934   0.139   5.641  0.00  0.00    +0.144 HD
ATOM     24  H   UNL     1       2.381  -0.595   7.341  0.00  0.00    +0.144 HD
ENDBRANCH  18  22
ENDBRANCH  14  20
ENDBRANCH   1  14
TORSDOF 4
