REMARK  Name = ZINC00830358
REMARK  12 active torsions:
REMARK  status: ('A' for Active; 'I' for Inactive)
REMARK    1  A    between atoms: C_1  and  C_2
REMARK    2  A    between atoms: C_3  and  C_16
REMARK    3  A    between atoms: C_4  and  C_15
REMARK    4  A    between atoms: C_5  and  C_9
REMARK    5  A    between atoms: C_6  and  C_8
REMARK    6  A    between atoms: N_10  and  N_11
REMARK    7  A    between atoms: C_16  and  C_17
REMARK    8  A    between atoms: C_18  and  C_31
REMARK    9  A    between atoms: C_19  and  C_25
REMARK   10  A    between atoms: C_20  and  C_24
REMARK   11  A    between atoms: C_22  and  C_23
REMARK   12  A    between atoms: N_26  and  N_27
REMARK                            x       y       z     vdW  Elec       q    Type
REMARK                         _______ _______ _______ _____ _____    ______ ____
ROOT
ATOM      1  C   UNL     1       1.711  -0.050  -2.213  0.00  0.00    +0.071 C 
ENDROOT
BRANCH   1   4
ATOM      2  C   UNL     1       0.558   2.380  -1.169  0.00  0.00    +0.044 C 
ATOM      3  C   UNL     1       0.527   1.120  -0.343  0.00  0.00    -0.046 A 
ATOM      4  C   UNL     1       1.080  -0.045  -0.844  0.00  0.00    -0.037 A 
ATOM      5  C   UNL     1       1.056  -1.202  -0.094  0.00  0.00    -0.038 A 
ATOM      6  C   UNL     1       0.471  -1.196   1.175  0.00  0.00    +0.001 A 
ATOM      7  C   UNL     1      -0.085  -0.015   1.674  0.00  0.00    -0.041 A 
ATOM      8  C   UNL     1      -0.049   1.135   0.914  0.00  0.00    +0.007 A 
ATOM      9  C   UNL     1      -0.718   0.001   3.041  0.00  0.00    +0.044 C 
ATOM     10  C   UNL     1       1.658  -2.470  -0.642  0.00  0.00    +0.045 C 
BRANCH   6  11
ATOM     11  C   UNL     1       0.441  -2.429   1.983  0.00  0.00    +0.138 C 
ATOM     12  N   UNL     1      -0.009  -2.396   3.199  0.00  0.00    -0.186 NA
BRANCH  12  13
ATOM     13  N   UNL     1      -0.038  -3.568   3.967  0.00  0.00    -0.191 N 
ATOM     14  C   UNL     1      -0.504  -3.534   5.231  0.00  0.00    +0.317 C 
ATOM     15  O   UNL     1      -0.530  -4.551   5.897  0.00  0.00    -0.251 OA
ATOM     16  N   UNL     1      -0.943  -2.373   5.756  0.00  0.00    -0.312 N 
ATOM     17  H   UNL     1       0.278  -4.404   3.589  0.00  0.00    +0.179 HD
ATOM     18  H   UNL     1      -0.923  -1.562   5.225  0.00  0.00    +0.147 HD
ATOM     19  H   UNL     1      -1.279  -2.349   6.666  0.00  0.00    +0.147 HD
ENDBRANCH  12  13
ENDBRANCH   6  11
ENDBRANCH   1   4
BRANCH   1  20
ATOM     20  C   UNL     1       3.174  -0.388  -2.091  0.00  0.00    -0.037 A 
ATOM     21  C   UNL     1       3.726  -1.357  -2.903  0.00  0.00    -0.038 A 
ATOM     22  C   UNL     1       5.083  -1.669  -2.789  0.00  0.00    +0.001 A 
ATOM     23  C   UNL     1       5.871  -0.997  -1.852  0.00  0.00    -0.041 A 
ATOM     24  C   UNL     1       5.306  -0.030  -1.047  0.00  0.00    +0.007 A 
ATOM     25  C   UNL     1       3.962   0.278  -1.169  0.00  0.00    -0.046 A 
ATOM     26  C   UNL     1       3.353   1.339  -0.290  0.00  0.00    +0.044 C 
ATOM     27  C   UNL     1       7.336  -1.327  -1.721  0.00  0.00    +0.044 C 
ATOM     28  C   UNL     1       2.868  -2.078  -3.910  0.00  0.00    +0.045 C 
BRANCH  22  29
ATOM     29  C   UNL     1       5.680  -2.705  -3.652  0.00  0.00    +0.138 C 
ATOM     30  N   UNL     1       6.928  -3.028  -3.510  0.00  0.00    -0.186 NA
BRANCH  30  31
ATOM     31  N   UNL     1       7.496  -4.011  -4.330  0.00  0.00    -0.191 N 
ATOM     32  C   UNL     1       8.793  -4.347  -4.182  0.00  0.00    +0.317 C 
ATOM     33  O   UNL     1       9.285  -5.201  -4.894  0.00  0.00    -0.251 OA
ATOM     34  N   UNL     1       9.544  -3.736  -3.244  0.00  0.00    -0.312 N 
ATOM     35  H   UNL     1       6.956  -4.451  -5.005  0.00  0.00    +0.179 HD
ATOM     36  H   UNL     1       9.151  -3.056  -2.675  0.00  0.00    +0.147 HD
ATOM     37  H   UNL     1      10.477  -3.978  -3.137  0.00  0.00    +0.147 HD
ENDBRANCH  30  31
ENDBRANCH  22  29
ENDBRANCH   1  20
TORSDOF 6
