REMARK  Name = ZINC08294824
REMARK  7 active torsions:
REMARK  status: ('A' for Active; 'I' for Inactive)
REMARK    1  A    between atoms: C_1  and  C_2
REMARK    2  A    between atoms: C_6  and  N_9
REMARK    3  A    between atoms: C_7  and  C_8
REMARK    4  A    between atoms: N_9  and  C_10
REMARK    5  A    between atoms: C_10  and  N_12
REMARK    6  A    between atoms: N_12  and  N_13
REMARK    7  A    between atoms: C_14  and  C_16
REMARK                            x       y       z     vdW  Elec       q    Type
REMARK                         _______ _______ _______ _____ _____    ______ ____
ROOT
ATOM      1  N   UNL     1       2.811  -3.388   4.628  0.00  0.00    -0.230 N 
ATOM      2  C   UNL     1       3.463  -3.835   5.720  0.00  0.00    +0.281 C 
ATOM      3  O   UNL     1       3.224  -4.943   6.159  0.00  0.00    -0.267 OA
ATOM      4  H   UNL     1       3.002  -2.504   4.277  0.00  0.00    +0.173 HD
ENDROOT
BRANCH   2   5
ATOM      5  C   UNL     1       4.467  -2.978   6.382  0.00  0.00    +0.155 A 
ATOM      6  C   UNL     1       5.188  -3.459   7.571  0.00  0.00    +0.020 A 
ATOM      7  C   UNL     1       4.972  -4.716   8.126  0.00  0.00    +0.011 A 
ATOM      8  C   UNL     1       5.687  -5.095   9.242  0.00  0.00    +0.001 A 
ATOM      9  C   UNL     1       6.617  -4.238   9.815  0.00  0.00    +0.001 A 
ATOM     10  C   UNL     1       6.848  -2.988   9.281  0.00  0.00    +0.014 A 
ATOM     11  C   UNL     1       6.136  -2.587   8.155  0.00  0.00    +0.050 A 
ATOM     12  C   UNL     1       6.318  -1.273   7.521  0.00  0.00    +0.272 A 
ATOM     13  O   UNL     1       7.117  -0.471   7.969  0.00  0.00    -0.266 OA
ATOM     14  N   UNL     1       5.580  -0.977   6.432  0.00  0.00    -0.242 N 
ATOM     15  H   UNL     1       5.702  -0.110   6.016  0.00  0.00    +0.192 HD
ATOM     16  N   UNL     1       4.730  -1.782   5.914  0.00  0.00    -0.166 NA
ENDBRANCH   2   5
BRANCH   1  17
ATOM     17  N   UNL     1       1.859  -4.201   3.999  0.00  0.00    -0.246 N 
ATOM     18  H   UNL     1       1.668  -5.085   4.350  0.00  0.00    +0.172 HD
BRANCH  17  19
ATOM     19  C   UNL     1       1.207  -3.754   2.907  0.00  0.00    +0.147 C 
ATOM     20  S   UNL     1       0.043  -4.748   2.140  0.00  0.00    -0.017 S 
BRANCH  19  21
ATOM     21  N   UNL     1       1.471  -2.526   2.420  0.00  0.00    -0.322 N 
ATOM     22  H   UNL     1       2.131  -1.963   2.855  0.00  0.00    +0.148 HD
BRANCH  21  28
ATOM     23  C   UNL     1      -0.019   1.526   0.010  0.00  0.00    +0.008 C 
ATOM     24  C   UNL     1       0.002  -0.004   0.002  0.00  0.00    -0.009 C 
ATOM     25  C   UNL     1       0.718  -0.497  -1.257  0.00  0.00    +0.003 C 
ATOM     26  C   UNL     1       0.739  -2.027  -1.265  0.00  0.00    +0.002 C 
ATOM     27  C   UNL     1       1.479  -2.534  -0.026  0.00  0.00    +0.022 C 
ATOM     28  C   UNL     1       0.763  -2.041   1.233  0.00  0.00    +0.075 C 
ATOM     29  C   UNL     1       0.742  -0.511   1.242  0.00  0.00    +0.009 C 
ATOM     30  C   UNL     1       0.026  -0.018   2.500  0.00  0.00    +0.009 C 
ENDBRANCH  21  28
ENDBRANCH  19  21
ENDBRANCH  17  19
ENDBRANCH   1  17
TORSDOF 5
