REMARK  Name = ZINC17102366
REMARK  6 active torsions:
REMARK  status: ('A' for Active; 'I' for Inactive)
REMARK    1  A    between atoms: C_1  and  C_2
REMARK    2  A    between atoms: C_6  and  N_8
REMARK    3  A    between atoms: C_9  and  C_11
REMARK    4  A    between atoms: C_15  and  N_16
REMARK    5  A    between atoms: C_17  and  C_19
REMARK    6  A    between atoms: C_25  and  C_27
REMARK                            x       y       z     vdW  Elec       q    Type
REMARK                         _______ _______ _______ _____ _____    ______ ____
ROOT
ATOM      1  C   UNL     1      -1.255   7.362  -0.160  0.00  0.00    +0.069 A 
ATOM      2  C   UNL     1      -1.214   8.027  -1.451  0.00  0.00    -0.023 A 
ATOM      3  C   UNL     1      -1.237   9.376  -1.404  0.00  0.00    -0.004 A 
ATOM      4  S   UNL     1      -1.300   9.768   0.322  0.00  0.00    -0.077 S 
ATOM      5  C   UNL     1      -1.303   8.162   0.973  0.00  0.00    +0.084 A 
ATOM      6  C   UNL     1      -1.208  10.321  -2.565  0.00  0.00    +0.043 C 
ATOM      7  C   UNL     1      -0.778   9.538  -3.815  0.00  0.00    +0.005 C 
ATOM      8  C   UNL     1      -1.599   8.248  -3.894  0.00  0.00    +0.005 C 
ATOM      9  C   UNL     1      -1.168   7.288  -2.783  0.00  0.00    +0.037 C 
ENDROOT
BRANCH   1  11
ATOM     10  N   UNL     1      -0.069   5.241   0.030  0.00  0.00    -0.281 N 
ATOM     11  C   UNL     1      -1.242   5.899  -0.057  0.00  0.00    +0.251 C 
ATOM     12  O   UNL     1      -2.289   5.280  -0.050  0.00  0.00    -0.270 OA
ATOM     13  H   UNL     1       0.761   5.737   0.102  0.00  0.00    +0.155 HD
BRANCH  10  19
ATOM     14  C   UNL     1       1.964   1.023   1.528  0.00  0.00    +0.044 C 
ATOM     15  C   UNL     1       0.925   1.772   0.734  0.00  0.00    -0.049 A 
ATOM     16  C   UNL     1      -0.011   1.076  -0.009  0.00  0.00    +0.003 A 
ATOM     17  C   UNL     1      -0.962   1.760  -0.743  0.00  0.00    +0.002 A 
ATOM     18  C   UNL     1      -0.988   3.140  -0.728  0.00  0.00    +0.023 A 
ATOM     19  C   UNL     1      -0.050   3.842   0.017  0.00  0.00    +0.034 A 
ATOM     20  C   UNL     1       0.908   3.153   0.750  0.00  0.00    +0.026 A 
ENDBRANCH  10  19
ENDBRANCH   1  11
BRANCH   5  21
ATOM     21  N   UNL     1      -1.343   7.772   2.303  0.00  0.00    -0.279 N 
ATOM     22  C   UNL     1      -1.387   8.703   3.277  0.00  0.00    +0.222 C 
ATOM     23  O   UNL     1      -1.391   9.881   2.990  0.00  0.00    -0.275 OA
ATOM     24  H   UNL     1      -1.341   6.830   2.532  0.00  0.00    +0.155 HD
BRANCH  22  25
ATOM     25  C   UNL     1      -1.431   8.279   4.723  0.00  0.00    +0.093 C 
ATOM     26  C   UNL     1      -0.184   7.457   5.056  0.00  0.00    +0.040 C 
ATOM     27  C   UNL     1      -0.080   7.254   6.539  0.00  0.00    -0.030 C 
ATOM     28  C   UNL     1      -0.725   7.957   7.414  0.00  0.00    -0.030 C 
ATOM     29  C   UNL     1      -1.674   9.066   7.068  0.00  0.00    +0.042 C 
ATOM     30  C   UNL     1      -1.449   9.520   5.624  0.00  0.00    +0.118 C 
BRANCH  30  31
ATOM     31  C   UNL     1      -2.568  10.437   5.201  0.00  0.00    +0.360 C 
ATOM     32  O   UNL     1      -3.281  10.133   4.274  0.00  0.00    -0.246 OA
ATOM     33  O   UNL     1      -2.773  11.591   5.854  0.00  0.00    -0.246 OA
ENDBRANCH  30  31
ENDBRANCH  22  25
ENDBRANCH   5  21
TORSDOF 5
