REMARK  Name = ZINC44319287
REMARK  13 active torsions:
REMARK  status: ('A' for Active; 'I' for Inactive)
REMARK    1  A    between atoms: C_1  and  C_2
REMARK    2  A    between atoms: C_2  and  C_3
REMARK    3  A    between atoms: C_2  and  C_4
REMARK    4  A    between atoms: C_6  and  C_12
REMARK    5  A    between atoms: C_7  and  O_11
REMARK    6  A    between atoms: C_12  and  CA_13
REMARK    7  A    between atoms: CA_13  and  C_15
REMARK    8  A    between atoms: CA_13  and  N_18
REMARK    9  A    between atoms: C_19  and  O_21
REMARK   10  A    between atoms: O_21  and  C_22
REMARK   11  A    between atoms: C_22  and  C_23
REMARK   12  A    between atoms: C_22  and  C_24
REMARK   13  A    between atoms: C_22  and  C_25
REMARK                            x       y       z     vdW  Elec       q    Type
REMARK                         _______ _______ _______ _____ _____    ______ ____
ROOT
ATOM      1  C   UNL     1       0.033  -2.661   4.242  0.00  0.00    +0.072 C 
ENDROOT
BRANCH   1   4
ATOM      2  C   UNL     1       0.731  -0.503   1.223  0.00  0.00    -0.043 A 
ATOM      3  C   UNL     1       0.079  -1.317   2.131  0.00  0.00    +0.011 A 
ATOM      4  C   UNL     1       0.744  -1.776   3.252  0.00  0.00    -0.002 A 
ATOM      5  C   UNL     1       2.068  -1.420   3.465  0.00  0.00    +0.134 A 
ATOM      6  C   UNL     1       2.721  -0.604   2.552  0.00  0.00    +0.060 A 
ATOM      7  C   UNL     1       2.052  -0.152   1.430  0.00  0.00    +0.022 A 
ATOM      8 BR   UNL     1       4.525  -0.116   2.839  0.00  0.00    -0.047 Br
BRANCH   2  10
ATOM      9  C   UNL     1      -0.019   1.526   0.010  0.00  0.00    +0.012 C 
ATOM     10  C   UNL     1       0.002  -0.004   0.002  0.00  0.00    +0.013 C 
ATOM     11  C   UNL     1       0.718  -0.497  -1.257  0.00  0.00    +0.012 C 
ENDBRANCH   2  10
BRANCH   5  12
ATOM     12  O   UNL     1       2.725  -1.870   4.567  0.00  0.00    -0.505 OA
ATOM     13  H   UNL     1       3.179  -2.714   4.437  0.00  0.00    +0.292 HD
ENDBRANCH   5  12
ENDBRANCH   1   4
BRANCH   1  14
ATOM     14  CA  UNL     1       0.423  -4.120   3.994  0.00  0.00    +0.193 C 
BRANCH  14  15
ATOM     15  N   UNL     1      -0.064  -4.539   2.678  0.00  0.00    -0.267 N 
ATOM     16  C   UNL     1       0.547  -5.547   2.023  0.00  0.00    +0.401 C 
ATOM     17  O   UNL     1       1.502  -6.106   2.524  0.00  0.00    -0.226 OA
ATOM     18  H   UNL     1      -0.826  -4.093   2.278  0.00  0.00    +0.153 HD
BRANCH  16  19
ATOM     19  O   UNL     1       0.099  -5.932   0.813  0.00  0.00    -0.445 OA
BRANCH  19  20
ATOM     20  C   UNL     1       0.794  -7.006   0.176  0.00  0.00    +0.107 C 
ATOM     21  C   UNL     1       0.722  -8.254   1.058  0.00  0.00    +0.055 C 
ATOM     22  C   UNL     1       0.145  -7.301  -1.178  0.00  0.00    +0.055 C 
ATOM     23  C   UNL     1       2.257  -6.613  -0.034  0.00  0.00    +0.055 C 
ENDBRANCH  19  20
ENDBRANCH  16  19
ENDBRANCH  14  15
BRANCH  14  24
ATOM     24  C   UNL     1      -0.191  -4.992   5.059  0.00  0.00    +0.376 C 
ATOM     25  O   UNL     1      -1.096  -5.756   4.773  0.00  0.00    -0.244 OA
ATOM     26  OXT UNL     1       0.218  -4.933   6.206  0.00  0.00    -0.244 OA
ENDBRANCH  14  24
ENDBRANCH   1  14
TORSDOF 8
