REMARK  Name = ZINC45334254
REMARK  6 active torsions:
REMARK  status: ('A' for Active; 'I' for Inactive)
REMARK    1  A    between atoms: C_1  and  C_2
REMARK    2  A    between atoms: C_2  and  C_19
REMARK    3  A    between atoms: N_3  and  N_4
REMARK    4  A    between atoms: C_5  and  C_7
REMARK    5  A    between atoms: N_10  and  C_12
REMARK    6  A    between atoms: C_28  and  O_29
REMARK                            x       y       z     vdW  Elec       q    Type
REMARK                         _______ _______ _______ _____ _____    ______ ____
ROOT
ATOM      1  N   UNL     1       0.024   0.035   2.340  0.00  0.00    -0.201 N 
ATOM      2  C   UNL     1       0.044  -0.646   3.504  0.00  0.00    +0.287 C 
ATOM      3  O   UNL     1       0.060  -1.862   3.497  0.00  0.00    -0.267 OA
ATOM      4  H   UNL     1       0.011   1.004   2.345  0.00  0.00    +0.178 HD
ENDROOT
BRANCH   2   5
ATOM      5  C   UNL     1       0.046   0.085   4.784  0.00  0.00    +0.195 A 
ATOM      6  C   UNL     1       0.072  -0.489   6.081  0.00  0.00    +0.229 A 
ATOM      7  C   UNL     1       0.063   0.561   6.942  0.00  0.00    +0.166 A 
ATOM      8  N   UNL     1       0.034   1.694   6.189  0.00  0.00    -0.235 N 
ATOM      9  N   UNL     1       0.030   1.395   4.940  0.00  0.00    -0.158 NA
ATOM     10  O   UNL     1       0.099  -1.812   6.396  0.00  0.00    -0.284 OA
BRANCH   8  11
ATOM     11  C   UNL     1       0.016   2.998   6.702  0.00  0.00    +0.065 A 
ATOM     12  C   UNL     1       0.034   3.206   8.075  0.00  0.00    +0.028 A 
ATOM     13  C   UNL     1       0.016   4.492   8.578  0.00  0.00    +0.002 A 
ATOM     14  C   UNL     1      -0.020   5.572   7.715  0.00  0.00    +0.000 A 
ATOM     15  C   UNL     1      -0.038   5.369   6.348  0.00  0.00    +0.002 A 
ATOM     16  C   UNL     1      -0.014   4.085   5.839  0.00  0.00    +0.028 A 
ENDBRANCH   8  11
ENDBRANCH   2   5
BRANCH   1  19
ATOM     17  C   UNL     1      -0.018   1.503   0.010  0.00  0.00    +0.068 C 
ATOM     18  C   UNL     1       0.002  -0.004   0.002  0.00  0.00    +0.067 C 
ATOM     19  N   UNL     1       0.022  -0.659   1.123  0.00  0.00    -0.184 NA
BRANCH  18  20
ATOM     20  C   UNL     1      -0.000  -0.734  -1.277  0.00  0.00    +0.039 A 
ATOM     21  C   UNL     1      -0.015  -0.019  -2.489  0.00  0.00    +0.014 A 
ATOM     22  C   UNL     1      -0.017  -0.669  -3.681  0.00  0.00    +0.009 A 
ATOM     23  C   UNL     1      -0.004  -2.076  -3.720  0.00  0.00    -0.014 A 
ATOM     24  C   UNL     1      -0.005  -2.766  -4.944  0.00  0.00    +0.008 A 
ATOM     25  C   UNL     1       0.009  -4.127  -4.951  0.00  0.00    +0.001 A 
ATOM     26  C   UNL     1       0.024  -4.851  -3.761  0.00  0.00    +0.001 A 
ATOM     27  C   UNL     1       0.025  -4.217  -2.556  0.00  0.00    +0.012 A 
ATOM     28  C   UNL     1       0.012  -2.812  -2.510  0.00  0.00    +0.024 A 
ATOM     29  C   UNL     1       0.019  -2.125  -1.280  0.00  0.00    +0.133 A 
BRANCH  29  30
ATOM     30  O   UNL     1       0.039  -2.813  -0.111  0.00  0.00    -0.506 OA
ATOM     31  H   UNL     1      -0.838  -3.025   0.237  0.00  0.00    +0.292 HD
ENDBRANCH  29  30
ENDBRANCH  18  20
ENDBRANCH   1  19
TORSDOF 5
