REMARK  Name = ZINC43407900
REMARK  3 active torsions:
REMARK  status: ('A' for Active; 'I' for Inactive)
REMARK    1  A    between atoms: C_1  and  C_2
REMARK    2  A    between atoms: C_8  and  C_16
REMARK    3  A    between atoms: N_17  and  O_18
REMARK                            x       y       z     vdW  Elec       q    Type
REMARK                         _______ _______ _______ _____ _____    ______ ____
ROOT
ATOM      1  C   UNL     1       0.008   1.183  -0.693  0.00  0.00    +0.047 C 
ATOM      2  C   UNL     1       0.314  -0.271  -0.442  0.00  0.00    -0.013 A 
ATOM      3  C   UNL     1       1.041  -1.117  -1.289  0.00  0.00    +0.138 A 
ATOM      4  N   UNL     1       1.098  -2.302  -0.738  0.00  0.00    -0.173 NA
ATOM      5  N   UNL     1       0.409  -2.253   0.481  0.00  0.00    -0.221 N 
ATOM      6  C   UNL     1      -0.060  -0.987   0.642  0.00  0.00    +0.119 A 
ATOM      7  C   UNL     1       0.238  -3.312   1.372  0.00  0.00    +0.165 A 
ATOM      8  C   UNL     1      -0.538  -4.418   0.999  0.00  0.00    +0.062 A 
ATOM      9  C   UNL     1      -0.693  -5.466   1.909  0.00  0.00    +0.020 A 
ATOM     10  C   UNL     1      -0.071  -5.368   3.144  0.00  0.00    -0.025 A 
ATOM     11  C   UNL     1       0.680  -4.246   3.443  0.00  0.00    +0.047 A 
ATOM     12  N   UNL     1       0.814  -3.269   2.559  0.00  0.00    -0.232 NA
ATOM     13  C   UNL     1       1.252  -4.377   4.841  0.00  0.00    +0.056 C 
ATOM     14  C   UNL     1       0.416  -5.482   5.519  0.00  0.00    +0.011 C 
ATOM     15  C   UNL     1      -0.057  -6.325   4.315  0.00  0.00    +0.037 C 
ENDROOT
BRANCH   8  16
ATOM     16  C   UNL     1      -1.181  -4.474  -0.332  0.00  0.00    +0.166 C 
ATOM     17  N   UNL     1      -1.119  -3.446  -1.128  0.00  0.00    -0.071 NA
ATOM     18  N   UNL     1      -1.849  -5.619  -0.731  0.00  0.00    -0.340 N 
ATOM     19  H   UNL     1      -1.895  -6.385  -0.138  0.00  0.00    +0.144 HD
ATOM     20  H   UNL     1      -2.271  -5.656  -1.604  0.00  0.00    +0.144 HD
BRANCH  17  21
ATOM     21  O   UNL     1      -1.735  -3.499  -2.402  0.00  0.00    -0.408 OA
ATOM     22  H   UNL     1      -1.636  -2.690  -2.921  0.00  0.00    +0.328 HD
ENDBRANCH  17  21
ENDBRANCH   8  16
TORSDOF 2
