REMARK  Name = ZINC15478136
REMARK  8 active torsions:
REMARK  status: ('A' for Active; 'I' for Inactive)
REMARK    1  A    between atoms: C_1  and  N_2
REMARK    2  A    between atoms: N_2  and  C_3
REMARK    3  A    between atoms: C_3  and  C_4
REMARK    4  A    between atoms: N_6  and  C_7
REMARK    5  A    between atoms: C_14  and  C_16
REMARK    6  A    between atoms: C_16  and  C_17
REMARK    7  A    between atoms: C_17  and  N_18
REMARK    8  A    between atoms: N_21  and  C_22
REMARK                            x       y       z     vdW  Elec       q    Type
REMARK                         _______ _______ _______ _____ _____    ______ ____
ROOT
ATOM      1  C   UNL     1       4.086  -0.364   1.158  0.00  0.00    +0.114 C 
ENDROOT
BRANCH   1   4
ATOM      2  C   UNL     1       2.966   0.584  -1.267  0.00  0.00    +0.132 C 
ATOM      3  N   UNL     1       2.406   1.042   0.007  0.00  0.00    -0.296 N 
ATOM      4  C   UNL     1       2.927   0.601   1.169  0.00  0.00    +0.217 C 
ATOM      5  O   UNL     1       2.464   0.979   2.224  0.00  0.00    -0.276 OA
BRANCH   3   6
ATOM      6  C   UNL     1       1.280   1.979   0.018  0.00  0.00    +0.203 C 
BRANCH   6   7
ATOM      7  C   UNL     1      -0.015   1.208   0.015  0.00  0.00    +0.235 C 
ATOM      8  O   UNL     1       0.001  -0.004   0.004  0.00  0.00    -0.274 OA
ATOM      9  N   UNL     1      -1.191   1.867   0.018  0.00  0.00    -0.283 N 
ATOM     10  H   UNL     1      -1.205   2.834   0.092  0.00  0.00    +0.155 HD
BRANCH   9  11
ATOM     11  C   UNL     1      -2.391   1.155  -0.086  0.00  0.00    +0.047 A 
ATOM     12  C   UNL     1      -2.510  -0.099   0.499  0.00  0.00    +0.024 A 
ATOM     13  C   UNL     1      -3.698  -0.796   0.399  0.00  0.00    +0.002 A 
ATOM     14  C   UNL     1      -4.765  -0.252  -0.291  0.00  0.00    +0.001 A 
ATOM     15  C   UNL     1      -4.649   0.994  -0.880  0.00  0.00    +0.017 A 
ATOM     16  C   UNL     1      -3.465   1.699  -0.779  0.00  0.00    +0.039 A 
ATOM     17 BR   UNL     1      -3.307   3.402  -1.585  0.00  0.00    -0.048 Br
ENDBRANCH   9  11
ENDBRANCH   6   7
ENDBRANCH   3   6
ENDBRANCH   1   4
BRANCH   1  18
ATOM     18  C   UNL     1       4.481  -0.702   2.596  0.00  0.00    +0.115 C 
BRANCH  18  19
ATOM     19  N   UNL     1       5.607  -1.639   2.585  0.00  0.00    -0.299 N 
ATOM     20  C   UNL     1       6.128  -2.081   3.747  0.00  0.00    +0.300 C 
ATOM     21  O   UNL     1       5.664  -1.701   4.805  0.00  0.00    -0.253 OA
ATOM     22  N   UNL     1       7.164  -2.943   3.737  0.00  0.00    -0.294 N 
ATOM     23  H   UNL     1       5.978  -1.942   1.742  0.00  0.00    +0.150 HD
ATOM     24  H   UNL     1       7.535  -3.246   2.894  0.00  0.00    +0.151 HD
BRANCH  22  25
ATOM     25  C   UNL     1       7.730  -3.422   5.000  0.00  0.00    +0.037 C 
ATOM     26  C   UNL     1       8.248  -2.233   5.812  0.00  0.00    +0.029 C 
ATOM     27  C   UNL     1       8.839  -2.734   7.131  0.00  0.00    -0.008 C 
ATOM     28  C   UNL     1       9.994  -3.693   6.840  0.00  0.00    +0.007 C 
ATOM     29  C   UNL     1       9.477  -4.883   6.029  0.00  0.00    -0.008 C 
ATOM     30  C   UNL     1       8.886  -4.382   4.710  0.00  0.00    +0.029 C 
ATOM     31  C   UNL     1       8.396  -5.614   6.827  0.00  0.00    +0.007 C 
ATOM     32  C   UNL     1       7.240  -4.654   7.118  0.00  0.00    -0.008 C 
ATOM     33  C   UNL     1       7.758  -3.464   7.930  0.00  0.00    +0.007 C 
ATOM     34  C   UNL     1       6.649  -4.153   5.799  0.00  0.00    +0.029 C 
ENDBRANCH  22  25
ENDBRANCH  18  19
ENDBRANCH   1  18
TORSDOF 7
