REMARK  Name = ZINC04393716
REMARK  9 active torsions:
REMARK  status: ('A' for Active; 'I' for Inactive)
REMARK    1  A    between atoms: C_1  and  C_2
REMARK    2  A    between atoms: C_2  and  C_3
REMARK    3  A    between atoms: C_2  and  C_4
REMARK    4  A    between atoms: C_2  and  C_5
REMARK    5  A    between atoms: C_8  and  O_11
REMARK    6  A    between atoms: O_11  and  C_12
REMARK    7  A    between atoms: C_15  and  C_21
REMARK    8  A    between atoms: C_17  and  N_18
REMARK    9  A    between atoms: N_22  and  O_23
REMARK                            x       y       z     vdW  Elec       q    Type
REMARK                         _______ _______ _______ _____ _____    ______ ____
ROOT
ATOM      1  C   UNL     1       2.189  -1.381  -5.835  0.00  0.00    +0.159 A 
ATOM      2  C   UNL     1       1.179  -0.429  -5.892  0.00  0.00    +0.049 A 
ATOM      3  C   UNL     1       0.721   0.021  -7.111  0.00  0.00    +0.015 A 
ATOM      4  C   UNL     1       1.274  -0.481  -8.290  0.00  0.00    +0.020 A 
ATOM      5  C   UNL     1       2.288  -1.437  -8.230  0.00  0.00    +0.048 A 
ATOM      6  C   UNL     1       2.745  -1.878  -7.007  0.00  0.00    +0.169 A 
ENDROOT
BRANCH   4   7
ATOM      7  C   UNL     1       0.784  -0.002  -9.601  0.00  0.00    +0.162 C 
ATOM      8  N   UNL     1       1.300  -0.471 -10.700  0.00  0.00    -0.072 NA
ATOM      9  N   UNL     1      -0.223   0.947  -9.660  0.00  0.00    -0.340 N 
ATOM     10  H   UNL     1      -0.608   1.296  -8.841  0.00  0.00    +0.144 HD
ATOM     11  H   UNL     1      -0.544   1.261 -10.519  0.00  0.00    +0.144 HD
BRANCH   8  12
ATOM     12  O   UNL     1       0.832  -0.011 -11.955  0.00  0.00    -0.408 OA
ATOM     13  H   UNL     1       1.275  -0.417 -12.713  0.00  0.00    +0.328 HD
ENDBRANCH   8  12
ENDBRANCH   4   7
BRANCH   6  14
ATOM     14  N   UNL     1       3.825  -2.888  -6.941  0.00  0.00    +0.060 N 
ATOM     15  O   UNL     1       4.310  -3.322  -7.961  0.00  0.00    -0.126 OA
ATOM     16  O   UNL     1       4.224  -3.279  -5.869  0.00  0.00    -0.126 OA
ENDBRANCH   6  14
BRANCH   1  17
ATOM     17  O   UNL     1       2.639  -1.821  -4.632  0.00  0.00    -0.454 OA
BRANCH  17  21
ATOM     18  C   UNL     1       0.659  -0.551  -1.242  0.00  0.00    -0.042 A 
ATOM     19  C   UNL     1       0.026  -1.395  -2.135  0.00  0.00    +0.008 A 
ATOM     20  C   UNL     1       0.687  -1.822  -3.271  0.00  0.00    +0.046 A 
ATOM     21  C   UNL     1       1.986  -1.402  -3.515  0.00  0.00    +0.129 A 
ATOM     22  C   UNL     1       2.620  -0.555  -2.617  0.00  0.00    +0.046 A 
ATOM     23  C   UNL     1       1.953  -0.127  -1.486  0.00  0.00    +0.008 A 
BRANCH  18  25
ATOM     24  C   UNL     1      -0.171   1.439  -0.017  0.00  0.00    +0.015 C 
ATOM     25  C   UNL     1      -0.064  -0.087  -0.004  0.00  0.00    -0.013 C 
ATOM     26  C   UNL     1       0.713  -0.533   1.237  0.00  0.00    +0.015 C 
ATOM     27  C   UNL     1      -1.466  -0.697   0.026  0.00  0.00    +0.015 C 
ENDBRANCH  18  25
ENDBRANCH  17  21
ENDBRANCH   1  17
TORSDOF 6
