REMARK  Name = ZINC43064644
REMARK  14 active torsions:
REMARK  status: ('A' for Active; 'I' for Inactive)
REMARK    1  A    between atoms: C_1  and  C_2
REMARK    2  A    between atoms: C_2  and  C_3
REMARK    3  A    between atoms: C_2  and  N_4
REMARK    4  A    between atoms: N_4  and  C_5
REMARK    5  A    between atoms: N_4  and  C_24
REMARK    6  A    between atoms: C_5  and  C_6
REMARK    7  A    between atoms: C_6  and  N_7
REMARK    8  A    between atoms: N_10  and  N_11
REMARK    9  A    between atoms: C_12  and  C_14
REMARK   10  A    between atoms: C_14  and  C_15
REMARK   11  A    between atoms: C_15  and  S_16
REMARK   12  A    between atoms: S_16  and  C_17
REMARK   13  A    between atoms: C_24  and  C_25
REMARK   14  A    between atoms: C_24  and  C_26
REMARK                            x       y       z     vdW  Elec       q    Type
REMARK                         _______ _______ _______ _____ _____    ______ ____
ROOT
ATOM      1  N   UNL     1      -3.042   2.023  -2.231  0.00  0.00    -0.300 N 
ATOM      2  C   UNL     1      -3.288   3.337  -2.405  0.00  0.00    +0.316 C 
ATOM      3  O   UNL     1      -2.849   4.148  -1.613  0.00  0.00    -0.251 OA
ATOM      4  N   UNL     1      -4.021   3.751  -3.458  0.00  0.00    -0.218 N 
ATOM      5  H   UNL     1      -3.392   1.376  -2.863  0.00  0.00    +0.150 HD
ATOM      6  H   UNL     1      -4.199   4.697  -3.583  0.00  0.00    +0.174 HD
ENDROOT
BRANCH   4   7
ATOM      7  N   UNL     1      -4.527   2.817  -4.370  0.00  0.00    -0.233 N 
ATOM      8  C   UNL     1      -5.260   3.231  -5.423  0.00  0.00    +0.230 C 
ATOM      9  O   UNL     1      -5.482   4.413  -5.579  0.00  0.00    -0.274 OA
ATOM     10  H   UNL     1      -4.350   1.871  -4.245  0.00  0.00    +0.173 HD
BRANCH   8  11
ATOM     11  C   UNL     1      -5.804   2.226  -6.405  0.00  0.00    +0.108 C 
BRANCH  11  12
ATOM     12  C   UNL     1      -6.594   2.953  -7.495  0.00  0.00    +0.083 C 
BRANCH  12  13
ATOM     13  S   UNL     1      -7.249   1.743  -8.677  0.00  0.00    -0.125 S 
BRANCH  13  14
ATOM     14  C   UNL     1      -8.120   2.724  -9.853  0.00  0.00    +0.008 A 
ATOM     15  C   UNL     1      -8.160   4.106  -9.713  0.00  0.00    +0.017 A 
ATOM     16  C   UNL     1      -8.843   4.873 -10.636  0.00  0.00    +0.039 A 
ATOM     17  C   UNL     1      -9.488   4.266 -11.701  0.00  0.00    +0.123 A 
ATOM     18  C   UNL     1      -9.450   2.889 -11.842  0.00  0.00    +0.039 A 
ATOM     19  C   UNL     1      -8.764   2.118 -10.925  0.00  0.00    +0.017 A 
ATOM     20  F   UNL     1     -10.156   5.019 -12.602  0.00  0.00    -0.205 F 
ENDBRANCH  13  14
ENDBRANCH  12  13
ENDBRANCH  11  12
ENDBRANCH   8  11
ENDBRANCH   4   7
BRANCH   1  21
ATOM     21  C   UNL     1      -2.245   1.573  -1.087  0.00  0.00    +0.087 C 
BRANCH  21  22
ATOM     22  C   UNL     1      -2.116   0.048  -1.124  0.00  0.00    -0.059 C 
BRANCH  22  23
ATOM     23  N   UNL     1      -1.448  -0.416   0.099  0.00  0.00    +0.384 N 
ATOM     24  H   UNL     1      -1.932  -0.052   0.905  0.00  0.00    -0.081 HD
BRANCH  23  26
ATOM     25  C   UNL     1       0.438   0.208  -1.333  0.00  0.00    -0.014 C 
ATOM     26  C   UNL     1      -0.057   0.057   0.107  0.00  0.00    -0.074 C 
ATOM     27  C   UNL     1       0.017   1.410   0.817  0.00  0.00    -0.014 C 
ENDBRANCH  23  26
BRANCH  23  28
ATOM     28  C   UNL     1      -1.466  -1.885   0.139  0.00  0.00    -0.074 C 
ATOM     29  C   UNL     1      -0.882  -2.366   1.469  0.00  0.00    -0.014 C 
ATOM     30  C   UNL     1      -2.907  -2.381   0.005  0.00  0.00    -0.014 C 
ENDBRANCH  23  28
ENDBRANCH  22  23
ENDBRANCH  21  22
ENDBRANCH   1  21
TORSDOF 10
