REMARK  Name = ZINC38573381
REMARK  8 active torsions:
REMARK  status: ('A' for Active; 'I' for Inactive)
REMARK    1  A    between atoms: C_1  and  C_2
REMARK    2  A    between atoms: C_5  and  C_8
REMARK    3  A    between atoms: C_8  and  C_10
REMARK    4  A    between atoms: C_12  and  N_21
REMARK    5  A    between atoms: C_22  and  C_24
REMARK    6  A    between atoms: C_27  and  C_29
REMARK    7  A    between atoms: C_31  and  C_36
REMARK    8  A    between atoms: C_34  and  O_35
REMARK                            x       y       z     vdW  Elec       q    Type
REMARK                         _______ _______ _______ _____ _____    ______ ____
ROOT
ATOM      1  C   UNL     1       0.075  -5.006   1.280  0.00  0.00    +0.268 C 
ATOM      2  C   UNL     1       1.490  -4.994   1.903  0.00  0.00    +0.155 C 
ATOM      3  C   UNL     1       1.575  -6.379   2.515  0.00  0.00    +0.018 A 
ATOM      4  C   UNL     1       2.432  -6.931   3.441  0.00  0.00    +0.009 A 
ATOM      5  C   UNL     1       2.272  -8.248   3.833  0.00  0.00    +0.001 A 
ATOM      6  C   UNL     1       1.250  -9.006   3.293  0.00  0.00    +0.004 A 
ATOM      7  C   UNL     1       0.392  -8.457   2.362  0.00  0.00    +0.046 A 
ATOM      8  C   UNL     1       0.549  -7.133   1.960  0.00  0.00    +0.127 A 
ATOM      9  O   UNL     1      -0.167  -6.405   1.055  0.00  0.00    -0.478 OA
ENDROOT
BRANCH   2  10
ATOM     10  N   UNL     1       2.515  -4.813   0.872  0.00  0.00    -0.299 N 
ATOM     11  C   UNL     1       3.711  -4.282   1.197  0.00  0.00    +0.261 C 
ATOM     12  O   UNL     1       3.939  -3.953   2.346  0.00  0.00    -0.269 OA
ATOM     13  H   UNL     1       2.333  -5.075  -0.044  0.00  0.00    +0.150 HD
BRANCH  11  14
ATOM     14  C   UNL     1       4.736  -4.101   0.165  0.00  0.00    +0.131 C 
ATOM     15  N   UNL     1       4.648  -4.395  -1.106  0.00  0.00    -0.148 NA
ATOM     16  N   UNL     1       5.696  -4.132  -1.782  0.00  0.00    -0.153 NA
ATOM     17  C   UNL     1       6.676  -3.613  -1.077  0.00  0.00    +0.080 C 
ATOM     18  C   UNL     1       6.132  -3.524   0.339  0.00  0.00    +0.120 C 
BRANCH  17  19
ATOM     19  C   UNL     1       7.999  -3.204  -1.553  0.00  0.00    +0.040 A 
ATOM     20  C   UNL     1       8.937  -2.669  -0.658  0.00  0.00    +0.016 A 
ATOM     21  C   UNL     1      10.179  -2.287  -1.114  0.00  0.00    -0.050 A 
ATOM     22  C   UNL     1      10.508  -2.429  -2.453  0.00  0.00    +0.007 A 
ATOM     23  C   UNL     1       9.595  -2.954  -3.347  0.00  0.00    +0.046 A 
ATOM     24  C   UNL     1       8.341  -3.350  -2.910  0.00  0.00    +0.126 A 
ATOM     25  C   UNL     1      11.186  -1.713  -0.151  0.00  0.00    +0.044 C 
BRANCH  24  26
ATOM     26  O   UNL     1       7.446  -3.871  -3.786  0.00  0.00    -0.506 OA
ATOM     27  H   UNL     1       6.877  -3.211  -4.205  0.00  0.00    +0.292 HD
ENDBRANCH  24  26
ENDBRANCH  17  19
ENDBRANCH  11  14
ENDBRANCH   2  10
BRANCH   1  28
ATOM     28  C   UNL     1       0.058  -4.245  -0.021  0.00  0.00    +0.205 C 
ATOM     29  O   UNL     1       0.060  -4.846  -1.075  0.00  0.00    -0.288 OA
BRANCH  28  34
ATOM     30  C   UNL     1      -0.018   1.503   0.010  0.00  0.00    +0.044 C 
ATOM     31  C   UNL     1       0.002  -0.004   0.002  0.00  0.00    -0.050 A 
ATOM     32  C   UNL     1       0.006  -0.686  -1.202  0.00  0.00    +0.004 A 
ATOM     33  C   UNL     1       0.024  -2.064  -1.218  0.00  0.00    +0.012 A 
ATOM     34  C   UNL     1       0.039  -2.774  -0.013  0.00  0.00    +0.021 A 
ATOM     35  C   UNL     1       0.036  -2.078   1.200  0.00  0.00    +0.012 A 
ATOM     36  C   UNL     1       0.023  -0.699   1.199  0.00  0.00    +0.004 A 
ENDBRANCH  28  34
ENDBRANCH   1  28
TORSDOF 6
