REMARK  Name = ZINC08938665
REMARK  3 active torsions:
REMARK  status: ('A' for Active; 'I' for Inactive)
REMARK    1  A    between atoms: C_1  and  C_2
REMARK    2  A    between atoms: C_4  and  C_7
REMARK    3  A    between atoms: C_7  and  N_8
REMARK                            x       y       z     vdW  Elec       q    Type
REMARK                         _______ _______ _______ _____ _____    ______ ____
ROOT
ATOM      1  N   UNL     1      -4.131  -0.829   2.762  0.00  0.00    -0.218 N 
ATOM      2  C   UNL     1      -4.065  -0.243   1.548  0.00  0.00    +0.247 C 
ATOM      3  O   UNL     1      -4.993   0.081   0.838  0.00  0.00    -0.273 OA
ATOM      4  C   UNL     1      -2.593  -0.075   1.262  0.00  0.00    +0.113 C 
ATOM      5  C   UNL     1      -2.241   1.403   1.096  0.00  0.00    +0.035 C 
ATOM      6  C   UNL     1      -0.729   1.579   1.267  0.00  0.00    +0.003 C 
ATOM      7  C   UNL     1      -0.013   1.086   0.008  0.00  0.00    +0.000 C 
ATOM      8  C   UNL     1      -0.753   1.593  -1.232  0.00  0.00    +0.000 C 
ATOM      9  C   UNL     1      -1.372   0.408  -1.979  0.00  0.00    +0.000 C 
ATOM     10  C   UNL     1      -2.619  -0.069  -1.234  0.00  0.00    +0.003 C 
ATOM     11  C   UNL     1      -2.195  -0.853   0.011  0.00  0.00    +0.035 C 
ATOM     12  N   UNL     1      -1.930  -0.631   2.448  0.00  0.00    -0.285 N 
ATOM     13  C   UNL     1      -2.912  -1.048   3.270  0.00  0.00    +0.310 C 
ATOM     14  O   UNL     1      -2.713  -1.564   4.353  0.00  0.00    -0.252 OA
ATOM     15  H   UNL     1      -0.975  -0.687   2.607  0.00  0.00    +0.151 HD
ENDROOT
BRANCH   1  16
ATOM     16  C   UNL     1      -5.381  -1.182   3.440  0.00  0.00    +0.176 C 
BRANCH  16  20
ATOM     17  C   UNL     1      -6.074  -6.223   3.314  0.00  0.00    +0.089 C 
ATOM     18  C   UNL     1      -6.069  -4.745   3.019  0.00  0.00    +0.135 A 
ATOM     19  C   UNL     1      -5.496  -3.771   3.766  0.00  0.00    +0.072 A 
ATOM     20  C   UNL     1      -5.783  -2.583   3.056  0.00  0.00    +0.102 A 
ATOM     21  N   UNL     1      -6.458  -2.939   2.001  0.00  0.00    -0.081 NA
ATOM     22  O   UNL     1      -6.627  -4.135   1.964  0.00  0.00    -0.360 OA
ENDBRANCH  16  20
ENDBRANCH   1  16
TORSDOF 2
