REMARK  Name = ZINC40922466
REMARK  7 active torsions:
REMARK  status: ('A' for Active; 'I' for Inactive)
REMARK    1  A    between atoms: C_1  and  C_2
REMARK    2  A    between atoms: C_2  and  C_3
REMARK    3  A    between atoms: C_3  and  O_4
REMARK    4  A    between atoms: O_4  and  C_5
REMARK    5  A    between atoms: C_9  and  C_11
REMARK    6  A    between atoms: C_13  and  C_22
REMARK    7  A    between atoms: C_14  and  C_21
REMARK                            x       y       z     vdW  Elec       q    Type
REMARK                         _______ _______ _______ _____ _____    ______ ____
ROOT
ATOM      1  C   UNL     1      -3.931  -6.191   0.107  0.00  0.00    +0.179 C 
ATOM      2  C   UNL     1      -4.565  -6.751  -1.138  0.00  0.00    +0.060 C 
ATOM      3  C   UNL     1      -5.823  -7.215  -1.175  0.00  0.00    +0.018 C 
ATOM      4  N   UNL     1      -6.634  -7.224  -0.067  0.00  0.00    -0.286 N 
ATOM      5  C   UNL     1      -6.038  -6.978   1.161  0.00  0.00    +0.240 A 
ATOM      6  N   UNL     1      -4.771  -6.499   1.259  0.00  0.00    -0.201 N 
ATOM      7  N   UNL     1      -4.515  -6.389   2.625  0.00  0.00    -0.042 NA
ATOM      8  N   UNL     1      -5.588  -6.783   3.231  0.00  0.00    -0.021 NA
ATOM      9  N   UNL     1      -6.488  -7.129   2.374  0.00  0.00    -0.092 NA
ATOM     10  C   UNL     1      -6.365  -7.744  -2.478  0.00  0.00    +0.061 C 
ATOM     11  H   UNL     1      -7.586  -7.394  -0.140  0.00  0.00    +0.155 HD
ENDROOT
BRANCH   1  16
ATOM     12  C   UNL     1      -2.416  -2.734  -0.092  0.00  0.00    +0.121 A 
ATOM     13  C   UNL     1      -3.546  -1.950  -0.278  0.00  0.00    +0.045 A 
ATOM     14  C   UNL     1      -4.793  -2.541  -0.338  0.00  0.00    +0.004 A 
ATOM     15  C   UNL     1      -4.916  -3.912  -0.214  0.00  0.00    +0.006 A 
ATOM     16  C   UNL     1      -3.793  -4.696  -0.028  0.00  0.00    -0.015 A 
ATOM     17  C   UNL     1      -2.542  -4.111   0.027  0.00  0.00    +0.051 A 
BRANCH  12  18
ATOM     18  O   UNL     1      -1.188  -2.156  -0.033  0.00  0.00    -0.492 OA
BRANCH  18  19
ATOM     19  C   UNL     1      -1.134  -0.734  -0.163  0.00  0.00    +0.229 C 
BRANCH  19  21
ATOM     20  C   UNL     1       0.379   1.254  -0.211  0.00  0.00    +0.007 C 
ATOM     21  C   UNL     1       0.321  -0.268  -0.071  0.00  0.00    +0.038 C 
ENDBRANCH  19  21
ENDBRANCH  18  19
ENDBRANCH  12  18
ENDBRANCH   1  16
BRANCH   2  22
ATOM     22  C   UNL     1      -3.797  -6.792  -2.326  0.00  0.00    +0.241 C 
ATOM     23  O   UNL     1      -2.996  -7.692  -2.503  0.00  0.00    -0.271 OA
ATOM     24  N   UNL     1      -3.951  -5.834  -3.261  0.00  0.00    -0.325 N 
ATOM     25  H   UNL     1      -4.589  -5.117  -3.120  0.00  0.00    +0.145 HD
ATOM     26  H   UNL     1      -3.424  -5.862  -4.075  0.00  0.00    +0.145 HD
ENDBRANCH   2  22
TORSDOF 5
