REMARK  Name = ZINC44254557
REMARK  9 active torsions:
REMARK  status: ('A' for Active; 'I' for Inactive)
REMARK    1  A    between atoms: C_1  and  N_2
REMARK    2  A    between atoms: N_2  and  C_3
REMARK    3  A    between atoms: N_2  and  C_4
REMARK    4  A    between atoms: C_5  and  C_6
REMARK    5  A    between atoms: C_5  and  O_13
REMARK    6  A    between atoms: C_6  and  C_8
REMARK    7  A    between atoms: C_6  and  N_12
REMARK    8  A    between atoms: C_8  and  C_9
REMARK    9  A    between atoms: O_13  and  C_14
REMARK                            x       y       z     vdW  Elec       q    Type
REMARK                         _______ _______ _______ _____ _____    ______ ____
ROOT
ATOM      1  C   UNL     1      -0.441  -0.652  -1.225  0.00  0.00    +0.110 C 
ATOM      2  C   UNL     1      -0.126  -0.035  -2.352  0.00  0.00    +0.105 C 
ENDROOT
BRANCH   1   4
ATOM      3  C   UNL     1      -1.659   1.242  -0.185  0.00  0.00    +0.128 C 
ATOM      4  N   UNL     1      -0.756   0.093  -0.084  0.00  0.00    -0.339 N 
ATOM      5  C   UNL     1      -0.184  -0.277   1.213  0.00  0.00    +0.128 C 
ENDBRANCH   1   4
BRANCH   2   6
ATOM      6  C   UNL     1       0.080   1.458  -2.361  0.00  0.00    +0.003 C 
BRANCH   6   7
ATOM      7  N   UNL     1      -0.985   2.095  -3.147  0.00  0.00    +0.385 N 
ATOM      8  H   UNL     1      -1.880   1.881  -2.735  0.00  0.00    -0.089 HD
ATOM      9  H   UNL     1      -0.847   3.094  -3.153  0.00  0.00    -0.089 HD
ATOM     10  H   UNL     1      -0.958   1.746  -4.093  0.00  0.00    -0.089 HD
ENDBRANCH   6   7
BRANCH   6  11
ATOM     11  C   UNL     1       1.439   1.782  -2.985  0.00  0.00    +0.087 C 
BRANCH  11  12
ATOM     12  C   UNL     1       1.699   3.263  -2.883  0.00  0.00    +0.209 C 
ATOM     13  O   UNL     1       0.878   3.988  -2.362  0.00  0.00    -0.276 OA
ATOM     14  N   UNL     1       2.843   3.781  -3.371  0.00  0.00    -0.329 N 
ATOM     15  H   UNL     1       3.499   3.201  -3.788  0.00  0.00    +0.145 HD
ATOM     16  H   UNL     1       3.010   4.735  -3.305  0.00  0.00    +0.145 HD
ENDBRANCH  11  12
ENDBRANCH   6  11
ENDBRANCH   2   6
BRANCH   2  17
ATOM     17  O   UNL     1       0.013  -0.747  -3.502  0.00  0.00    -0.458 OA
BRANCH  17  18
ATOM     18  C   UNL     1      -0.182  -2.091  -3.448  0.00  0.00    +0.164 A 
ATOM     19  C   UNL     1       0.884  -2.938  -3.175  0.00  0.00    +0.085 A 
ATOM     20  C   UNL     1       0.682  -4.305  -3.120  0.00  0.00    +0.024 A 
ATOM     21  C   UNL     1      -0.579  -4.828  -3.336  0.00  0.00    +0.003 A 
ATOM     22  C   UNL     1      -1.643  -3.987  -3.608  0.00  0.00    +0.024 A 
ATOM     23  C   UNL     1      -1.448  -2.619  -3.659  0.00  0.00    +0.085 A 
ATOM     24 CL   UNL     1      -2.785  -1.564  -3.994  0.00  0.00    -0.080 Cl
ATOM     25 CL   UNL     1       2.468  -2.282  -2.903  0.00  0.00    -0.080 Cl
ENDBRANCH  17  18
ENDBRANCH   2  17
TORSDOF 7
