REMARK  Name = ZINC00829351
REMARK  5 active torsions:
REMARK  status: ('A' for Active; 'I' for Inactive)
REMARK    1  A    between atoms: C_4  and  O_7
REMARK    2  A    between atoms: O_7  and  C_8
REMARK    3  A    between atoms: C_12  and  C_14
REMARK    4  A    between atoms: C_14  and  S_15
REMARK    5  A    between atoms: S_15  and  C_16
REMARK                            x       y       z     vdW  Elec       q    Type
REMARK                         _______ _______ _______ _____ _____    ______ ____
ROOT
ATOM      1  S   UNL     1       2.297   6.208   1.838  0.00  0.00    -0.080 S 
ENDROOT
BRANCH   1   2
ATOM      2  C   UNL     1       2.193   7.959   1.678  0.00  0.00    +0.212 A 
ATOM      3  N   UNL     1       2.258   8.717   2.765  0.00  0.00    -0.201 NA
ATOM      4  C   UNL     1       2.180  10.038   2.643  0.00  0.00    +0.162 A 
ATOM      5  C   UNL     1       2.030  10.583   1.351  0.00  0.00    +0.137 A 
ATOM      6  C   UNL     1       1.972  12.045   1.522  0.00  0.00    +0.029 A 
ATOM      7  C   UNL     1       1.833  13.110   0.635  0.00  0.00    +0.012 A 
ATOM      8  C   UNL     1       1.813  14.402   1.115  0.00  0.00    +0.001 A 
ATOM      9  C   UNL     1       1.930  14.643   2.475  0.00  0.00    +0.002 A 
ATOM     10  C   UNL     1       2.067  13.598   3.364  0.00  0.00    +0.026 A 
ATOM     11  C   UNL     1       2.090  12.287   2.899  0.00  0.00    +0.050 A 
ATOM     12  N   UNL     1       2.213  11.069   3.548  0.00  0.00    -0.338 N 
ATOM     13  H   UNL     1       2.309  10.961   4.508  0.00  0.00    +0.167 HD
ATOM     14  N   UNL     1       1.971   9.772   0.304  0.00  0.00    -0.143 NA
ATOM     15  N   UNL     1       2.056   8.496   0.470  0.00  0.00    -0.122 NA
ENDBRANCH   1   2
BRANCH   1  16
ATOM     16  C   UNL     1       2.156   5.724   0.099  0.00  0.00    +0.112 C 
BRANCH  16  21
ATOM     17  C   UNL     1       1.123   2.093  -0.052  0.00  0.00    +0.129 A 
ATOM     18  C   UNL     1       2.350   1.465  -0.211  0.00  0.00    +0.046 A 
ATOM     19  C   UNL     1       3.506   2.218  -0.278  0.00  0.00    +0.004 A 
ATOM     20  C   UNL     1       3.442   3.595  -0.175  0.00  0.00    +0.005 A 
ATOM     21  C   UNL     1       2.222   4.223  -0.012  0.00  0.00    -0.034 A 
ATOM     22  C   UNL     1       1.062   3.475   0.051  0.00  0.00    +0.050 A 
BRANCH  17  23
ATOM     23  O   UNL     1      -0.016   1.355   0.009  0.00  0.00    -0.456 OA
BRANCH  23  27
ATOM     24  C   UNL     1       0.339  -2.755   0.080  0.00  0.00    +0.000 A 
ATOM     25  C   UNL     1       0.782  -2.005   1.154  0.00  0.00    +0.004 A 
ATOM     26  C   UNL     1       0.664  -0.629   1.133  0.00  0.00    +0.046 A 
ATOM     27  C   UNL     1       0.101   0.001   0.033  0.00  0.00    +0.128 A 
ATOM     28  C   UNL     1      -0.348  -0.754  -1.042  0.00  0.00    +0.046 A 
ATOM     29  C   UNL     1      -0.223  -2.129  -1.018  0.00  0.00    +0.004 A 
ENDBRANCH  23  27
ENDBRANCH  17  23
ENDBRANCH  16  21
ENDBRANCH   1  16
TORSDOF 5
