REMARK  Name = ZINC25859572
REMARK  7 active torsions:
REMARK  status: ('A' for Active; 'I' for Inactive)
REMARK    1  A    between atoms: C_1  and  C_2
REMARK    2  A    between atoms: C_2  and  C_4
REMARK    3  A    between atoms: C_2  and  O_17
REMARK    4  A    between atoms: N_6  and  C_7
REMARK    5  A    between atoms: C_10  and  N_14
REMARK    6  A    between atoms: O_17  and  C_18
REMARK    7  A    between atoms: C_18  and  C_20
REMARK                            x       y       z     vdW  Elec       q    Type
REMARK                         _______ _______ _______ _____ _____    ______ ____
ROOT
ATOM      1  C   UNL     1       1.179   1.599   0.010  0.00  0.00    +0.258 C 
ATOM      2  O   UNL     1       1.222   2.809  -0.069  0.00  0.00    -0.271 OA
ATOM      3  N   UNL     1      -0.011   0.966   0.007  0.00  0.00    -0.281 N 
ATOM      4  H   UNL     1      -0.049  -0.133  -0.011  0.00  0.00    +0.155 HD
ENDROOT
BRANCH   3   5
ATOM      5  C   UNL     1      -1.198   1.707   0.028  0.00  0.00    +0.052 A 
ATOM      6  C   UNL     1      -1.208   2.992   0.553  0.00  0.00    +0.027 A 
ATOM      7  C   UNL     1      -2.381   3.720   0.572  0.00  0.00    +0.034 A 
ATOM      8  C   UNL     1      -3.546   3.172   0.069  0.00  0.00    +0.128 A 
ATOM      9  C   UNL     1      -3.541   1.892  -0.455  0.00  0.00    +0.054 A 
ATOM     10  C   UNL     1      -2.369   1.160  -0.483  0.00  0.00    +0.064 A 
ATOM     11 CL   UNL     1      -2.362  -0.444  -1.147  0.00  0.00    -0.082 Cl
BRANCH   8  12
ATOM     12  N   UNL     1      -4.801   3.956   0.090  0.00  0.00    +0.056 N 
ATOM     13  O   UNL     1      -4.807   5.083   0.551  0.00  0.00    -0.126 OA
ATOM     14  O   UNL     1      -5.828   3.474  -0.353  0.00  0.00    -0.126 OA
ENDBRANCH   8  12
ENDBRANCH   3   5
BRANCH   1  16
ATOM     15  C   UNL     1       2.458   0.008   1.417  0.00  0.00    +0.062 C 
ATOM     16  C   UNL     1       2.455   0.805   0.111  0.00  0.00    +0.259 C 
BRANCH  16  17
ATOM     17  O   UNL     1       3.591   1.709   0.093  0.00  0.00    -0.449 OA
BRANCH  17  18
ATOM     18  C   UNL     1       4.738   1.240  -0.434  0.00  0.00    +0.340 C 
ATOM     19  O   UNL     1       4.788   0.107  -0.867  0.00  0.00    -0.245 OA
BRANCH  18  20
ATOM     20  C   UNL     1       5.938   2.106  -0.486  0.00  0.00    +0.063 A 
ATOM     21  C   UNL     1       7.139   1.638  -1.029  0.00  0.00    +0.035 A 
ATOM     22  C   UNL     1       8.234   2.479  -1.058  0.00  0.00    +0.113 A 
ATOM     23  N   UNL     1       8.158   3.707  -0.582  0.00  0.00    -0.244 NA
ATOM     24  C   UNL     1       7.046   4.188  -0.062  0.00  0.00    +0.130 A 
ATOM     25  C   UNL     1       5.900   3.416   0.002  0.00  0.00    +0.055 A 
ATOM     26 CL   UNL     1       7.018   5.814   0.546  0.00  0.00    -0.062 Cl
ENDBRANCH  18  20
ENDBRANCH  17  18
ENDBRANCH  16  17
ENDBRANCH   1  16
TORSDOF 6
