REMARK  Name = ZINC43085248
REMARK  9 active torsions:
REMARK  status: ('A' for Active; 'I' for Inactive)
REMARK    1  A    between atoms: C_1  and  C_2
REMARK    2  A    between atoms: N_8  and  C_9
REMARK    3  A    between atoms: C_9  and  C_11
REMARK    4  A    between atoms: C_9  and  C_12
REMARK    5  A    between atoms: C_12  and  N_13
REMARK    6  A    between atoms: C_14  and  C_16
REMARK    7  A    between atoms: C_18  and  S_22
REMARK    8  A    between atoms: N_20  and  C_21
REMARK    9  A    between atoms: S_22  and  N_25
REMARK                            x       y       z     vdW  Elec       q    Type
REMARK                         _______ _______ _______ _____ _____    ______ ____
ROOT
ATOM      1  N   UNL     1       3.561  -2.314   2.005  0.00  0.00    -0.312 N 
ATOM      2  C   UNL     1       3.716  -3.080   3.103  0.00  0.00    +0.261 C 
ATOM      3  O   UNL     1       4.211  -2.608   4.109  0.00  0.00    -0.269 OA
ATOM      4  H   UNL     1       3.097  -2.667   1.229  0.00  0.00    +0.149 HD
ENDROOT
BRANCH   2   5
ATOM      5  C   UNL     1       3.288  -4.483   3.084  0.00  0.00    +0.106 A 
ATOM      6  C   UNL     1       3.514  -5.417   4.073  0.00  0.00    +0.061 A 
ATOM      7  C   UNL     1       2.937  -6.617   3.645  0.00  0.00    +0.124 A 
ATOM      8  C   UNL     1       2.380  -6.399   2.430  0.00  0.00    +0.114 A 
ATOM      9  N   UNL     1       2.581  -5.105   2.080  0.00  0.00    -0.344 N 
ATOM     10  C   UNL     1       2.126  -4.475   0.839  0.00  0.00    +0.149 C 
BRANCH   7  11
ATOM     11  S   UNL     1       2.935  -8.140   4.530  0.00  0.00    +0.062 S 
ATOM     12  O   UNL     1       2.773  -9.170   3.564  0.00  0.00    -0.153 OA
ATOM     13  O   UNL     1       4.043  -8.096   5.418  0.00  0.00    -0.153 OA
BRANCH  11  14
ATOM     14  N   UNL     1       1.573  -8.158   5.472  0.00  0.00    -0.177 NA
ATOM     15  C   UNL     1       1.476  -7.645   6.846  0.00  0.00    +0.109 C 
ATOM     16  C   UNL     1       0.031  -7.896   7.328  0.00  0.00    +0.018 C 
ATOM     17  C   UNL     1      -0.449  -9.046   6.403  0.00  0.00    +0.018 C 
ATOM     18  C   UNL     1       0.256  -8.683   5.069  0.00  0.00    +0.109 C 
ENDBRANCH  11  14
ENDBRANCH   7  11
ENDBRANCH   2   5
BRANCH   1  19
ATOM     19  C   UNL     1       4.092  -0.949   1.983  0.00  0.00    +0.089 C 
BRANCH  19  20
ATOM     20  C   UNL     1       3.675  -0.260   0.682  0.00  0.00    -0.054 C 
ATOM     21  C   UNL     1       4.339   1.116   0.598  0.00  0.00    -0.012 C 
BRANCH  20  28
ATOM     22  C   UNL     1       2.267  -0.811  -1.684  0.00  0.00    -0.013 C 
ATOM     23  C   UNL     1       1.638  -1.044  -0.309  0.00  0.00    -0.071 C 
ATOM     24  C   UNL     1       0.126  -0.827  -0.397  0.00  0.00    -0.016 C 
ATOM     25  C   UNL     1      -0.499  -1.061   0.981  0.00  0.00    -0.003 C 
ATOM     26  C   UNL     1       0.163  -0.126   1.997  0.00  0.00    -0.019 C 
ATOM     27  C   UNL     1       1.674  -0.369   1.996  0.00  0.00    -0.078 C 
ATOM     28  N   UNL     1       2.215  -0.102   0.658  0.00  0.00    +0.384 N 
ATOM     29  H   UNL     1       1.985   0.842   0.385  0.00  0.00    -0.081 HD
ENDBRANCH  20  28
ENDBRANCH  19  20
ENDBRANCH   1  19
TORSDOF 6
