REMARK  Name = ZINC27764652
REMARK  9 active torsions:
REMARK  status: ('A' for Active; 'I' for Inactive)
REMARK    1  A    between atoms: C_1  and  C_2
REMARK    2  A    between atoms: C_2  and  C_3
REMARK    3  A    between atoms: C_3  and  C_27
REMARK    4  A    between atoms: N_6  and  N_10
REMARK    5  A    between atoms: C_11  and  C_13
REMARK    6  A    between atoms: C_13  and  S_14
REMARK    7  A    between atoms: S_14  and  C_15
REMARK    8  A    between atoms: C_16  and  C_25
REMARK    9  A    between atoms: C_17  and  C_24
REMARK                            x       y       z     vdW  Elec       q    Type
REMARK                         _______ _______ _______ _____ _____    ______ ____
ROOT
ATOM      1  N   UNL     1      -3.211  -0.478   2.981  0.00  0.00    -0.223 N 
ATOM      2  C   UNL     1      -3.936  -0.011   4.016  0.00  0.00    +0.240 C 
ATOM      3  O   UNL     1      -3.638   1.042   4.539  0.00  0.00    -0.273 OA
ATOM      4  H   UNL     1      -3.481  -1.433   2.506  0.00  0.00    +0.174 HD
ENDROOT
BRANCH   1   8
ATOM      5  C   UNL     1      -0.729   1.579   1.267  0.00  0.00    +0.111 C 
ATOM      6  C   UNL     1      -2.112   0.968   1.368  0.00  0.00    +0.263 C 
ATOM      7  O   UNL     1      -3.029   1.097   0.585  0.00  0.00    -0.271 OA
ATOM      8  N   UNL     1      -2.112   0.252   2.509  0.00  0.00    -0.137 N 
ATOM      9  C   UNL     1      -0.933   0.325   3.137  0.00  0.00    +0.326 C 
ATOM     10  O   UNL     1      -0.690  -0.237   4.187  0.00  0.00    -0.251 OA
ATOM     11  N   UNL     1      -0.045   1.091   2.477  0.00  0.00    -0.284 N 
ATOM     12  C   UNL     1      -0.013   1.086   0.008  0.00  0.00    +0.041 C 
ATOM     13  H   UNL     1       0.997   1.380   2.675  0.00  0.00    +0.151 HD
BRANCH   5  15
ATOM     14  C   UNL     1       0.603   3.693   1.227  0.00  0.00    +0.006 C 
ATOM     15  C   UNL     1      -0.810   3.107   1.274  0.00  0.00    +0.032 C 
ENDBRANCH   5  15
ENDBRANCH   1   8
BRANCH   2  16
ATOM     16  C   UNL     1      -5.118  -0.796   4.523  0.00  0.00    +0.173 C 
BRANCH  16  17
ATOM     17  S   UNL     1      -5.880   0.086   5.907  0.00  0.00    -0.095 S 
BRANCH  17  18
ATOM     18  C   UNL     1      -7.194  -1.023   6.292  0.00  0.00    +0.115 A 
ATOM     19  C   UNL     1      -8.073  -0.727   7.349  0.00  0.00    +0.087 A 
ATOM     20  C   UNL     1      -9.110  -1.623   7.628  0.00  0.00    -0.026 A 
ATOM     21  C   UNL     1      -9.220  -2.769   6.858  0.00  0.00    -0.022 A 
ATOM     22  C   UNL     1      -8.315  -2.998   5.836  0.00  0.00    +0.046 A 
ATOM     23  N   UNL     1      -7.345  -2.132   5.588  0.00  0.00    -0.244 NA
ATOM     24  C   UNL     1      -8.648  -4.307   5.149  0.00  0.00    +0.056 C 
ATOM     25  C   UNL     1      -9.569  -5.059   6.133  0.00  0.00    +0.011 C 
ATOM     26  C   UNL     1     -10.217  -3.905   6.927  0.00  0.00    +0.037 C 
ATOM     27  C   UNL     1     -10.083  -1.350   8.746  0.00  0.00    +0.045 C 
BRANCH  19  28
ATOM     28  C   UNL     1      -7.913   0.469   8.120  0.00  0.00    +0.102 C 
ATOM     29  N   UNL     1      -7.786   1.419   8.731  0.00  0.00    -0.191 NA
ENDBRANCH  19  28
ENDBRANCH  17  18
ENDBRANCH  16  17
ENDBRANCH   2  16
TORSDOF 6
