REMARK  Name = ZINC23064915
REMARK  13 active torsions:
REMARK  status: ('A' for Active; 'I' for Inactive)
REMARK    1  A    between atoms: C_1  and  C_2
REMARK    2  A    between atoms: C_2  and  C_3
REMARK    3  A    between atoms: C_3  and  C_5
REMARK    4  A    between atoms: C_3  and  C_26
REMARK    5  A    between atoms: C_5  and  N_6
REMARK    6  A    between atoms: C_7  and  C_9
REMARK    7  A    between atoms: C_9  and  S_10
REMARK    8  A    between atoms: S_10  and  C_11
REMARK    9  A    between atoms: C_14  and  C_17
REMARK   10  A    between atoms: N_15  and  N_16
REMARK   11  A    between atoms: C_20  and  O_23
REMARK   12  A    between atoms: O_23  and  C_24
REMARK   13  A    between atoms: C_24  and  C_25
REMARK                            x       y       z     vdW  Elec       q    Type
REMARK                         _______ _______ _______ _____ _____    ______ ____
ROOT
ATOM      1  C   UNL     1       5.888   3.054   4.660  0.00  0.00    +0.209 A 
ATOM      2  N   UNL     1       6.257   3.873   3.701  0.00  0.00    -0.121 NA
ATOM      3  N   UNL     1       7.500   4.172   3.829  0.00  0.00    -0.127 NA
ATOM      4  C   UNL     1       8.004   3.557   4.874  0.00  0.00    +0.182 A 
ATOM      5  N   UNL     1       6.987   2.822   5.439  0.00  0.00    -0.224 N 
ENDROOT
BRANCH   4   6
ATOM      6  C   UNL     1       9.400   3.638   5.353  0.00  0.00    +0.021 A 
ATOM      7  C   UNL     1      10.231   4.670   4.914  0.00  0.00    +0.015 A 
ATOM      8  C   UNL     1      11.531   4.745   5.367  0.00  0.00    +0.046 A 
ATOM      9  C   UNL     1      12.017   3.789   6.250  0.00  0.00    +0.121 A 
ATOM     10  C   UNL     1      11.194   2.759   6.685  0.00  0.00    +0.046 A 
ATOM     11  C   UNL     1       9.892   2.679   6.241  0.00  0.00    +0.015 A 
BRANCH   9  12
ATOM     12  O   UNL     1      13.300   3.864   6.690  0.00  0.00    -0.492 OA
BRANCH  12  13
ATOM     13  C   UNL     1      14.091   4.950   6.203  0.00  0.00    +0.225 C 
ATOM     14  C   UNL     1      15.496   4.867   6.803  0.00  0.00    +0.048 C 
ENDBRANCH  12  13
ENDBRANCH   9  12
ENDBRANCH   4   6
BRANCH   5  15
ATOM     15  N   UNL     1       7.060   2.026   6.546  0.00  0.00    -0.295 N 
ATOM     16  H   UNL     1       8.012   1.923   7.088  0.00  0.00    +0.163 HD
ATOM     17  H   UNL     1       6.167   1.488   6.897  0.00  0.00    +0.163 HD
ENDBRANCH   5  15
BRANCH   1  18
ATOM     18  S   UNL     1       4.279   2.377   4.895  0.00  0.00    -0.075 S 
BRANCH  18  19
ATOM     19  C   UNL     1       3.411   3.138   3.501  0.00  0.00    +0.173 C 
BRANCH  19  21
ATOM     20  N   UNL     1       1.129   3.131   2.545  0.00  0.00    -0.314 N 
ATOM     21  C   UNL     1       1.972   2.689   3.499  0.00  0.00    +0.223 C 
ATOM     22  O   UNL     1       1.573   1.930   4.356  0.00  0.00    -0.275 OA
ATOM     23  H   UNL     1       1.492   3.820   1.767  0.00  0.00    +0.149 HD
BRANCH  20  24
ATOM     24  C   UNL     1      -0.269   2.695   2.543  0.00  0.00    +0.112 C 
BRANCH  24  25
ATOM     25  C   UNL     1      -1.002   3.338   1.364  0.00  0.00    +0.036 C 
BRANCH  25  26
ATOM     26  C   UNL     1      -2.467   2.989   1.433  0.00  0.00    -0.043 A 
ATOM     27  C   UNL     1      -2.864   1.665   1.386  0.00  0.00    +0.004 A 
ATOM     28  C   UNL     1      -4.207   1.345   1.453  0.00  0.00    +0.000 A 
ATOM     29  C   UNL     1      -5.153   2.347   1.558  0.00  0.00    +0.000 A 
ATOM     30  C   UNL     1      -4.756   3.671   1.599  0.00  0.00    +0.000 A 
ATOM     31  C   UNL     1      -3.413   3.991   1.536  0.00  0.00    +0.004 A 
ENDBRANCH  25  26
BRANCH  25  33
ATOM     32  C   UNL     1      -1.061   3.550  -1.125  0.00  0.00    +0.004 C 
ATOM     33  C   UNL     1      -0.414   2.816   0.052  0.00  0.00    +0.006 C 
ENDBRANCH  25  33
ENDBRANCH  24  25
ENDBRANCH  20  24
ENDBRANCH  19  21
ENDBRANCH  18  19
ENDBRANCH   1  18
TORSDOF 11
