REMARK  Name = ZINC35318107
REMARK  6 active torsions:
REMARK  status: ('A' for Active; 'I' for Inactive)
REMARK    1  A    between atoms: C_1  and  C_2
REMARK    2  A    between atoms: N_5  and  C_8
REMARK    3  A    between atoms: C_8  and  C_10
REMARK    4  A    between atoms: C_8  and  C_22
REMARK    5  A    between atoms: C_15  and  N_16
REMARK    6  A    between atoms: N_24  and  C_25
REMARK                            x       y       z     vdW  Elec       q    Type
REMARK                         _______ _______ _______ _____ _____    ______ ____
ROOT
ATOM      1  C   UNL     1       1.704  -3.870  -0.074  0.00  0.00    +0.176 C 
ENDROOT
BRANCH   1   2
ATOM      2  C   UNL     1       2.306  -3.783   1.305  0.00  0.00    +0.012 A 
ATOM      3  C   UNL     1       1.545  -4.112   2.412  0.00  0.00    +0.057 A 
ATOM      4  C   UNL     1       2.097  -4.032   3.680  0.00  0.00    +0.167 A 
ATOM      5  C   UNL     1       3.418  -3.620   3.836  0.00  0.00    +0.168 A 
ATOM      6  C   UNL     1       4.174  -3.293   2.723  0.00  0.00    +0.082 A 
ATOM      7  C   UNL     1       3.619  -3.380   1.460  0.00  0.00    +0.135 A 
ATOM      8  O   UNL     1       3.722  -3.625   5.167  0.00  0.00    -0.453 OA
ATOM      9  C   UNL     1       2.454  -3.649   5.850  0.00  0.00    +0.466 C 
ATOM     10  O   UNL     1       1.573  -4.294   4.913  0.00  0.00    -0.453 OA
BRANCH   7  11
ATOM     11  N   UNL     1       4.431  -3.035   0.271  0.00  0.00    +0.057 N 
ATOM     12  O   UNL     1       5.546  -2.591   0.409  0.00  0.00    -0.126 OA
ATOM     13  O   UNL     1       3.978  -3.199  -0.838  0.00  0.00    -0.126 OA
ENDBRANCH   7  11
ENDBRANCH   1   2
BRANCH   1  18
ATOM     14  C   UNL     1      -0.327   1.122  -1.980  0.00  0.00    +0.007 C 
ATOM     15  C   UNL     1      -0.223  -0.317  -1.469  0.00  0.00    -0.012 C 
ATOM     16  C   UNL     1       0.628  -1.143  -2.438  0.00  0.00    +0.018 C 
ATOM     17  C   UNL     1       0.779  -2.564  -1.891  0.00  0.00    +0.086 C 
ATOM     18  N   UNL     1       1.417  -2.517  -0.569  0.00  0.00    -0.288 NA
ATOM     19  C   UNL     1       0.595  -1.769   0.390  0.00  0.00    +0.086 C 
ATOM     20  C   UNL     1       0.438  -0.324  -0.088  0.00  0.00    +0.018 C 
ENDBRANCH   1  18
BRANCH   1  21
ATOM     21  C   UNL     1       0.425  -4.665  -0.014  0.00  0.00    +0.235 C 
ATOM     22  O   UNL     1      -0.645  -4.093  -0.006  0.00  0.00    -0.274 OA
ATOM     23  N   UNL     1       0.470  -6.011   0.029  0.00  0.00    -0.311 N 
ATOM     24  H   UNL     1       1.324  -6.466   0.095  0.00  0.00    +0.149 HD
BRANCH  23  25
ATOM     25  C   UNL     1      -0.772  -6.787  -0.023  0.00  0.00    +0.073 C 
ATOM     26  C   UNL     1      -1.358  -6.907   1.385  0.00  0.00    +0.022 C 
ATOM     27  C   UNL     1      -2.654  -7.718   1.330  0.00  0.00    +0.002 C 
ATOM     28  C   UNL     1      -2.359  -9.115   0.779  0.00  0.00    +0.000 C 
ATOM     29  C   UNL     1      -1.773  -8.995  -0.629  0.00  0.00    +0.002 C 
ATOM     30  C   UNL     1      -0.477  -8.184  -0.574  0.00  0.00    +0.022 C 
ENDBRANCH  23  25
ENDBRANCH   1  21
TORSDOF 5
