REMARK  Name = ZINC08934421
REMARK  8 active torsions:
REMARK  status: ('A' for Active; 'I' for Inactive)
REMARK    1  A    between atoms: C_1  and  N_2
REMARK    2  A    between atoms: N_7  and  C_8
REMARK    3  A    between atoms: C_8  and  C_9
REMARK    4  A    between atoms: C_9  and  C_10
REMARK    5  A    between atoms: C_10  and  O_11
REMARK    6  A    between atoms: N_12  and  C_26
REMARK    7  A    between atoms: N_15  and  C_18
REMARK    8  A    between atoms: C_18  and  C_19
REMARK                            x       y       z     vdW  Elec       q    Type
REMARK                         _______ _______ _______ _____ _____    ______ ____
ROOT
ATOM      1  C   UNL     1      -1.951   2.436   3.828  0.00  0.00    +0.152 C 
ATOM      2  N   UNL     1      -0.757   1.608   3.642  0.00  0.00    -0.309 N 
ATOM      3  C   UNL     1       0.035   1.059   4.642  0.00  0.00    +0.153 A 
ATOM      4  C   UNL     1       1.050   0.361   3.998  0.00  0.00    +0.170 A 
ATOM      5  N   UNL     1       0.858   0.491   2.684  0.00  0.00    -0.196 NA
ATOM      6  C   UNL     1      -0.212   1.226   2.457  0.00  0.00    +0.198 A 
ATOM      7  N   UNL     1      -0.698   1.558   1.213  0.00  0.00    -0.315 N 
ATOM      8  N   UNL     1       2.002  -0.291   4.765  0.00  0.00    -0.279 N 
ATOM      9  C   UNL     1       1.935  -0.241   6.109  0.00  0.00    +0.334 A 
ATOM     10  O   UNL     1       2.779  -0.819   6.767  0.00  0.00    -0.246 OA
ATOM     11  N   UNL     1       0.958   0.431   6.741  0.00  0.00    -0.255 N 
ATOM     12  C   UNL     1       0.003   1.084   6.047  0.00  0.00    +0.283 A 
ATOM     13  O   UNL     1      -0.878   1.691   6.632  0.00  0.00    -0.265 OA
ATOM     14  C   UNL     1       3.084  -1.034   4.114  0.00  0.00    +0.155 C 
ATOM     15  H   UNL     1      -1.495   2.106   1.135  0.00  0.00    +0.149 HD
ENDROOT
BRANCH   7  16
ATOM     16  C   UNL     1      -0.013   1.086   0.008  0.00  0.00    +0.106 C 
BRANCH  16  17
ATOM     17  C   UNL     1      -0.753   1.593  -1.232  0.00  0.00    +0.046 C 
BRANCH  17  18
ATOM     18  C   UNL     1      -0.037   1.099  -2.490  0.00  0.00    +0.157 C 
BRANCH  18  19
ATOM     19  O   UNL     1      -0.728   1.573  -3.648  0.00  0.00    -0.395 OA
ATOM     20  H   UNL     1      -0.328   1.297  -4.484  0.00  0.00    +0.209 HD
ENDBRANCH  18  19
ENDBRANCH  17  18
ENDBRANCH  16  17
ENDBRANCH   7  16
BRANCH  11  21
ATOM     21  C   UNL     1       0.928   0.454   8.206  0.00  0.00    +0.165 C 
BRANCH  21  22
ATOM     22  C   UNL     1       1.723   1.633   8.705  0.00  0.00    -0.027 A 
ATOM     23  C   UNL     1       3.072   1.495   8.970  0.00  0.00    +0.006 A 
ATOM     24  C   UNL     1       3.802   2.578   9.424  0.00  0.00    +0.015 A 
ATOM     25  C   UNL     1       3.180   3.797   9.623  0.00  0.00    +0.018 A 
ATOM     26  C   UNL     1       1.828   3.933   9.363  0.00  0.00    +0.015 A 
ATOM     27  C   UNL     1       1.100   2.852   8.904  0.00  0.00    +0.006 A 
ATOM     28 BR   UNL     1       4.176   5.277  10.250  0.00  0.00    -0.050 Br
ENDBRANCH  21  22
ENDBRANCH  11  21
TORSDOF 6
