REMARK  Name = ZINC12050226
REMARK  5 active torsions:
REMARK  status: ('A' for Active; 'I' for Inactive)
REMARK    1  A    between atoms: C_1  and  C_2
REMARK    2  A    between atoms: N_4  and  C_5
REMARK    3  A    between atoms: C_8  and  C_10
REMARK    4  A    between atoms: N_16  and  C_23
REMARK    5  A    between atoms: C_28  and  N_59
REMARK                            x       y       z     vdW  Elec       q    Type
REMARK                         _______ _______ _______ _____ _____    ______ ____
ROOT
ATOM      1  C   UNL     1       1.598   3.248  -0.547  0.00  0.00    -0.029 C 
ATOM      2  C   UNL     1       1.696   2.533  -1.904  0.00  0.00    -0.006 C 
ATOM      3  C   UNL     1       1.757   1.030  -1.584  0.00  0.00    +0.003 C 
ATOM      4  C   UNL     1       3.004   0.398  -2.238  0.00  0.00    +0.110 C 
ATOM      5  N   UNL     1       4.092   0.545  -1.264  0.00  0.00    -0.299 N 
ATOM      6  C   UNL     1       3.615   0.836  -0.038  0.00  0.00    +0.206 C 
ATOM      7  O   UNL     1       4.295   0.970   0.957  0.00  0.00    -0.277 OA
ATOM      8  C   UNL     1       2.125   0.970  -0.083  0.00  0.00    +0.018 C 
ATOM      9  C   UNL     1       0.280   1.949   1.000  0.00  0.00    -0.077 C 
ATOM     10  C   UNL     1       0.411   0.522   1.594  0.00  0.00    -0.019 C 
ATOM     11  C   UNL     1       1.388  -0.174   0.614  0.00  0.00    -0.004 C 
ATOM     12  N   UNL     1       1.634   2.204   0.495  0.00  0.00    +0.394 N 
ATOM     13  H   UNL     1       2.245   2.503   1.264  0.00  0.00    -0.079 HD
ENDROOT
BRANCH   5  14
ATOM     14  C   UNL     1       5.513   0.394  -1.583  0.00  0.00    +0.072 C 
ATOM     15  C   UNL     1       6.111  -0.735  -0.739  0.00  0.00    +0.004 C 
ATOM     16  C   UNL     1       7.609  -0.847  -1.032  0.00  0.00    -0.077 C 
ATOM     17  C   UNL     1       7.743   1.517  -1.547  0.00  0.00    -0.077 C 
ATOM     18  C   UNL     1       6.250   1.700  -1.269  0.00  0.00    +0.004 C 
ATOM     19  C   UNL     1       9.726   0.313  -0.853  0.00  0.00    -0.096 C 
ATOM     20  N   UNL     1       8.262   0.433  -0.686  0.00  0.00    +0.378 N 
ATOM     21  H   UNL     1       8.056   0.658   0.294  0.00  0.00    -0.082 HD
ENDBRANCH   5  14
BRANCH   1  25
ATOM     22  C   UNL     1      -2.079   5.243  -0.774  0.00  0.00    +0.072 A 
ATOM     23  C   UNL     1      -1.414   5.376   0.408  0.00  0.00    +0.031 A 
ATOM     24  C   UNL     1      -0.193   4.746   0.559  0.00  0.00    +0.011 A 
ATOM     25  C   UNL     1       0.305   4.018  -0.469  0.00  0.00    -0.022 A 
ATOM     26  S   UNL     1      -0.964   4.211  -1.711  0.00  0.00    -0.080 S 
BRANCH  22  30
ATOM     27  C   UNL     1      -5.134   6.107  -2.796  0.00  0.00    +0.109 C 
ATOM     28  C   UNL     1      -3.805   5.528  -2.385  0.00  0.00    +0.214 C 
ATOM     29  O   UNL     1      -3.179   4.836  -3.159  0.00  0.00    -0.276 OA
ATOM     30  N   UNL     1      -3.312   5.780  -1.155  0.00  0.00    -0.280 N 
ATOM     31  H   UNL     1      -3.813   6.333  -0.536  0.00  0.00    +0.155 HD
ENDBRANCH  22  30
ENDBRANCH   1  25
TORSDOF 3
