REMARK  Name = ZINC57342382
REMARK  3 active torsions:
REMARK  status: ('A' for Active; 'I' for Inactive)
REMARK    1  A    between atoms: C_1  and  C_2
REMARK    2  A    between atoms: C_8  and  N_10
REMARK    3  A    between atoms: C_13  and  C_18
REMARK                            x       y       z     vdW  Elec       q    Type
REMARK                         _______ _______ _______ _____ _____    ______ ____
ROOT
ATOM      1  N   UNL     1       0.056  -0.038   2.447  0.00  0.00    -0.312 N 
ATOM      2  C   UNL     1       0.749   0.095   3.620  0.00  0.00    +0.196 A 
ATOM      3  N   UNL     1       2.033  -0.199   3.652  0.00  0.00    -0.212 NA
ATOM      4  C   UNL     1       2.743  -0.083   4.771  0.00  0.00    +0.152 A 
ATOM      5  C   UNL     1       2.145   0.348   5.920  0.00  0.00    +0.102 A 
ATOM      6  C   UNL     1       0.775   0.664   5.895  0.00  0.00    +0.253 A 
ATOM      7  N   UNL     1       0.100   0.535   4.733  0.00  0.00    -0.295 N 
ATOM      8  O   UNL     1       0.208   1.052   6.903  0.00  0.00    -0.268 OA
ATOM      9  H   UNL     1      -0.888   0.180   2.413  0.00  0.00    +0.149 HD
ATOM     10  H   UNL     1      -0.844   0.751   4.692  0.00  0.00    +0.172 HD
ENDROOT
BRANCH   1  17
ATOM     11  C   UNL     1      -0.019   1.526   0.010  0.00  0.00    +0.009 C 
ATOM     12  C   UNL     1       0.002  -0.004   0.002  0.00  0.00    +0.006 C 
ATOM     13  C   UNL     1      -1.433  -0.534   0.013  0.00  0.00    +0.005 C 
ATOM     14  C   UNL     1      -1.413  -2.063   0.004  0.00  0.00    +0.000 C 
ATOM     15  C   UNL     1      -0.673  -2.570   1.244  0.00  0.00    +0.002 C 
ATOM     16  C   UNL     1       0.763  -2.041   1.233  0.00  0.00    +0.022 C 
ATOM     17  C   UNL     1       0.742  -0.511   1.242  0.00  0.00    +0.076 C 
ENDBRANCH   1  17
BRANCH   4  18
ATOM     18  C   UNL     1       4.210  -0.429   4.771  0.00  0.00    +0.434 C 
ATOM     19  F   UNL     1       4.736  -0.229   6.052  0.00  0.00    -0.164 F 
ATOM     20  F   UNL     1       4.373  -1.769   4.404  0.00  0.00    -0.164 F 
ATOM     21  F   UNL     1       4.882   0.390   3.858  0.00  0.00    -0.164 F 
ENDBRANCH   4  18
TORSDOF 2
