REMARK  Name = ZINC45873501
REMARK  13 active torsions:
REMARK  status: ('A' for Active; 'I' for Inactive)
REMARK    1  A    between atoms: C_1  and  C_2
REMARK    2  A    between atoms: C_2  and  C_4
REMARK    3  A    between atoms: C_2  and  N_11
REMARK    4  A    between atoms: C_12  and  C_14
REMARK    5  A    between atoms: C_14  and  N_15
REMARK    6  A    between atoms: N_15  and  C_16
REMARK    7  A    between atoms: N_15  and  C_20
REMARK    8  A    between atoms: C_16  and  C_17
REMARK    9  A    between atoms: C_17  and  O_18
REMARK   10  A    between atoms: O_18  and  C_19
REMARK   11  A    between atoms: C_21  and  N_36
REMARK   12  A    between atoms: N_22  and  C_29
REMARK   13  A    between atoms: C_29  and  C_30
REMARK                            x       y       z     vdW  Elec       q    Type
REMARK                         _______ _______ _______ _____ _____    ______ ____
ROOT
ATOM      1  N   UNL     1       4.608  -1.087   2.227  0.00  0.00    -0.312 N 
ENDROOT
BRANCH   1   2
ATOM      2  C   UNL     1       4.956  -2.257   1.513  0.00  0.00    +0.134 A 
ATOM      3  C   UNL     1       4.728  -3.493   2.052  0.00  0.00    +0.127 A 
ATOM      4  N   UNL     1       5.077  -4.616   1.337  0.00  0.00    -0.276 N 
ATOM      5  C   UNL     1       5.635  -4.500   0.118  0.00  0.00    +0.331 A 
ATOM      6  O   UNL     1       5.936  -5.504  -0.500  0.00  0.00    -0.246 OA
ATOM      7  N   UNL     1       5.866  -3.293  -0.427  0.00  0.00    -0.273 N 
ATOM      8  H   UNL     1       6.269  -3.232  -1.308  0.00  0.00    +0.173 HD
ATOM      9  C   UNL     1       5.536  -2.166   0.235  0.00  0.00    +0.277 A 
ATOM     10  O   UNL     1       5.744  -1.075  -0.269  0.00  0.00    -0.266 OA
BRANCH   3  11
ATOM     11  N   UNL     1       4.157  -3.613   3.299  0.00  0.00    -0.343 N 
ATOM     12  H   UNL     1       3.856  -2.822   3.772  0.00  0.00    +0.144 HD
ATOM     13  H   UNL     1       4.056  -4.489   3.704  0.00  0.00    +0.144 HD
ENDBRANCH   3  11
BRANCH   4  14
ATOM     14  C   UNL     1       4.838  -5.945   1.905  0.00  0.00    +0.163 C 
BRANCH  14  15
ATOM     15  C   UNL     1       3.465  -6.423   1.506  0.00  0.00    -0.028 A 
ATOM     16  C   UNL     1       2.374  -6.134   2.304  0.00  0.00    +0.005 A 
ATOM     17  C   UNL     1       1.115  -6.572   1.939  0.00  0.00    +0.000 A 
ATOM     18  C   UNL     1       0.947  -7.299   0.775  0.00  0.00    +0.000 A 
ATOM     19  C   UNL     1       2.038  -7.587  -0.023  0.00  0.00    +0.000 A 
ATOM     20  C   UNL     1       3.296  -7.145   0.340  0.00  0.00    +0.005 A 
ENDBRANCH  14  15
ENDBRANCH   4  14
ENDBRANCH   1   2
BRANCH   1  21
ATOM     21  C   UNL     1       3.201  -0.797   2.518  0.00  0.00    +0.201 C 
BRANCH  21  23
ATOM     22  N   UNL     1       1.364   0.525   1.522  0.00  0.00    -0.307 N 
ATOM     23  C   UNL     1       2.648   0.121   1.459  0.00  0.00    +0.231 C 
ATOM     24  O   UNL     1       3.358   0.497   0.551  0.00  0.00    -0.274 OA
ATOM     25  H   UNL     1       0.795   0.224   2.248  0.00  0.00    +0.149 HD
BRANCH  22  27
ATOM     26  C   UNL     1       1.146   2.868   0.858  0.00  0.00    +0.033 C 
ATOM     27  C   UNL     1       0.826   1.418   0.492  0.00  0.00    +0.102 C 
BRANCH  27  28
ATOM     28  C   UNL     1      -0.668   1.240   0.404  0.00  0.00    -0.009 A 
ATOM     29  C   UNL     1      -1.375   0.779   1.499  0.00  0.00    +0.007 A 
ATOM     30  C   UNL     1      -2.746   0.616   1.418  0.00  0.00    +0.000 A 
ATOM     31  C   UNL     1      -3.410   0.914   0.243  0.00  0.00    +0.001 A 
ATOM     32  C   UNL     1      -2.704   1.374  -0.853  0.00  0.00    +0.020 A 
ATOM     33  C   UNL     1      -1.333   1.543  -0.770  0.00  0.00    +0.046 A 
ATOM     34 CL   UNL     1      -0.446   2.128  -2.144  0.00  0.00    -0.083 Cl
ENDBRANCH  27  28
ENDBRANCH  22  27
ENDBRANCH  21  23
ENDBRANCH   1  21
BRANCH   1  35
ATOM     35  C   UNL     1       5.654  -0.164   2.676  0.00  0.00    +0.134 C 
BRANCH  35  36
ATOM     36  C   UNL     1       6.035  -0.490   4.122  0.00  0.00    +0.178 C 
BRANCH  36  37
ATOM     37  O   UNL     1       6.627  -1.789   4.177  0.00  0.00    -0.381 OA
ATOM     38  C   UNL     1       7.022  -2.192   5.490  0.00  0.00    +0.194 C 
ENDBRANCH  36  37
ENDBRANCH  35  36
ENDBRANCH   1  35
TORSDOF 11
