REMARK  Name = ZINC45439960
REMARK  5 active torsions:
REMARK  status: ('A' for Active; 'I' for Inactive)
REMARK    1  A    between atoms: C_1  and  O_2
REMARK    2  A    between atoms: O_2  and  C_3
REMARK    3  A    between atoms: N_5  and  N_6
REMARK    4  A    between atoms: N_9  and  C_10
REMARK    5  A    between atoms: C_15  and  C_18
REMARK                            x       y       z     vdW  Elec       q    Type
REMARK                         _______ _______ _______ _____ _____    ______ ____
ROOT
ATOM      1  N   UNL     1       0.086  -2.723  -0.096  0.00  0.00    -0.216 N 
ATOM      2  C   UNL     1       0.139  -4.068  -0.165  0.00  0.00    +0.316 C 
ATOM      3  O   UNL     1      -0.354  -4.742   0.720  0.00  0.00    -0.251 OA
ATOM      4  N   UNL     1       0.737  -4.666  -1.214  0.00  0.00    -0.295 N 
ATOM      5  H   UNL     1      -0.345  -2.292   0.659  0.00  0.00    +0.174 HD
ATOM      6  H   UNL     1       1.130  -4.128  -1.919  0.00  0.00    +0.151 HD
ENDROOT
BRANCH   4   7
ATOM      7  C   UNL     1       0.795  -6.128  -1.288  0.00  0.00    +0.075 C 
ATOM      8  C   UNL     1       2.005  -6.632  -0.498  0.00  0.00    +0.022 C 
ATOM      9  C   UNL     1       3.284  -6.040  -1.093  0.00  0.00    +0.002 C 
ATOM     10  C   UNL     1       3.414  -6.471  -2.555  0.00  0.00    +0.012 C 
ATOM     11  C   UNL     1       2.205  -5.967  -3.345  0.00  0.00    +0.095 C 
ATOM     12  C   UNL     1       0.925  -6.559  -2.751  0.00  0.00    +0.034 C 
BRANCH  11  13
ATOM     13  C   UNL     1       2.335  -6.398  -4.807  0.00  0.00    +0.393 C 
ATOM     14  F   UNL     1       2.390  -7.794  -4.878  0.00  0.00    -0.170 F 
ATOM     15  F   UNL     1       1.229  -5.938  -5.529  0.00  0.00    -0.170 F 
ATOM     16  F   UNL     1       3.505  -5.857  -5.350  0.00  0.00    -0.170 F 
ENDBRANCH  11  13
ENDBRANCH   4   7
BRANCH   1  19
ATOM     17  C   UNL     1       0.600  -0.602  -1.046  0.00  0.00    +0.417 C 
ATOM     18  O   UNL     1       1.092   0.072  -1.930  0.00  0.00    -0.225 OA
ATOM     19  N   UNL     1       0.653  -1.946  -1.115  0.00  0.00    -0.198 N 
ATOM     20  H   UNL     1       1.084  -2.377  -1.870  0.00  0.00    +0.176 HD
BRANCH  17  22
ATOM     21  C   UNL     1      -0.017   1.425   0.010  0.00  0.00    +0.282 C 
ATOM     22  O   UNL     1       0.002  -0.004   0.002  0.00  0.00    -0.453 OA
ENDBRANCH  17  22
ENDBRANCH   1  19
TORSDOF 4
