REMARK  Name = ZINC42860063
REMARK  5 active torsions:
REMARK  status: ('A' for Active; 'I' for Inactive)
REMARK    1  A    between atoms: C_1  and  C_2
REMARK    2  A    between atoms: C_8  and  C_10
REMARK    3  A    between atoms: C_10  and  N_11
REMARK    4  A    between atoms: N_11  and  C_12
REMARK    5  A    between atoms: C_17  and  N_18
REMARK                            x       y       z     vdW  Elec       q    Type
REMARK                         _______ _______ _______ _____ _____    ______ ____
ROOT
ATOM      1  C   UNL     1       0.340  -0.057   4.961  0.00  0.00    +0.050 A 
ATOM      2  C   UNL     1      -0.848   0.641   5.108  0.00  0.00    +0.048 A 
ATOM      3  C   UNL     1      -1.301   0.980   6.375  0.00  0.00    +0.038 A 
ATOM      4  C   UNL     1      -0.564   0.619   7.496  0.00  0.00    -0.024 A 
ATOM      5  C   UNL     1       0.621  -0.076   7.353  0.00  0.00    +0.030 A 
ATOM      6  C   UNL     1       1.075  -0.422   6.089  0.00  0.00    +0.046 A 
ATOM      7  C   UNL     1      -1.061   0.989   8.870  0.00  0.00    +0.046 C 
ATOM      8  C   UNL     1      -1.782   2.336   8.808  0.00  0.00    +0.101 C 
ATOM      9  C   UNL     1      -2.770   2.336   7.673  0.00  0.00    +0.218 C 
ATOM     10  O   UNL     1      -3.821   2.931   7.793  0.00  0.00    -0.275 OA
ATOM     11  N   UNL     1      -2.502   1.685   6.526  0.00  0.00    -0.285 N 
ATOM     12  H   UNL     1      -3.144   1.704   5.800  0.00  0.00    +0.155 HD
ENDROOT
BRANCH   6  13
ATOM     13  N   UNL     1       2.275  -1.133   5.945  0.00  0.00    -0.357 N 
ATOM     14  H   UNL     1       2.594  -1.372   5.061  0.00  0.00    +0.142 HD
ATOM     15  H   UNL     1       2.786  -1.387   6.730  0.00  0.00    +0.142 HD
ENDBRANCH   6  13
BRANCH   1  16
ATOM     16  N   UNL     1       0.799  -0.401   3.684  0.00  0.00    -0.342 N 
ATOM     17  H   UNL     1       1.629  -0.893   3.583  0.00  0.00    +0.146 HD
BRANCH  16  18
ATOM     18  C   UNL     1       0.026  -0.018   2.500  0.00  0.00    +0.105 C 
BRANCH  18  25
ATOM     19  C   UNL     1      -0.019   1.526   0.010  0.00  0.00    +0.008 C 
ATOM     20  C   UNL     1       0.002  -0.004   0.002  0.00  0.00    -0.010 C 
ATOM     21  C   UNL     1       0.718  -0.497  -1.257  0.00  0.00    +0.003 C 
ATOM     22  C   UNL     1       0.739  -2.027  -1.265  0.00  0.00    +0.000 C 
ATOM     23  C   UNL     1       1.479  -2.534  -0.026  0.00  0.00    +0.000 C 
ATOM     24  C   UNL     1       0.763  -2.041   1.233  0.00  0.00    +0.005 C 
ATOM     25  C   UNL     1       0.742  -0.511   1.242  0.00  0.00    +0.009 C 
ENDBRANCH  18  25
ENDBRANCH  16  18
ENDBRANCH   1  16
TORSDOF 4
