REMARK  Name = ZINC61640116
REMARK  4 active torsions:
REMARK  status: ('A' for Active; 'I' for Inactive)
REMARK    1  A    between atoms: C_10  and  O_11
REMARK    2  A    between atoms: O_11  and  C_12
REMARK    3  A    between atoms: C_12  and  C_13
REMARK    4  A    between atoms: C_17  and  N_19
REMARK                            x       y       z     vdW  Elec       q    Type
REMARK                         _______ _______ _______ _____ _____    ______ ____
ROOT
ATOM      1  O   UNL     1       4.837   0.080  -0.043  0.00  0.00    -0.485 OA
ENDROOT
BRANCH   1  11
ATOM      2  C   UNL     1      -0.016   1.357   0.009  0.00  0.00    +0.001 A 
ATOM      3  C   UNL     1       1.169   2.090   0.002  0.00  0.00    +0.001 A 
ATOM      4  C   UNL     1       2.379   1.467  -0.013  0.00  0.00    +0.012 A 
ATOM      5  C   UNL     1       2.437   0.064  -0.021  0.00  0.00    +0.024 A 
ATOM      6  C   UNL     1       1.233  -0.683  -0.013  0.00  0.00    -0.014 A 
ATOM      7  C   UNL     1       0.002  -0.004   0.002  0.00  0.00    +0.008 A 
ATOM      8  C   UNL     1       1.292  -2.087  -0.021  0.00  0.00    +0.009 A 
ATOM      9  C   UNL     1       2.501  -2.713  -0.035  0.00  0.00    +0.004 A 
ATOM     10  C   UNL     1       3.687  -1.984  -0.043  0.00  0.00    +0.046 A 
ATOM     11  C   UNL     1       3.671  -0.617  -0.036  0.00  0.00    +0.129 A 
ENDBRANCH   1  11
BRANCH   1  12
ATOM     12  C   UNL     1       6.047  -0.680  -0.059  0.00  0.00    +0.286 C 
BRANCH  12  13
ATOM     13  C   UNL     1       7.228   0.256  -0.065  0.00  0.00    +0.099 A 
ATOM     14  C   UNL     1       7.747   0.690  -1.270  0.00  0.00    +0.066 A 
ATOM     15  C   UNL     1       8.836   1.553  -1.270  0.00  0.00    +0.025 A 
ATOM     16  C   UNL     1       9.364   1.949  -0.053  0.00  0.00    +0.045 A 
ATOM     17  C   UNL     1       8.790   1.473   1.121  0.00  0.00    +0.117 A 
ATOM     18  N   UNL     1       7.749   0.655   1.079  0.00  0.00    -0.232 NA
ATOM     19 CL   UNL     1       7.048   0.162  -2.768  0.00  0.00    -0.082 Cl
BRANCH  17  20
ATOM     20  N   UNL     1       9.311   1.863   2.349  0.00  0.00    -0.343 N 
ATOM     21  H   UNL     1      10.071   2.465   2.385  0.00  0.00    +0.144 HD
ATOM     22  H   UNL     1       8.915   1.534   3.171  0.00  0.00    +0.144 HD
ENDBRANCH  17  20
ENDBRANCH  12  13
ENDBRANCH   1  12
TORSDOF 4
