REMARK  Name = ZINC15761724
REMARK  12 active torsions:
REMARK  status: ('A' for Active; 'I' for Inactive)
REMARK    1  A    between atoms: C_1  and  C_2
REMARK    2  A    between atoms: C_2  and  C_3
REMARK    3  A    between atoms: C_2  and  C_4
REMARK    4  A    between atoms: C_4  and  C_5
REMARK    5  A    between atoms: C_5  and  N_6
REMARK    6  A    between atoms: N_6  and  C_7
REMARK    7  A    between atoms: C_7  and  N_9
REMARK    8  A    between atoms: N_9  and  N_10
REMARK    9  A    between atoms: C_11  and  C_13
REMARK   10  A    between atoms: C_14  and  O_24
REMARK   11  A    between atoms: N_16  and  C_18
REMARK   12  A    between atoms: O_24  and  C_25
REMARK                            x       y       z     vdW  Elec       q    Type
REMARK                         _______ _______ _______ _____ _____    ______ ____
ROOT
ATOM      1  N   UNL     1       0.682   5.656   0.026  0.00  0.00    -0.230 N 
ATOM      2  C   UNL     1       1.319   4.468   0.013  0.00  0.00    +0.284 C 
ATOM      3  O   UNL     1       2.534   4.430   0.002  0.00  0.00    -0.267 OA
ATOM      4  H   UNL     1      -0.288   5.686   0.035  0.00  0.00    +0.173 HD
ENDROOT
BRANCH   2   5
ATOM      5  C   UNL     1       0.542   3.215   0.014  0.00  0.00    +0.190 A 
ATOM      6  C   UNL     1       1.068   1.898   0.002  0.00  0.00    +0.170 A 
ATOM      7  C   UNL     1      -0.013   1.076   0.008  0.00  0.00    +0.161 A 
ATOM      8  N   UNL     1      -1.118   1.870   0.017  0.00  0.00    -0.236 N 
ATOM      9  N   UNL     1      -0.773   3.107   0.026  0.00  0.00    -0.158 NA
BRANCH   8  10
ATOM     10  C   UNL     1      -2.440   1.405   0.020  0.00  0.00    +0.065 A 
ATOM     11  C   UNL     1      -2.697   0.041   0.008  0.00  0.00    +0.028 A 
ATOM     12  C   UNL     1      -4.001  -0.414   0.016  0.00  0.00    +0.002 A 
ATOM     13  C   UNL     1      -5.050   0.487   0.025  0.00  0.00    +0.000 A 
ATOM     14  C   UNL     1      -4.796   1.847   0.031  0.00  0.00    +0.002 A 
ATOM     15  C   UNL     1      -3.495   2.308   0.029  0.00  0.00    +0.028 A 
ENDBRANCH   8  10
BRANCH   6  16
ATOM     16  O   UNL     1       2.379   1.534  -0.012  0.00  0.00    -0.491 OA
ATOM     17  C   UNL     1       2.664   0.134  -0.022  0.00  0.00    +0.277 C 
ENDBRANCH   6  16
ENDBRANCH   2   5
BRANCH   1  18
ATOM     18  N   UNL     1       1.420   6.847   0.025  0.00  0.00    -0.246 N 
ATOM     19  H   UNL     1       2.389   6.816   0.016  0.00  0.00    +0.172 HD
BRANCH  18  20
ATOM     20  C   UNL     1       0.783   8.034   0.038  0.00  0.00    +0.147 C 
ATOM     21  S   UNL     1       1.685   9.489   0.037  0.00  0.00    -0.017 S 
BRANCH  20  22
ATOM     22  N   UNL     1      -0.564   8.076   0.051  0.00  0.00    -0.325 N 
ATOM     23  H   UNL     1      -1.075   7.252   0.051  0.00  0.00    +0.148 HD
BRANCH  22  24
ATOM     24  C   UNL     1      -1.257   9.367   0.064  0.00  0.00    +0.103 C 
BRANCH  24  25
ATOM     25  C   UNL     1      -2.769   9.135   0.078  0.00  0.00    +0.021 C 
BRANCH  25  27
ATOM     26  C   UNL     1      -3.209  11.227  -1.214  0.00  0.00    +0.007 C 
ATOM     27  C   UNL     1      -3.492  10.483   0.092  0.00  0.00    -0.016 C 
ATOM     28  C   UNL     1      -4.998  10.252   0.231  0.00  0.00    +0.007 C 
ENDBRANCH  25  27
ENDBRANCH  24  25
ENDBRANCH  22  24
ENDBRANCH  20  22
ENDBRANCH  18  20
ENDBRANCH   1  18
TORSDOF 9
