REMARK  Name = ZINC35263576
REMARK  6 active torsions:
REMARK  status: ('A' for Active; 'I' for Inactive)
REMARK    1  A    between atoms: C_2  and  C_3
REMARK    2  A    between atoms: C_3  and  O_4
REMARK    3  A    between atoms: O_4  and  C_5
REMARK    4  A    between atoms: C_9  and  C_11
REMARK    5  A    between atoms: C_13  and  C_14
REMARK    6  A    between atoms: C_14  and  C_15
REMARK                            x       y       z     vdW  Elec       q    Type
REMARK                         _______ _______ _______ _____ _____    ______ ____
ROOT
ATOM      1  C   UNL     1       3.522  -5.190   2.535  0.00  0.00    +0.152 C 
ATOM      2  C   UNL     1       3.227  -6.639   2.226  0.00  0.00    +0.077 C 
ATOM      3  C   UNL     1       4.308  -7.351   2.626  0.00  0.00    +0.250 C 
ATOM      4  O   UNL     1       4.444  -8.693   2.524  0.00  0.00    -0.282 OA
ATOM      5  C   UNL     1       5.314  -6.429   3.191  0.00  0.00    +0.293 C 
ATOM      6  O   UNL     1       6.394  -6.763   3.636  0.00  0.00    -0.266 OA
ATOM      7  N   UNL     1       4.859  -5.164   3.139  0.00  0.00    -0.232 N 
ATOM      8  C   UNL     1       5.532  -4.038   3.579  0.00  0.00    +0.169 A 
ATOM      9  N   UNL     1       5.140  -2.785   3.562  0.00  0.00    -0.224 NA
ATOM     10  C   UNL     1       5.908  -1.777   4.030  0.00  0.00    +0.080 A 
ATOM     11  C   UNL     1       5.607  -0.396   4.069  0.00  0.00    +0.032 A 
ATOM     12  C   UNL     1       6.506   0.503   4.581  0.00  0.00    +0.040 A 
ATOM     13  C   UNL     1       7.738   0.095   5.077  0.00  0.00    +0.125 A 
ATOM     14  C   UNL     1       8.065  -1.250   5.055  0.00  0.00    +0.055 A 
ATOM     15  C   UNL     1       7.169  -2.157   4.543  0.00  0.00    +0.043 A 
ATOM     16  S   UNL     1       7.153  -3.920   4.323  0.00  0.00    -0.052 S 
ATOM     17  F   UNL     1       8.607   1.001   5.576  0.00  0.00    -0.205 F 
ENDROOT
BRANCH   1  22
ATOM     18  C   UNL     1       2.417  -2.828  -0.200  0.00  0.00    +0.121 A 
ATOM     19  C   UNL     1       3.498  -2.888  -1.068  0.00  0.00    +0.045 A 
ATOM     20  C   UNL     1       4.581  -3.691  -0.766  0.00  0.00    +0.004 A 
ATOM     21  C   UNL     1       4.588  -4.435   0.400  0.00  0.00    +0.006 A 
ATOM     22  C   UNL     1       3.511  -4.377   1.265  0.00  0.00    -0.019 A 
ATOM     23  C   UNL     1       2.429  -3.571   0.971  0.00  0.00    +0.051 A 
BRANCH  18  24
ATOM     24  O   UNL     1       1.351  -2.038  -0.495  0.00  0.00    -0.488 OA
BRANCH  24  25
ATOM     25  C   UNL     1       1.408  -1.301  -1.718  0.00  0.00    +0.256 C 
BRANCH  25  27
ATOM     26  C   UNL     1       0.219   0.763  -2.255  0.00  0.00    +0.007 C 
ATOM     27  C   UNL     1       0.149  -0.488  -1.874  0.00  0.00    +0.006 C 
ENDBRANCH  25  27
ENDBRANCH  24  25
ENDBRANCH  18  24
ENDBRANCH   1  22
BRANCH   2  28
ATOM     28  C   UNL     1       2.008  -7.172   1.612  0.00  0.00    +0.195 C 
ATOM     29  O   UNL     1       2.061  -7.712   0.523  0.00  0.00    -0.287 OA
BRANCH  28  30
ATOM     30  C   UNL     1       0.713  -7.053   2.316  0.00  0.00    +0.022 A 
ATOM     31  C   UNL     1       0.664  -6.536   3.612  0.00  0.00    +0.012 A 
ATOM     32  C   UNL     1      -0.548  -6.427   4.262  0.00  0.00    +0.001 A 
ATOM     33  C   UNL     1      -1.713  -6.829   3.633  0.00  0.00    +0.000 A 
ATOM     34  C   UNL     1      -1.672  -7.342   2.349  0.00  0.00    +0.001 A 
ATOM     35  C   UNL     1      -0.468  -7.451   1.685  0.00  0.00    +0.012 A 
ENDBRANCH  28  30
ENDBRANCH   2  28
TORSDOF 6
