REMARK  Name = ZINC40734413
REMARK  6 active torsions:
REMARK  status: ('A' for Active; 'I' for Inactive)
REMARK    1  A    between atoms: C_1  and  C_2
REMARK    2  A    between atoms: C_13  and  N_27
REMARK    3  A    between atoms: C_14  and  N_18
REMARK    4  A    between atoms: N_21  and  C_24
REMARK    5  A    between atoms: C_24  and  C_25
REMARK    6  A    between atoms: C_25  and  O_26
REMARK                            x       y       z     vdW  Elec       q    Type
REMARK                         _______ _______ _______ _____ _____    ______ ____
ROOT
ATOM      1  C   UNL     1      -0.312   1.523   0.034  0.00  0.00    +0.046 C 
ATOM      2  C   UNL     1      -0.247   0.017   0.018  0.00  0.00    -0.024 A 
ATOM      3  C   UNL     1      -0.255  -0.649  -1.180  0.00  0.00    +0.005 A 
ATOM      4  C   UNL     1      -0.197  -2.034  -1.239  0.00  0.00    +0.001 A 
ATOM      5  C   UNL     1      -0.130  -2.760  -0.064  0.00  0.00    +0.017 A 
ATOM      6  C   UNL     1      -0.121  -2.101   1.140  0.00  0.00    +0.041 A 
ATOM      7  C   UNL     1      -0.174  -0.692   1.239  0.00  0.00    +0.083 A 
ATOM      8  N   UNL     1      -0.152  -0.192   2.494  0.00  0.00    -0.224 NA
ATOM      9  C   UNL     1      -0.082  -0.960   3.557  0.00  0.00    +0.165 A 
ATOM     10  S   UNL     1      -0.049  -2.598   2.844  0.00  0.00    -0.052 S 
ATOM     11  N   UNL     1      -0.051  -0.594   4.889  0.00  0.00    -0.277 N 
ATOM     12  C   UNL     1       0.025  -1.570   5.878  0.00  0.00    +0.150 A 
ATOM     13  C   UNL     1       0.051  -1.213   7.227  0.00  0.00    +0.106 A 
ATOM     14  C   UNL     1       0.129  -2.232   8.178  0.00  0.00    +0.147 A 
ATOM     15  N   UNL     1       0.175  -3.497   7.765  0.00  0.00    -0.219 NA
ATOM     16  C   UNL     1       0.148  -3.791   6.480  0.00  0.00    +0.225 A 
ATOM     17  N   UNL     1       0.070  -2.860   5.552  0.00  0.00    -0.219 NA
ATOM     18  H   UNL     1      -0.084   0.344   5.136  0.00  0.00    +0.156 HD
ENDROOT
BRANCH  14  19
ATOM     19  N   UNL     1       0.158  -1.932   9.534  0.00  0.00    -0.311 N 
ATOM     20  C   UNL     1      -1.080  -1.910  10.329  0.00  0.00    +0.122 C 
ATOM     21  C   UNL     1      -0.873  -2.780  11.574  0.00  0.00    +0.103 C 
ATOM     22  N   UNL     1       0.331  -2.331  12.287  0.00  0.00    -0.297 NA
ATOM     23  C   UNL     1       1.534  -2.507  11.462  0.00  0.00    +0.103 C 
ATOM     24  C   UNL     1       1.427  -1.633  10.214  0.00  0.00    +0.122 C 
BRANCH  22  25
ATOM     25  C   UNL     1       0.469  -3.024  13.575  0.00  0.00    +0.112 C 
BRANCH  25  26
ATOM     26  C   UNL     1       1.580  -2.362  14.393  0.00  0.00    +0.171 C 
BRANCH  26  27
ATOM     27  O   UNL     1       1.197  -1.025  14.722  0.00  0.00    -0.394 OA
ATOM     28  H   UNL     1       1.855  -0.544  15.241  0.00  0.00    +0.209 HD
ENDBRANCH  26  27
ENDBRANCH  25  26
ENDBRANCH  22  25
ENDBRANCH  14  19
BRANCH  13  29
ATOM     29  N   UNL     1       0.001   0.135   7.617  0.00  0.00    -0.353 N 
ATOM     30  H   UNL     1       0.038   0.835   6.947  0.00  0.00    +0.143 HD
ATOM     31  H   UNL     1      -0.071   0.365   8.556  0.00  0.00    +0.143 HD
ENDBRANCH  13  29
TORSDOF 5
