REMARK  Name = ZINC44254466
REMARK  6 active torsions:
REMARK  status: ('A' for Active; 'I' for Inactive)
REMARK    1  A    between atoms: C_7  and  C_23
REMARK    2  A    between atoms: C_14  and  S_15
REMARK    3  A    between atoms: S_15  and  C_16
REMARK    4  A    between atoms: C_23  and  C_25
REMARK    5  A    between atoms: C_23  and  N_29
REMARK    6  A    between atoms: C_25  and  C_26
REMARK                            x       y       z     vdW  Elec       q    Type
REMARK                         _______ _______ _______ _____ _____    ______ ____
ROOT
ATOM      1  C   UNL     1       0.329   1.227   0.971  0.00  0.00    +0.001 A 
ATOM      2  C   UNL     1       1.537   1.918   0.884  0.00  0.00    +0.001 A 
ATOM      3  C   UNL     1       2.681   1.307   0.477  0.00  0.00    +0.009 A 
ATOM      4  C   UNL     1       2.656  -0.058   0.133  0.00  0.00    -0.003 A 
ATOM      5  C   UNL     1       1.387  -0.786   0.224  0.00  0.00    -0.015 A 
ATOM      6  C   UNL     1       0.237  -0.091   0.654  0.00  0.00    +0.009 A 
ATOM      7  C   UNL     1       1.328  -2.139  -0.109  0.00  0.00    -0.046 A 
ATOM      8  C   UNL     1       2.481  -2.800  -0.531  0.00  0.00    -0.015 A 
ATOM      9  C   UNL     1       2.450  -4.169  -0.876  0.00  0.00    +0.009 A 
ATOM     10  C   UNL     1       3.591  -4.782  -1.284  0.00  0.00    +0.001 A 
ATOM     11  C   UNL     1       4.801  -4.096  -1.372  0.00  0.00    +0.001 A 
ATOM     12  C   UNL     1       4.898  -2.778  -1.055  0.00  0.00    +0.009 A 
ATOM     13  C   UNL     1       3.753  -2.079  -0.625  0.00  0.00    -0.003 A 
ATOM     14  C   UNL     1       3.818  -0.719  -0.291  0.00  0.00    +0.028 A 
ENDROOT
BRANCH  14  15
ATOM     15  S   UNL     1       5.346   0.152  -0.402  0.00  0.00    -0.088 S 
BRANCH  15  16
ATOM     16  C   UNL     1       6.070  -0.052   1.191  0.00  0.00    +0.013 A 
ATOM     17  C   UNL     1       5.408  -0.786   2.168  0.00  0.00    +0.016 A 
ATOM     18  C   UNL     1       5.978  -0.944   3.416  0.00  0.00    +0.021 A 
ATOM     19  C   UNL     1       7.208  -0.374   3.693  0.00  0.00    +0.041 A 
ATOM     20  C   UNL     1       7.870   0.358   2.723  0.00  0.00    +0.021 A 
ATOM     21  C   UNL     1       7.308   0.514   1.471  0.00  0.00    +0.016 A 
ATOM     22 CL   UNL     1       7.921  -0.575   5.263  0.00  0.00    -0.084 Cl
ENDBRANCH  15  16
ENDBRANCH  14  15
BRANCH   7  23
ATOM     23  C   UNL     1       0.021  -2.884  -0.013  0.00  0.00    -0.034 C 
BRANCH  23  24
ATOM     24  N   UNL     1       0.184  -4.047   0.869  0.00  0.00    +0.383 N 
ATOM     25  H   UNL     1       0.994  -4.576   0.581  0.00  0.00    -0.089 HD
ATOM     26  H   UNL     1       0.308  -3.733   1.820  0.00  0.00    -0.089 HD
ATOM     27  H   UNL     1      -0.636  -4.631   0.811  0.00  0.00    -0.089 HD
ENDBRANCH  23  24
BRANCH  23  28
ATOM     28  C   UNL     1      -0.400  -3.355  -1.407  0.00  0.00    +0.084 C 
BRANCH  28  29
ATOM     29  C   UNL     1      -1.764  -3.992  -1.330  0.00  0.00    +0.209 C 
ATOM     30  O   UNL     1      -2.342  -4.062  -0.266  0.00  0.00    -0.276 OA
ATOM     31  N   UNL     1      -2.342  -4.484  -2.444  0.00  0.00    -0.329 N 
ATOM     32  H   UNL     1      -1.879  -4.428  -3.295  0.00  0.00    +0.145 HD
ATOM     33  H   UNL     1      -3.219  -4.894  -2.395  0.00  0.00    +0.145 HD
ENDBRANCH  28  29
ENDBRANCH  23  28
ENDBRANCH   7  23
TORSDOF 6
