REMARK  Name = ZINC64926456
REMARK  7 active torsions:
REMARK  status: ('A' for Active; 'I' for Inactive)
REMARK    1  A    between atoms: C_1  and  C_2
REMARK    2  A    between atoms: C_2  and  C_3
REMARK    3  A    between atoms: C_9  and  C_11
REMARK    4  A    between atoms: C_11  and  S_12
REMARK    5  A    between atoms: S_12  and  C_13
REMARK    6  A    between atoms: C_16  and  C_19
REMARK    7  A    between atoms: N_17  and  N_18
REMARK                            x       y       z     vdW  Elec       q    Type
REMARK                         _______ _______ _______ _____ _____    ______ ____
ROOT
ATOM      1  C   UNL     1       4.928  -5.392   5.158  0.00  0.00    +0.209 A 
ATOM      2  N   UNL     1       4.377  -5.008   6.287  0.00  0.00    -0.121 NA
ATOM      3  N   UNL     1       4.996  -5.533   7.283  0.00  0.00    -0.126 NA
ATOM      4  C   UNL     1       5.984  -6.286   6.851  0.00  0.00    +0.188 A 
ATOM      5  N   UNL     1       5.966  -6.223   5.475  0.00  0.00    -0.223 N 
ENDROOT
BRANCH   4   6
ATOM      6  C   UNL     1       6.926  -7.055   7.680  0.00  0.00    +0.058 A 
ATOM      7  C   UNL     1       6.832  -7.394   9.007  0.00  0.00    +0.019 A 
ATOM      8  C   UNL     1       7.849  -8.128   9.574  0.00  0.00    +0.008 A 
ATOM      9  C   UNL     1       8.910  -8.494   8.807  0.00  0.00    +0.046 A 
ATOM     10  S   UNL     1       8.483  -7.796   7.220  0.00  0.00    -0.093 S 
ENDBRANCH   4   6
BRANCH   5  11
ATOM     11  N   UNL     1       6.811  -6.857   4.609  0.00  0.00    -0.295 N 
ATOM     12  H   UNL     1       7.618  -6.285   4.408  0.00  0.00    +0.163 HD
ATOM     13  H   UNL     1       7.087  -7.758   4.967  0.00  0.00    +0.163 HD
ENDBRANCH   5  11
BRANCH   1  14
ATOM     14  S   UNL     1       4.418  -4.928   3.536  0.00  0.00    -0.075 S 
BRANCH  14  15
ATOM     15  C   UNL     1       3.006  -3.825   3.818  0.00  0.00    +0.173 C 
BRANCH  15  22
ATOM     16  C   UNL     1       0.742  -0.511   1.242  0.00  0.00    +0.135 C 
ATOM     17  C   UNL     1       0.867  -2.037   1.175  0.00  0.00    +0.139 C 
ATOM     18  N   UNL     1       1.410  -2.515   2.456  0.00  0.00    -0.296 N 
ATOM     19  C   UNL     1       0.765  -2.054   3.696  0.00  0.00    +0.136 C 
ATOM     20  C   UNL     1       0.645  -0.527   3.640  0.00  0.00    +0.179 C 
ATOM     21  O   UNL     1       0.011  -0.149   2.416  0.00  0.00    -0.373 OA
ATOM     22  C   UNL     1       2.468  -3.350   2.493  0.00  0.00    +0.226 C 
ATOM     23  O   UNL     1       2.986  -3.719   1.461  0.00  0.00    -0.275 OA
BRANCH  16  25
ATOM     24  C   UNL     1      -0.019   1.526   0.010  0.00  0.00    +0.006 C 
ATOM     25  C   UNL     1       0.002  -0.004   0.002  0.00  0.00    +0.030 C 
ENDBRANCH  16  25
ENDBRANCH  15  22
ENDBRANCH  14  15
ENDBRANCH   1  14
TORSDOF 6
