REMARK  Name = ZINC36742822
REMARK  6 active torsions:
REMARK  status: ('A' for Active; 'I' for Inactive)
REMARK    1  A    between atoms: C_3  and  S_6
REMARK    2  A    between atoms: S_6  and  N_9
REMARK    3  A    between atoms: N_9  and  C_10
REMARK    4  A    between atoms: C_10  and  C_11
REMARK    5  A    between atoms: C_13  and  N_18
REMARK    6  A    between atoms: C_16  and  O_17
REMARK                            x       y       z     vdW  Elec       q    Type
REMARK                         _______ _______ _______ _____ _____    ______ ____
ROOT
ATOM      1  C   UNL     1       4.596   0.903   2.403  0.00  0.00    +0.144 C 
ENDROOT
BRANCH   1   2
ATOM      2  C   UNL     1       5.379   1.250   3.643  0.00  0.00    +0.011 A 
ATOM      3  C   UNL     1       4.728   1.401   4.851  0.00  0.00    +0.031 A 
ATOM      4  C   UNL     1       5.450   1.721   5.994  0.00  0.00    +0.025 A 
ATOM      5  C   UNL     1       6.826   1.889   5.919  0.00  0.00    +0.026 A 
ATOM      6  C   UNL     1       7.476   1.738   4.710  0.00  0.00    +0.047 A 
ATOM      7  C   UNL     1       6.755   1.413   3.571  0.00  0.00    +0.121 A 
BRANCH   4   8
ATOM      8  N   UNL     1       4.791   1.874   7.218  0.00  0.00    -0.358 N 
ATOM      9  H   UNL     1       3.829   1.757   7.270  0.00  0.00    +0.142 HD
ATOM     10  H   UNL     1       5.295   2.098   8.016  0.00  0.00    +0.142 HD
ENDBRANCH   4   8
BRANCH   7  11
ATOM     11  O   UNL     1       7.396   1.260   2.381  0.00  0.00    -0.506 OA
ATOM     12  H   UNL     1       7.470   2.075   1.867  0.00  0.00    +0.292 HD
ENDBRANCH   7  11
ENDBRANCH   1   2
BRANCH   1  13
ATOM     13  N   UNL     1       4.477   2.089   1.552  0.00  0.00    -0.185 NA
ATOM     14  H   UNL     1       4.677   2.967   1.913  0.00  0.00    +0.148 HD
BRANCH  13  15
ATOM     15  S   UNL     1       4.001   1.932  -0.026  0.00  0.00    +0.065 S 
ATOM     16  O   UNL     1       4.799   0.900  -0.590  0.00  0.00    -0.153 OA
ATOM     17  O   UNL     1       3.957   3.244  -0.570  0.00  0.00    -0.153 OA
BRANCH  15  20
ATOM     18  C   UNL     1      -0.016   1.351   0.009  0.00  0.00    +0.010 A 
ATOM     19  C   UNL     1       1.183   2.038   0.002  0.00  0.00    +0.036 A 
ATOM     20  C   UNL     1       2.343   1.336  -0.013  0.00  0.00    +0.142 A 
ATOM     21  S   UNL     1       1.754  -0.349  -0.017  0.00  0.00    -0.077 S 
ATOM     22  C   UNL     1       0.002  -0.004   0.002  0.00  0.00    +0.047 A 
ENDBRANCH  15  20
ENDBRANCH  13  15
ENDBRANCH   1  13
TORSDOF 6
