REMARK  Name = ZINC44199389
REMARK  4 active torsions:
REMARK  status: ('A' for Active; 'I' for Inactive)
REMARK    1  A    between atoms: C_4  and  C_7
REMARK    2  A    between atoms: C_9  and  S_13
REMARK    3  A    between atoms: S_13  and  C_14
REMARK    4  A    between atoms: C_15  and  C_25
REMARK                            x       y       z     vdW  Elec       q    Type
REMARK                         _______ _______ _______ _____ _____    ______ ____
ROOT
ATOM      1  C   UNL     1       3.812  -4.266   2.070  0.00  0.00    +0.125 A 
ATOM      2  C   UNL     1       3.232  -5.279   2.872  0.00  0.00    +0.160 A 
ATOM      3  C   UNL     1       4.037  -6.378   3.251  0.00  0.00    +0.274 A 
ATOM      4  O   UNL     1       3.579  -7.272   3.941  0.00  0.00    -0.266 OA
ATOM      5  N   UNL     1       5.322  -6.420   2.837  0.00  0.00    -0.267 N 
ATOM      6  C   UNL     1       6.105  -7.475   3.199  0.00  0.00    +0.096 A 
ATOM      7  C   UNL     1       7.395  -7.549   2.802  0.00  0.00    +0.018 A 
ATOM      8  C   UNL     1       7.945  -6.533   2.008  0.00  0.00    +0.005 A 
ATOM      9  C   UNL     1       7.170  -5.473   1.641  0.00  0.00    +0.047 A 
ATOM     10  C   UNL     1       5.830  -5.414   2.064  0.00  0.00    +0.141 A 
ATOM     11  N   UNL     1       5.079  -4.375   1.696  0.00  0.00    -0.222 NA
ENDROOT
BRANCH   2  12
ATOM     12  C   UNL     1       1.881  -5.193   3.283  0.00  0.00    +0.394 C 
ATOM     13  O   UNL     1       1.198  -4.234   2.945  0.00  0.00    -0.240 OA
ATOM     14  O   UNL     1       1.395  -6.078   3.977  0.00  0.00    -0.240 OA
ENDBRANCH   2  12
BRANCH   1  15
ATOM     15  S   UNL     1       2.855  -2.874   1.567  0.00  0.00    -0.045 S 
BRANCH  15  18
ATOM     16  C   UNL     1       3.699  -0.689  -0.037  0.00  0.00    +0.126 A 
ATOM     17  H   UNL     1       6.633  -1.100  -0.809  0.00  0.00    +0.213 HD
ATOM     18  C   UNL     1       3.974  -1.914   0.602  0.00  0.00    +0.152 A 
ATOM     19  N   UNL     1       5.233  -2.199   0.337  0.00  0.00    -0.147 NA
ATOM     20  N   UNL     1       5.730  -1.160  -0.460  0.00  0.00    -0.195 N 
ATOM     21  N   UNL     1       4.794  -0.300  -0.658  0.00  0.00    -0.154 NA
BRANCH  16  25
ATOM     22  C   UNL     1      -0.017   1.379   0.010  0.00  0.00    +0.000 A 
ATOM     23  C   UNL     1       1.169   2.092   0.002  0.00  0.00    +0.001 A 
ATOM     24  C   UNL     1       2.377   1.426  -0.013  0.00  0.00    +0.010 A 
ATOM     25  C   UNL     1       2.402   0.033  -0.021  0.00  0.00    +0.005 A 
ATOM     26  C   UNL     1       1.205  -0.680  -0.013  0.00  0.00    +0.010 A 
ATOM     27  C   UNL     1       0.002  -0.004   0.002  0.00  0.00    +0.001 A 
ENDBRANCH  16  25
ENDBRANCH  15  18
ENDBRANCH   1  15
TORSDOF 4
