REMARK  Name = ZINC12676686
REMARK  3 active torsions:
REMARK  status: ('A' for Active; 'I' for Inactive)
REMARK    1  A    between atoms: C_6  and  N_10
REMARK    2  A    between atoms: N_13  and  C_16
REMARK    3  A    between atoms: C_16  and  C_17
REMARK                            x       y       z     vdW  Elec       q    Type
REMARK                         _______ _______ _______ _____ _____    ______ ____
ROOT
ATOM      1  N   UNL     1      -2.386  -0.477   0.022  0.00  0.00    -0.318 N 
ATOM      2  C   UNL     1      -2.690   0.958   0.138  0.00  0.00    +0.088 C 
ATOM      3  C   UNL     1      -3.716   1.148   1.260  0.00  0.00    -0.059 C 
ATOM      4  N   UNL     1      -4.886   0.300   1.001  0.00  0.00    +0.385 N 
ATOM      5  C   UNL     1      -4.499  -1.115   1.055  0.00  0.00    -0.059 C 
ATOM      6  C   UNL     1      -3.512  -1.418  -0.083  0.00  0.00    +0.088 C 
ATOM      7  H   UNL     1      -5.257   0.511   0.087  0.00  0.00    -0.081 HD
ENDROOT
BRANCH   1  13
ATOM      8  C   UNL     1      -0.817  -0.780  -2.578  0.00  0.00    +0.021 A 
ATOM      9  C   UNL     1       0.032  -0.980  -3.597  0.00  0.00    +0.048 A 
ATOM     10  S   UNL     1       1.513  -1.566  -2.796  0.00  0.00    -0.077 S 
ATOM     11  C   UNL     1       0.952  -1.527  -1.115  0.00  0.00    +0.113 A 
ATOM     12  C   UNL     1      -0.376  -1.058  -1.223  0.00  0.00    +0.048 A 
ATOM     13  C   UNL     1      -1.078  -0.928   0.007  0.00  0.00    +0.133 A 
ATOM     14  N   UNL     1      -0.466  -1.245   1.136  0.00  0.00    -0.220 NA
ATOM     15  C   UNL     1       0.782  -1.679   1.162  0.00  0.00    +0.224 A 
ATOM     16  N   UNL     1       1.485  -1.819   0.055  0.00  0.00    -0.228 NA
ENDBRANCH   1  13
BRANCH   4  17
ATOM     17  C   UNL     1      -5.914   0.565   2.016  0.00  0.00    -0.024 C 
BRANCH  17  18
ATOM     18  C   UNL     1      -7.161  -0.213   1.682  0.00  0.00    +0.007 A 
ATOM     19  C   UNL     1      -7.609  -1.213   2.519  0.00  0.00    +0.090 A 
ATOM     20  C   UNL     1      -8.766  -1.922   2.194  0.00  0.00    +0.259 A 
ATOM     21  O   UNL     1      -9.167  -2.808   2.931  0.00  0.00    -0.267 OA
ATOM     22  N   UNL     1      -9.449  -1.623   1.049  0.00  0.00    -0.264 N 
ATOM     23  C   UNL     1     -10.597  -2.227   0.595  0.00  0.00    +0.104 A 
ATOM     24  C   UNL     1     -11.173  -1.843  -0.544  0.00  0.00    +0.067 A 
ATOM     25  S   UNL     1     -10.081  -0.536  -1.083  0.00  0.00    -0.059 S 
ATOM     26  C   UNL     1      -8.935  -0.616   0.276  0.00  0.00    +0.158 A 
ATOM     27  N   UNL     1      -7.852   0.057   0.578  0.00  0.00    -0.341 N 
ATOM     28  H   UNL     1      -7.548   0.761  -0.015  0.00  0.00    +0.167 HD
ENDBRANCH  17  18
ENDBRANCH   4  17
TORSDOF 3
