REMARK  Name = ZINC51641549
REMARK  4 active torsions:
REMARK  status: ('A' for Active; 'I' for Inactive)
REMARK    1  A    between atoms: C_4  and  O_20
REMARK    2  A    between atoms: C_5  and  N_7
REMARK    3  A    between atoms: C_14  and  C_17
REMARK    4  A    between atoms: O_20  and  C_21
REMARK                            x       y       z     vdW  Elec       q    Type
REMARK                         _______ _______ _______ _____ _____    ______ ____
ROOT
ATOM      1  N   UNL     1       1.437  -2.117   0.009  0.00  0.00    -0.266 N 
ATOM      2  C   UNL     1       0.275  -2.795  -0.061  0.00  0.00    +0.307 C 
ATOM      3  O   UNL     1      -0.763  -2.202  -0.282  0.00  0.00    -0.252 OA
ATOM      4  N   UNL     1       0.263  -4.131   0.114  0.00  0.00    -0.280 N 
ATOM      5  C   UNL     1       1.516  -4.886   0.276  0.00  0.00    +0.137 C 
ATOM      6  C   UNL     1       1.390  -5.772   1.520  0.00  0.00    +0.180 C 
ATOM      7  O   UNL     1       0.191  -6.545   1.429  0.00  0.00    -0.364 OA
ATOM      8  C   UNL     1      -1.008  -5.765   1.401  0.00  0.00    +0.221 C 
ATOM      9  C   UNL     1      -1.005  -4.878   0.156  0.00  0.00    +0.150 C 
ATOM     10  H   UNL     1       2.273  -2.597   0.113  0.00  0.00    +0.156 HD
ENDROOT
BRANCH   1  15
ATOM     11  C   UNL     1       0.273   1.372   0.093  0.00  0.00    +0.002 A 
ATOM     12  C   UNL     1       1.438   2.049  -0.220  0.00  0.00    +0.004 A 
ATOM     13  C   UNL     1       2.605   1.348  -0.459  0.00  0.00    +0.048 A 
ATOM     14  C   UNL     1       2.611  -0.036  -0.384  0.00  0.00    +0.150 A 
ATOM     15  C   UNL     1       1.438  -0.718  -0.068  0.00  0.00    +0.077 A 
ATOM     16  C   UNL     1       0.270  -0.007   0.170  0.00  0.00    +0.027 A 
BRANCH  14  17
ATOM     17  O   UNL     1       3.758  -0.727  -0.619  0.00  0.00    -0.454 OA
BRANCH  17  18
ATOM     18  C   UNL     1       4.856  -0.026  -1.008  0.00  0.00    +0.131 A 
ATOM     19  C   UNL     1       5.592   0.688  -0.073  0.00  0.00    +0.046 A 
ATOM     20  C   UNL     1       6.707   1.399  -0.469  0.00  0.00    +0.006 A 
ATOM     21  C   UNL     1       7.092   1.401  -1.797  0.00  0.00    +0.038 A 
ATOM     22  C   UNL     1       6.361   0.690  -2.733  0.00  0.00    +0.127 A 
ATOM     23  C   UNL     1       5.246  -0.030  -2.339  0.00  0.00    +0.084 A 
ATOM     24  F   UNL     1       6.738   0.693  -4.030  0.00  0.00    -0.205 F 
ENDBRANCH  17  18
ENDBRANCH  14  17
ENDBRANCH   1  15
BRANCH   8  25
ATOM     25  C   UNL     1      -2.203  -6.682   1.367  0.00  0.00    +0.241 C 
ATOM     26  O   UNL     1      -2.046  -7.881   1.275  0.00  0.00    -0.273 OA
ATOM     27  N   UNL     1      -3.448  -6.169   1.438  0.00  0.00    -0.327 N 
ATOM     28  H   UNL     1      -3.573  -5.210   1.512  0.00  0.00    +0.145 HD
ATOM     29  H   UNL     1      -4.217  -6.759   1.417  0.00  0.00    +0.145 HD
ENDBRANCH   8  25
TORSDOF 4
