REMARK  Name = ZINC08854871
REMARK  13 active torsions:
REMARK  status: ('A' for Active; 'I' for Inactive)
REMARK    1  A    between atoms: C_1  and  O_2
REMARK    2  A    between atoms: O_2  and  C_3
REMARK    3  A    between atoms: C_5  and  C_13
REMARK    4  A    between atoms: C_7  and  O_11
REMARK    5  A    between atoms: C_8  and  O_9
REMARK    6  A    between atoms: O_9  and  C_10
REMARK    7  A    between atoms: O_11  and  C_12
REMARK    8  A    between atoms: C_20  and  N_36
REMARK    9  A    between atoms: C_21  and  C_34
REMARK   10  A    between atoms: C_22  and  C_24
REMARK   11  A    between atoms: C_26  and  O_32
REMARK   12  A    between atoms: C_27  and  O_31
REMARK   13  A    between atoms: O_32  and  C_33
REMARK                            x       y       z     vdW  Elec       q    Type
REMARK                         _______ _______ _______ _____ _____    ______ ____
ROOT
ATOM      1  C   UNL     1       0.408   0.648  -3.021  0.00  0.00    +0.101 A 
ATOM      2  C   UNL     1       1.397   0.435  -3.985  0.00  0.00    +0.054 A 
ATOM      3  C   UNL     1       1.338   1.459  -4.885  0.00  0.00    +0.223 A 
ATOM      4  N   UNL     1       0.344   2.287  -4.500  0.00  0.00    -0.246 N 
ATOM      5  H   UNL     1       0.072   3.101  -4.952  0.00  0.00    +0.192 HD
ATOM      6  N   UNL     1      -0.230   1.760  -3.333  0.00  0.00    -0.171 NA
ATOM      7  O   UNL     1       2.174   1.548  -5.950  0.00  0.00    -0.423 OA
ATOM      8  C   UNL     1       3.257   0.746  -5.962  0.00  0.00    +0.200 C 
ATOM      9  C   UNL     1       3.424  -0.306  -5.129  0.00  0.00    +0.098 C 
ATOM     10  C   UNL     1       2.393  -0.690  -4.097  0.00  0.00    +0.102 C 
ENDROOT
BRANCH  10  11
ATOM     11  C   UNL     1       1.689  -1.952  -4.524  0.00  0.00    -0.029 A 
ATOM     12  C   UNL     1       1.791  -3.094  -3.752  0.00  0.00    +0.054 A 
ATOM     13  C   UNL     1       1.145  -4.256  -4.143  0.00  0.00    +0.163 A 
ATOM     14  C   UNL     1       0.394  -4.270  -5.315  0.00  0.00    +0.177 A 
ATOM     15  C   UNL     1       0.295  -3.122  -6.085  0.00  0.00    +0.086 A 
ATOM     16  C   UNL     1       0.939  -1.964  -5.685  0.00  0.00    +0.028 A 
ATOM     17 CL   UNL     1      -0.640  -3.134  -7.548  0.00  0.00    -0.080 Cl
BRANCH  14  18
ATOM     18  O   UNL     1      -0.242  -5.408  -5.704  0.00  0.00    -0.502 OA
ATOM     19  H   UNL     1      -1.141  -5.493  -5.360  0.00  0.00    +0.292 HD
ENDBRANCH  14  18
BRANCH  13  20
ATOM     20  O   UNL     1       1.245  -5.380  -3.385  0.00  0.00    -0.491 OA
ATOM     21  C   UNL     1       1.935  -5.263  -2.139  0.00  0.00    +0.277 C 
ENDBRANCH  13  20
ENDBRANCH  10  11
BRANCH   1  24
ATOM     22  C   UNL     1       0.903  -1.576  -0.025  0.00  0.00    +0.166 A 
ATOM     23  C   UNL     1       1.171  -0.762  -1.112  0.00  0.00    +0.059 A 
ATOM     24  C   UNL     1       0.122  -0.224  -1.855  0.00  0.00    +0.010 A 
ATOM     25  C   UNL     1      -1.196  -0.506  -1.501  0.00  0.00    +0.059 A 
ATOM     26  C   UNL     1      -1.461  -1.320  -0.413  0.00  0.00    +0.166 A 
ATOM     27  C   UNL     1      -0.412  -1.861   0.323  0.00  0.00    +0.204 A 
BRANCH  22  29
ATOM     28  C   UNL     1       3.254  -1.766   0.286  0.00  0.00    +0.277 C 
ATOM     29  O   UNL     1       1.927  -2.101   0.700  0.00  0.00    -0.491 OA
ENDBRANCH  22  29
BRANCH  27  30
ATOM     30  O   UNL     1      -0.674  -2.665   1.389  0.00  0.00    -0.488 OA
ATOM     31  C   UNL     1      -0.818  -2.031   2.661  0.00  0.00    +0.277 C 
ENDBRANCH  27  30
BRANCH  26  32
ATOM     32  O   UNL     1      -2.747  -1.596  -0.068  0.00  0.00    -0.491 OA
ATOM     33  C   UNL     1      -3.771  -1.107  -0.937  0.00  0.00    +0.277 C 
ENDBRANCH  26  32
ENDBRANCH   1  24
BRANCH   8  34
ATOM     34  N   UNL     1       4.250   1.013  -6.872  0.00  0.00    -0.328 N 
ATOM     35  H   UNL     1       4.159   1.761  -7.482  0.00  0.00    +0.145 HD
ATOM     36  H   UNL     1       5.042   0.454  -6.904  0.00  0.00    +0.145 HD
ENDBRANCH   8  34
BRANCH   9  37
ATOM     37  C   UNL     1       4.621  -1.085  -5.232  0.00  0.00    +0.101 C 
ATOM     38  N   UNL     1       5.571  -1.703  -5.314  0.00  0.00    -0.191 NA
ENDBRANCH   9  37
TORSDOF 9
