REMARK  Name = ZINC44452595
REMARK  11 active torsions:
REMARK  status: ('A' for Active; 'I' for Inactive)
REMARK    1  A    between atoms: C_1  and  C_2
REMARK    2  A    between atoms: C_2  and  C_3
REMARK    3  A    between atoms: C_3  and  N_4
REMARK    4  A    between atoms: N_4  and  C_5
REMARK    5  A    between atoms: N_4  and  S_8
REMARK    6  A    between atoms: C_5  and  C_6
REMARK    7  A    between atoms: C_6  and  C_7
REMARK    8  A    between atoms: S_8  and  C_11
REMARK    9  A    between atoms: C_14  and  C_17
REMARK   10  A    between atoms: N_19  and  C_20
REMARK   11  A    between atoms: C_21  and  C_28
REMARK                            x       y       z     vdW  Elec       q    Type
REMARK                         _______ _______ _______ _____ _____    ______ ____
ROOT
ATOM      1  C   UNL     1       1.092  -3.710   5.182  0.00  0.00    +0.249 C 
ATOM      2  O   UNL     1       1.457  -2.885   5.997  0.00  0.00    -0.270 OA
ATOM      3  N   UNL     1       0.471  -4.834   5.592  0.00  0.00    -0.275 N 
ATOM      4  H   UNL     1       0.180  -5.492   4.942  0.00  0.00    +0.156 HD
ENDROOT
BRANCH   3   5
ATOM      5  C   UNL     1       0.249  -5.049   6.942  0.00  0.00    +0.085 A 
ATOM      6  C   UNL     1      -0.361  -6.137   7.541  0.00  0.00    +0.069 A 
ATOM      7  C   UNL     1      -0.473  -6.122   8.999  0.00  0.00    -0.023 A 
ATOM      8  C   UNL     1       0.046  -5.025   9.578  0.00  0.00    -0.004 A 
ATOM      9  S   UNL     1       0.666  -4.055   8.227  0.00  0.00    -0.077 S 
ATOM     10  C   UNL     1      -0.099  -5.059  11.076  0.00  0.00    +0.043 C 
ATOM     11  C   UNL     1      -1.169  -6.141  11.340  0.00  0.00    +0.010 C 
ATOM     12  C   UNL     1      -1.028  -7.035  10.091  0.00  0.00    +0.037 C 
BRANCH   6  13
ATOM     13  C   UNL     1      -0.875  -7.256   6.748  0.00  0.00    +0.254 C 
ATOM     14  O   UNL     1      -0.155  -8.203   6.495  0.00  0.00    -0.270 OA
ATOM     15  N   UNL     1      -2.146  -7.236   6.299  0.00  0.00    -0.236 N 
ATOM     16  C   UNL     1      -2.619  -8.265   5.569  0.00  0.00    +0.304 C 
ATOM     17  O   UNL     1      -1.899  -9.212   5.316  0.00  0.00    -0.253 OA
ATOM     18  N   UNL     1      -3.889  -8.246   5.120  0.00  0.00    -0.313 N 
ATOM     19  H   UNL     1      -2.720  -6.481   6.501  0.00  0.00    +0.159 HD
ATOM     20  H   UNL     1      -4.463  -7.490   5.322  0.00  0.00    +0.146 HD
ATOM     21  H   UNL     1      -4.229  -8.987   4.594  0.00  0.00    +0.146 HD
ENDBRANCH   6  13
ENDBRANCH   3   5
BRANCH   1  25
ATOM     22  C   UNL     1       1.772  -3.050   1.042  0.00  0.00    +0.106 A 
ATOM     23  C   UNL     1       2.189  -2.109   1.967  0.00  0.00    +0.029 A 
ATOM     24  C   UNL     1       1.971  -2.317   3.313  0.00  0.00    +0.015 A 
ATOM     25  C   UNL     1       1.328  -3.480   3.741  0.00  0.00    +0.037 A 
ATOM     26  C   UNL     1       0.910  -4.425   2.803  0.00  0.00    +0.015 A 
ATOM     27  C   UNL     1       1.130  -4.202   1.459  0.00  0.00    +0.029 A 
BRANCH  22  28
ATOM     28  S   UNL     1       2.055  -2.776  -0.676  0.00  0.00    +0.061 S 
ATOM     29  O   UNL     1       2.053  -4.054  -1.296  0.00  0.00    -0.153 OA
ATOM     30  O   UNL     1       3.158  -1.885  -0.769  0.00  0.00    -0.153 OA
BRANCH  28  31
ATOM     31  N   UNL     1       0.738  -1.962  -1.265  0.00  0.00    -0.177 NA
BRANCH  31  32
ATOM     32  C   UNL     1       0.718  -0.497  -1.257  0.00  0.00    +0.109 C 
BRANCH  32  34
ATOM     33  C   UNL     1      -0.019   1.526   0.010  0.00  0.00    +0.005 C 
ATOM     34  C   UNL     1       0.002  -0.004   0.002  0.00  0.00    +0.014 C 
ENDBRANCH  32  34
ENDBRANCH  31  32
BRANCH  31  35
ATOM     35  C   UNL     1      -0.407  -2.708  -1.794  0.00  0.00    +0.109 C 
BRANCH  35  36
ATOM     36  C   UNL     1      -0.269  -2.843  -3.312  0.00  0.00    +0.014 C 
ATOM     37  C   UNL     1      -1.465  -3.622  -3.865  0.00  0.00    +0.005 C 
ENDBRANCH  35  36
ENDBRANCH  31  35
ENDBRANCH  28  31
ENDBRANCH  22  28
ENDBRANCH   1  25
TORSDOF 9
