REMARK  Name = ZINC07064530
REMARK  8 active torsions:
REMARK  status: ('A' for Active; 'I' for Inactive)
REMARK    1  A    between atoms: C_1  and  O_2
REMARK    2  A    between atoms: O_2  and  C_3
REMARK    3  A    between atoms: C_5  and  C_13
REMARK    4  A    between atoms: C_7  and  O_11
REMARK    5  A    between atoms: C_8  and  O_9
REMARK    6  A    between atoms: O_9  and  C_10
REMARK    7  A    between atoms: O_11  and  C_12
REMARK    8  A    between atoms: C_22  and  O_29
REMARK                            x       y       z     vdW  Elec       q    Type
REMARK                         _______ _______ _______ _____ _____    ______ ____
ROOT
ATOM      1  C   UNL     1      -3.434   6.154   1.014  0.00  0.00    +0.062 C 
ATOM      2  C   UNL     1      -2.737   4.995   0.347  0.00  0.00    +0.006 A 
ATOM      3  C   UNL     1      -2.013   4.112   1.132  0.00  0.00    +0.057 A 
ATOM      4  C   UNL     1      -1.363   3.036   0.555  0.00  0.00    +0.167 A 
ATOM      5  C   UNL     1      -1.438   2.838  -0.822  0.00  0.00    +0.170 A 
ATOM      6  C   UNL     1      -2.162   3.720  -1.603  0.00  0.00    +0.095 A 
ATOM      7  C   UNL     1      -2.812   4.803  -1.021  0.00  0.00    +0.132 A 
ATOM      8  O   UNL     1      -3.504   5.651  -1.825  0.00  0.00    -0.461 OA
ATOM      9  C   UNL     1      -4.456   6.531  -1.223  0.00  0.00    +0.214 C 
ATOM     10  C   UNL     1      -3.785   7.218  -0.025  0.00  0.00    +0.073 C 
ATOM     11  C   UNL     1      -2.514   7.923  -0.500  0.00  0.00    +0.011 C 
ATOM     12  C   UNL     1      -2.883   8.987  -1.537  0.00  0.00    +0.001 C 
ATOM     13  C   UNL     1      -3.583   8.324  -2.724  0.00  0.00    +0.006 C 
ATOM     14  C   UNL     1      -4.846   7.607  -2.244  0.00  0.00    +0.079 C 
ATOM     15  O   UNL     1      -0.722   1.721  -1.142  0.00  0.00    -0.452 OA
ATOM     16  C   UNL     1       0.129   1.471  -0.007  0.00  0.00    +0.466 C 
ATOM     17  O   UNL     1      -0.594   2.043   1.099  0.00  0.00    -0.453 OA
ENDROOT
BRANCH   1  20
ATOM     18  C   UNL     1      -6.414   4.004   1.899  0.00  0.00    +0.165 A 
ATOM     19  C   UNL     1      -5.251   4.457   1.294  0.00  0.00    +0.054 A 
ATOM     20  C   UNL     1      -4.698   5.665   1.674  0.00  0.00    -0.032 A 
ATOM     21  C   UNL     1      -5.298   6.424   2.662  0.00  0.00    +0.054 A 
ATOM     22  C   UNL     1      -6.463   5.981   3.268  0.00  0.00    +0.165 A 
ATOM     23  C   UNL     1      -7.023   4.767   2.888  0.00  0.00    +0.204 A 
BRANCH  18  25
ATOM     24  C   UNL     1      -6.277   2.084   0.501  0.00  0.00    +0.277 C 
ATOM     25  O   UNL     1      -6.957   2.815   1.524  0.00  0.00    -0.491 OA
ENDBRANCH  18  25
BRANCH  23  26
ATOM     26  O   UNL     1      -8.164   4.325   3.484  0.00  0.00    -0.488 OA
ATOM     27  C   UNL     1      -8.015   3.519   4.654  0.00  0.00    +0.277 C 
ENDBRANCH  23  26
BRANCH  22  28
ATOM     28  O   UNL     1      -7.056   6.731   4.235  0.00  0.00    -0.491 OA
ATOM     29  C   UNL     1      -6.491   8.017   4.495  0.00  0.00    +0.277 C 
ENDBRANCH  22  28
ENDBRANCH   1  20
BRANCH   9  30
ATOM     30  O   UNL     1      -5.616   5.814  -0.794  0.00  0.00    -0.355 OA
ATOM     31  H   UNL     1      -6.118   5.411  -1.516  0.00  0.00    +0.214 HD
ENDBRANCH   9  30
TORSDOF 5
