REMARK  Name = ZINC14307829
REMARK  4 active torsions:
REMARK  status: ('A' for Active; 'I' for Inactive)
REMARK    1  A    between atoms: C_1  and  C_2
REMARK    2  A    between atoms: N_10  and  C_14
REMARK    3  A    between atoms: C_14  and  N_15
REMARK    4  A    between atoms: C_19  and  C_21
REMARK                            x       y       z     vdW  Elec       q    Type
REMARK                         _______ _______ _______ _____ _____    ______ ____
ROOT
ATOM      1  C   UNL     1      -0.019   1.526   0.010  0.00  0.00    +0.007 C 
ATOM      2  C   UNL     1       0.002  -0.004   0.002  0.00  0.00    -0.014 C 
ATOM      3  C   UNL     1       0.716  -0.497  -1.258  0.00  0.00    +0.006 C 
ATOM      4  C   UNL     1       0.727  -2.028  -1.271  0.00  0.00    +0.035 C 
ATOM      5  C   UNL     1       1.442  -2.543  -0.027  0.00  0.00    +0.113 C 
ATOM      6  C   UNL     1       0.753  -2.041   1.238  0.00  0.00    +0.035 C 
ATOM      7  C   UNL     1       0.742  -0.510   1.242  0.00  0.00    +0.006 C 
ATOM      8  C   UNL     1       1.495  -4.053  -0.035  0.00  0.00    +0.248 C 
ATOM      9  O   UNL     1       0.556  -4.821  -0.030  0.00  0.00    -0.273 OA
ATOM     10  N   UNL     1       2.807  -4.367  -0.051  0.00  0.00    -0.211 N 
ATOM     11  C   UNL     1       3.576  -3.272  -0.053  0.00  0.00    +0.310 C 
ATOM     12  O   UNL     1       4.791  -3.300  -0.065  0.00  0.00    -0.252 OA
ATOM     13  N   UNL     1       2.853  -2.136  -0.039  0.00  0.00    -0.285 N 
ATOM     14  H   UNL     1       3.196  -1.229  -0.038  0.00  0.00    +0.151 HD
ENDROOT
BRANCH  10  15
ATOM     15  C   UNL     1       3.325  -5.738  -0.062  0.00  0.00    +0.205 C 
BRANCH  15  16
ATOM     16  N   UNL     1       3.484  -6.189  -1.451  0.00  0.00    -0.279 NA
ATOM     17  C   UNL     1       2.213  -6.712  -1.985  0.00  0.00    +0.086 C 
ATOM     18  C   UNL     1       2.476  -8.158  -2.457  0.00  0.00    +0.017 C 
ATOM     19  C   UNL     1       4.010  -8.177  -2.687  0.00  0.00    +0.025 C 
ATOM     20  C   UNL     1       4.508  -7.251  -1.550  0.00  0.00    +0.088 C 
BRANCH  20  21
ATOM     21  C   UNL     1       5.847  -6.657  -1.906  0.00  0.00    -0.030 A 
ATOM     22  C   UNL     1       5.924  -5.630  -2.828  0.00  0.00    +0.005 A 
ATOM     23  C   UNL     1       7.152  -5.085  -3.154  0.00  0.00    +0.000 A 
ATOM     24  C   UNL     1       8.302  -5.566  -2.558  0.00  0.00    +0.000 A 
ATOM     25  C   UNL     1       8.225  -6.593  -1.635  0.00  0.00    +0.000 A 
ATOM     26  C   UNL     1       6.997  -7.135  -1.306  0.00  0.00    +0.005 A 
ENDBRANCH  20  21
ENDBRANCH  15  16
ENDBRANCH  10  15
TORSDOF 3
