REMARK  Name = ZINC64732445
REMARK  8 active torsions:
REMARK  status: ('A' for Active; 'I' for Inactive)
REMARK    1  A    between atoms: C_1  and  C_2
REMARK    2  A    between atoms: C_5  and  C_28
REMARK    3  A    between atoms: C_6  and  O_8
REMARK    4  A    between atoms: O_8  and  C_9
REMARK    5  A    between atoms: C_9  and  C_10
REMARK    6  A    between atoms: N_12  and  N_13
REMARK    7  A    between atoms: C_14  and  C_16
REMARK    8  A    between atoms: N_26  and  C_27
REMARK                            x       y       z     vdW  Elec       q    Type
REMARK                         _______ _______ _______ _____ _____    ______ ____
ROOT
ATOM      1  N   UNL     1       0.078  -3.286   7.105  0.00  0.00    -0.230 N 
ATOM      2  C   UNL     1       0.077  -2.780   8.354  0.00  0.00    +0.260 C 
ATOM      3  O   UNL     1       0.062  -1.575   8.522  0.00  0.00    -0.269 OA
ATOM      4  H   UNL     1       0.090  -4.247   6.971  0.00  0.00    +0.173 HD
ENDROOT
BRANCH   2   5
ATOM      5  C   UNL     1       0.095  -3.686   9.518  0.00  0.00    +0.040 A 
ATOM      6  C   UNL     1       0.118  -5.071   9.324  0.00  0.00    +0.015 A 
ATOM      7  C   UNL     1       0.136  -5.919  10.411  0.00  0.00    +0.026 A 
ATOM      8  C   UNL     1       0.130  -5.398  11.696  0.00  0.00    +0.051 A 
ATOM      9  C   UNL     1       0.104  -4.013  11.899  0.00  0.00    +0.055 A 
ATOM     10  C   UNL     1       0.093  -3.160  10.813  0.00  0.00    +0.038 A 
ATOM     11  N   UNL     1       0.087  -3.507  13.205  0.00  0.00    -0.283 N 
ATOM     12  C   UNL     1       0.384  -4.301  14.252  0.00  0.00    +0.235 C 
ATOM     13  O   UNL     1       0.324  -3.856  15.378  0.00  0.00    -0.274 OA
ATOM     14  C   UNL     1       0.791  -5.737  14.038  0.00  0.00    +0.200 C 
ATOM     15  N   UNL     1       0.155  -6.238  12.811  0.00  0.00    -0.323 N 
ATOM     16  C   UNL     1      -0.435  -7.578  12.759  0.00  0.00    +0.130 C 
ATOM     17  H   UNL     1      -0.141  -2.577  13.357  0.00  0.00    +0.155 HD
ENDBRANCH   2   5
BRANCH   1  20
ATOM     18  C   UNL     1       0.063  -2.932   4.751  0.00  0.00    +0.267 C 
ATOM     19  O   UNL     1       0.078  -4.133   4.584  0.00  0.00    -0.271 OA
ATOM     20  N   UNL     1       0.062  -2.425   6.000  0.00  0.00    -0.231 N 
ATOM     21  H   UNL     1       0.050  -1.465   6.134  0.00  0.00    +0.173 HD
BRANCH  18  22
ATOM     22  C   UNL     1       0.045  -2.006   3.562  0.00  0.00    +0.326 C 
BRANCH  22  23
ATOM     23  O   UNL     1       0.050  -2.776   2.358  0.00  0.00    -0.482 OA
BRANCH  23  29
ATOM     24  C   UNL     1      -0.018   1.503   0.010  0.00  0.00    +0.044 C 
ATOM     25  C   UNL     1       0.002  -0.004   0.002  0.00  0.00    -0.047 A 
ATOM     26  C   UNL     1       0.006  -0.688  -1.200  0.00  0.00    +0.004 A 
ATOM     27  C   UNL     1       0.024  -2.071  -1.211  0.00  0.00    +0.007 A 
ATOM     28  C   UNL     1       0.039  -2.772  -0.020  0.00  0.00    -0.009 A 
ATOM     29  C   UNL     1       0.035  -2.088   1.186  0.00  0.00    +0.124 A 
ATOM     30  C   UNL     1       0.023  -0.700   1.195  0.00  0.00    +0.049 A 
ATOM     31  C   UNL     1       0.059  -4.279  -0.033  0.00  0.00    +0.047 C 
ENDBRANCH  23  29
ENDBRANCH  22  23
ENDBRANCH  18  22
ENDBRANCH   1  20
TORSDOF 5
