REMARK  Name = ZINC08905669
REMARK  13 active torsions:
REMARK  status: ('A' for Active; 'I' for Inactive)
REMARK    1  A    between atoms: C_1  and  C_2
REMARK    2  A    between atoms: C_2  and  C_3
REMARK    3  A    between atoms: C_3  and  C_4
REMARK    4  A    between atoms: C_3  and  C_5
REMARK    5  A    between atoms: C_3  and  C_6
REMARK    6  A    between atoms: C_9  and  O_12
REMARK    7  A    between atoms: O_12  and  C_13
REMARK    8  A    between atoms: C_13  and  C_14
REMARK    9  A    between atoms: N_16  and  C_17
REMARK   10  A    between atoms: C_20  and  O_23
REMARK   11  A    between atoms: O_23  and  C_24
REMARK   12  A    between atoms: C_24  and  C_25
REMARK   13  A    between atoms: C_24  and  C_26
REMARK                            x       y       z     vdW  Elec       q    Type
REMARK                         _______ _______ _______ _____ _____    ______ ____
ROOT
ATOM      1  C   UNL     1      -0.633   2.600   1.052  0.00  0.00    +0.255 C 
ATOM      2  O   UNL     1      -1.613   3.314   1.062  0.00  0.00    -0.272 OA
ATOM      3  N   UNL     1      -0.186   2.051   2.199  0.00  0.00    -0.283 N 
ATOM      4  H   UNL     1       0.555   1.426   2.181  0.00  0.00    +0.155 HD
ENDROOT
BRANCH   3   5
ATOM      5  C   UNL     1      -0.793   2.384   3.417  0.00  0.00    +0.034 A 
ATOM      6  C   UNL     1      -0.025   2.486   4.570  0.00  0.00    +0.027 A 
ATOM      7  C   UNL     1      -0.623   2.819   5.769  0.00  0.00    +0.047 A 
ATOM      8  C   UNL     1      -1.991   3.040   5.825  0.00  0.00    +0.121 A 
ATOM      9  C   UNL     1      -2.759   2.933   4.675  0.00  0.00    +0.047 A 
ATOM     10  C   UNL     1      -2.162   2.606   3.473  0.00  0.00    +0.027 A 
BRANCH   8  11
ATOM     11  O   UNL     1      -2.580   3.363   7.008  0.00  0.00    -0.489 OA
BRANCH  11  12
ATOM     12  C   UNL     1      -4.005   3.463   7.016  0.00  0.00    +0.167 C 
ATOM     13  C   UNL     1      -4.526   3.206   8.432  0.00  0.00    +0.051 C 
ATOM     14  C   UNL     1      -4.420   4.866   6.567  0.00  0.00    +0.051 C 
ENDBRANCH  11  12
ENDBRANCH   8  11
ENDBRANCH   3   5
BRANCH   1  15
ATOM     15  C   UNL     1       0.086   2.327  -0.244  0.00  0.00    +0.324 C 
BRANCH  15  16
ATOM     16  O   UNL     1      -0.573   3.016  -1.309  0.00  0.00    -0.483 OA
BRANCH  16  20
ATOM     17  C   UNL     1       1.023   2.586  -5.089  0.00  0.00    -0.042 A 
ATOM     18  C   UNL     1      -0.100   3.369  -4.899  0.00  0.00    +0.008 A 
ATOM     19  C   UNL     1      -0.637   3.515  -3.634  0.00  0.00    +0.046 A 
ATOM     20  C   UNL     1      -0.047   2.874  -2.554  0.00  0.00    +0.121 A 
ATOM     21  C   UNL     1       1.084   2.094  -2.746  0.00  0.00    +0.046 A 
ATOM     22  C   UNL     1       1.613   1.946  -4.014  0.00  0.00    +0.008 A 
BRANCH  17  23
ATOM     23  C   UNL     1       1.606   2.429  -6.470  0.00  0.00    -0.010 C 
ATOM     24  C   UNL     1       0.560   1.807  -7.397  0.00  0.00    +0.016 C 
ATOM     25  C   UNL     1       2.015   3.801  -7.010  0.00  0.00    +0.016 C 
BRANCH  23  27
ATOM     26  C   UNL     1       3.427   1.360  -7.806  0.00  0.00    +0.005 C 
ATOM     27  C   UNL     1       2.835   1.519  -6.404  0.00  0.00    +0.007 C 
ENDBRANCH  23  27
ENDBRANCH  17  23
ENDBRANCH  16  20
ENDBRANCH  15  16
ENDBRANCH   1  15
TORSDOF 8
