REMARK  Name = ZINC38979446
REMARK  5 active torsions:
REMARK  status: ('A' for Active; 'I' for Inactive)
REMARK    1  A    between atoms: C_1  and  O_2
REMARK    2  A    between atoms: O_2  and  C_3
REMARK    3  A    between atoms: C_8  and  C_9
REMARK    4  A    between atoms: C_13  and  C_18
REMARK    5  A    between atoms: C_21  and  C_24
REMARK                            x       y       z     vdW  Elec       q    Type
REMARK                         _______ _______ _______ _____ _____    ______ ____
ROOT
ATOM      1  C   UNL     1       0.018  -2.829  -0.013  0.00  0.00    +0.186 C 
ATOM      2  N   UNL     1      -0.219  -4.219  -0.485  0.00  0.00    -0.263 N 
ATOM      3  N   UNL     1      -0.073  -4.404  -1.828  0.00  0.00    -0.222 N 
ATOM      4  C   UNL     1      -0.484  -5.322  -2.778  0.00  0.00    +0.181 A 
ATOM      5  N   UNL     1       0.029  -4.975  -3.920  0.00  0.00    -0.129 NA
ATOM      6  N   UNL     1       0.723  -3.900  -3.784  0.00  0.00    -0.121 NA
ATOM      7  C   UNL     1       0.675  -3.509  -2.549  0.00  0.00    +0.211 A 
ATOM      8  S   UNL     1       1.155  -2.274  -1.357  0.00  0.00    -0.056 S 
ATOM      9  H   UNL     1       0.342  -4.878   0.034  0.00  0.00    +0.168 HD
ENDROOT
BRANCH   1  15
ATOM     10  C   UNL     1      -1.200  -0.637   0.010  0.00  0.00    +0.126 A 
ATOM     11  C   UNL     1      -2.375   0.101   0.019  0.00  0.00    +0.046 A 
ATOM     12  C   UNL     1      -3.596  -0.545   0.027  0.00  0.00    +0.004 A 
ATOM     13  C   UNL     1      -3.648  -1.927   0.026  0.00  0.00    +0.001 A 
ATOM     14  C   UNL     1      -2.479  -2.665   0.017  0.00  0.00    +0.010 A 
ATOM     15  C   UNL     1      -1.255  -2.023   0.003  0.00  0.00    +0.026 A 
BRANCH  10  17
ATOM     16  C   UNL     1      -0.017   1.425   0.010  0.00  0.00    +0.277 C 
ATOM     17  O   UNL     1       0.002  -0.004   0.002  0.00  0.00    -0.495 OA
ENDBRANCH  10  17
ENDBRANCH   1  15
BRANCH   4  18
ATOM     18  C   UNL     1      -1.370  -6.516  -2.531  0.00  0.00    +0.222 C 
ATOM     19  C   UNL     1      -0.565  -7.803  -2.592  0.00  0.00    +0.039 C 
ATOM     20  C   UNL     1      -1.120  -8.481  -3.615  0.00  0.00    +0.091 C 
ATOM     21  N   UNL     1      -2.140  -7.767  -4.160  0.00  0.00    -0.153 NA
ATOM     22  N   UNL     1      -2.346  -6.674  -3.622  0.00  0.00    -0.171 NA
BRANCH  20  23
ATOM     23  C   UNL     1      -0.680  -9.819  -4.081  0.00  0.00    +0.002 A 
ATOM     24  C   UNL     1       0.377 -10.468  -3.446  0.00  0.00    +0.010 A 
ATOM     25  C   UNL     1       0.783 -11.713  -3.883  0.00  0.00    +0.001 A 
ATOM     26  C   UNL     1       0.142 -12.316  -4.950  0.00  0.00    +0.000 A 
ATOM     27  C   UNL     1      -0.908 -11.677  -5.584  0.00  0.00    +0.001 A 
ATOM     28  C   UNL     1      -1.325 -10.434  -5.152  0.00  0.00    +0.010 A 
ENDBRANCH  20  23
ENDBRANCH   4  18
TORSDOF 4
