REMARK  Name = ZINC15971663
REMARK  6 active torsions:
REMARK  status: ('A' for Active; 'I' for Inactive)
REMARK    1  A    between atoms: C_1  and  C_2
REMARK    2  A    between atoms: C_2  and  C_3
REMARK    3  A    between atoms: C_2  and  C_4
REMARK    4  A    between atoms: C_4  and  C_5
REMARK    5  A    between atoms: N_13  and  C_16
REMARK    6  A    between atoms: C_16  and  C_17
REMARK                            x       y       z     vdW  Elec       q    Type
REMARK                         _______ _______ _______ _____ _____    ______ ____
ROOT
ATOM      1  C   UNL     1      -0.161  -0.344   2.472  0.00  0.00    -0.057 C 
ATOM      2  C   UNL     1       0.527  -0.925   3.725  0.00  0.00    +0.073 C 
ATOM      3  C   UNL     1       0.253   0.114   4.849  0.00  0.00    +0.088 C 
ATOM      4  C   UNL     1       1.633   0.635   5.183  0.00  0.00    +0.225 C 
ATOM      5  O   UNL     1       1.881   1.470   6.026  0.00  0.00    -0.275 OA
ATOM      6  N   UNL     1       2.538   0.031   4.404  0.00  0.00    -0.239 N 
ATOM      7  C   UNL     1       2.026  -0.876   3.541  0.00  0.00    +0.224 C 
ATOM      8  O   UNL     1       2.656  -1.542   2.748  0.00  0.00    -0.275 OA
ATOM      9  C   UNL     1      -0.575   1.210   4.166  0.00  0.00    +0.050 C 
ATOM     10  N   UNL     1      -0.246   1.119   2.724  0.00  0.00    +0.394 N 
ATOM     11  C   UNL     1      -0.244   2.571   4.710  0.00  0.00    -0.025 A 
ATOM     12  C   UNL     1       0.917   3.308   4.777  0.00  0.00    +0.043 A 
ATOM     13  C   UNL     1       0.905   4.569   5.353  0.00  0.00    +0.124 A 
ATOM     14  C   UNL     1      -0.276   5.082   5.862  0.00  0.00    +0.040 A 
ATOM     15  C   UNL     1      -1.440   4.344   5.797  0.00  0.00    +0.026 A 
ATOM     16  C   UNL     1      -1.436   3.077   5.219  0.00  0.00    +0.036 A 
ATOM     17  N   UNL     1      -2.470   2.154   5.038  0.00  0.00    -0.286 N 
ATOM     18  C   UNL     1      -2.046   1.031   4.427  0.00  0.00    +0.211 C 
ATOM     19  O   UNL     1      -2.719   0.063   4.141  0.00  0.00    -0.277 OA
ATOM     20  F   UNL     1       2.043   5.294   5.418  0.00  0.00    -0.205 F 
ATOM     21  H   UNL     1       0.637   1.564   2.525  0.00  0.00    -0.083 HD
ATOM     22  H   UNL     1      -3.386   2.304   5.319  0.00  0.00    +0.155 HD
ATOM     23  H   UNL     1      -0.983   1.530   2.171  0.00  0.00    -0.083 HD
ENDROOT
BRANCH   1  24
ATOM     24  C   UNL     1       0.683  -0.621   1.226  0.00  0.00    -0.012 C 
BRANCH  24  26
ATOM     25  C   UNL     1       0.874  -0.212  -1.232  0.00  0.00    +0.007 C 
ATOM     26  C   UNL     1      -0.032  -0.065  -0.008  0.00  0.00    -0.019 C 
ATOM     27  C   UNL     1      -1.330  -0.842  -0.238  0.00  0.00    +0.007 C 
ENDBRANCH  24  26
ENDBRANCH   1  24
BRANCH   6  28
ATOM     28  C   UNL     1       3.971   0.324   4.481  0.00  0.00    +0.148 C 
BRANCH  28  29
ATOM     29  C   UNL     1       4.629  -0.613   5.497  0.00  0.00    +0.136 C 
ATOM     30  C   UNL     1       6.114  -0.233   5.675  0.00  0.00    +0.035 C 
ATOM     31  C   UNL     1       6.799  -1.622   5.787  0.00  0.00    +0.031 C 
ATOM     32  C   UNL     1       5.915  -2.464   4.833  0.00  0.00    +0.160 C 
ATOM     33  O   UNL     1       4.579  -1.962   5.018  0.00  0.00    -0.375 OA
ENDBRANCH  28  29
ENDBRANCH   6  28
TORSDOF 4
