REMARK  Name = ZINC41249564
REMARK  8 active torsions:
REMARK  status: ('A' for Active; 'I' for Inactive)
REMARK    1  A    between atoms: C_1  and  C_2
REMARK    2  A    between atoms: C_2  and  C_3
REMARK    3  A    between atoms: C_3  and  C_4
REMARK    4  A    between atoms: C_4  and  C_5
REMARK    5  A    between atoms: N_7  and  C_8
REMARK    6  A    between atoms: C_8  and  C_10
REMARK    7  A    between atoms: C_8  and  C_11
REMARK    8  A    between atoms: C_17  and  C_20
REMARK                            x       y       z     vdW  Elec       q    Type
REMARK                         _______ _______ _______ _____ _____    ______ ____
ROOT
ATOM      1  C   UNL     1      -4.436  -5.800   0.626  0.00  0.00    +0.236 C 
ATOM      2  O   UNL     1      -3.415  -6.264   1.089  0.00  0.00    -0.274 OA
ATOM      3  N   UNL     1      -5.576  -6.519   0.653  0.00  0.00    -0.295 N 
ATOM      4  C   UNL     1      -6.797  -6.027  -0.004  0.00  0.00    +0.136 C 
ATOM      5  C   UNL     1      -7.953  -6.110   0.999  0.00  0.00    +0.179 C 
ATOM      6  O   UNL     1      -8.012  -7.432   1.540  0.00  0.00    -0.369 OA
ATOM      7  C   UNL     1      -6.848  -7.815   2.278  0.00  0.00    +0.166 C 
ATOM      8  C   UNL     1      -5.634  -7.821   1.335  0.00  0.00    +0.144 C 
ENDROOT
BRANCH   7   9
ATOM      9  C   UNL     1      -7.047  -9.194   2.851  0.00  0.00    -0.017 A 
ATOM     10  C   UNL     1      -7.666 -10.173   2.097  0.00  0.00    +0.006 A 
ATOM     11  C   UNL     1      -7.849 -11.439   2.623  0.00  0.00    +0.000 A 
ATOM     12  C   UNL     1      -7.412 -11.725   3.903  0.00  0.00    +0.000 A 
ATOM     13  C   UNL     1      -6.792 -10.745   4.657  0.00  0.00    +0.000 A 
ATOM     14  C   UNL     1      -6.606  -9.481   4.129  0.00  0.00    +0.006 A 
ENDBRANCH   7   9
BRANCH   1  15
ATOM     15  C   UNL     1      -4.429  -4.420   0.022  0.00  0.00    +0.156 C 
ATOM     16  C   UNL     1      -4.278  -4.529  -1.497  0.00  0.00    +0.038 C 
BRANCH  15  19
ATOM     17  C   UNL     1      -3.364  -2.305   0.598  0.00  0.00    +0.214 C 
ATOM     18  O   UNL     1      -4.341  -1.730   0.169  0.00  0.00    -0.276 OA
ATOM     19  N   UNL     1      -3.309  -3.652   0.571  0.00  0.00    -0.304 N 
ATOM     20  H   UNL     1      -2.527  -4.112   0.914  0.00  0.00    +0.149 HD
BRANCH  17  21
ATOM     21  C   UNL     1      -2.211  -1.515   1.163  0.00  0.00    +0.096 C 
BRANCH  21  22
ATOM     22  C   UNL     1      -2.527  -0.021   1.076  0.00  0.00    +0.009 C 
BRANCH  22  24
ATOM     23  C   UNL     1      -1.672   2.276   1.562  0.00  0.00    +0.004 C 
ATOM     24  C   UNL     1      -1.356   0.781   1.649  0.00  0.00    -0.003 C 
ENDBRANCH  22  24
ENDBRANCH  21  22
ENDBRANCH  17  21
ENDBRANCH  15  19
ENDBRANCH   1  15
TORSDOF 6
