REMARK  Name = ZINC21326442
REMARK  10 active torsions:
REMARK  status: ('A' for Active; 'I' for Inactive)
REMARK    1  A    between atoms: C_1  and  C_2
REMARK    2  A    between atoms: C_2  and  O_3
REMARK    3  A    between atoms: O_3  and  C_4
REMARK    4  A    between atoms: C_6  and  C_11
REMARK    5  A    between atoms: C_9  and  O_10
REMARK    6  A    between atoms: N_12  and  N_13
REMARK    7  A    between atoms: C_17  and  S_20
REMARK    8  A    between atoms: N_18  and  N_19
REMARK    9  A    between atoms: S_20  and  C_21
REMARK   10  A    between atoms: C_21  and  C_22
REMARK                            x       y       z     vdW  Elec       q    Type
REMARK                         _______ _______ _______ _____ _____    ______ ____
ROOT
ATOM      1  N   UNL     1       8.668  -3.482  -2.832  0.00  0.00    -0.204 N 
ATOM      2  C   UNL     1       7.632  -2.902  -2.113  0.00  0.00    +0.254 A 
ATOM      3  N   UNL     1       7.537  -2.848  -0.807  0.00  0.00    -0.109 NA
ATOM      4  N   UNL     1       6.346  -2.182  -0.487  0.00  0.00    -0.119 NA
ATOM      5  C   UNL     1       5.754  -1.850  -1.609  0.00  0.00    +0.210 A 
ATOM      6  N   UNL     1       6.530  -2.290  -2.643  0.00  0.00    -0.211 N 
ATOM      7  H   UNL     1       8.648  -3.470  -3.932  0.00  0.00    +0.177 HD
ENDROOT
BRANCH   6   8
ATOM      8  N   UNL     1       6.255  -2.143  -3.973  0.00  0.00    -0.294 N 
ATOM      9  H   UNL     1       5.334  -1.632  -4.291  0.00  0.00    +0.163 HD
ATOM     10  H   UNL     1       6.954  -2.536  -4.726  0.00  0.00    +0.163 HD
ENDBRANCH   6   8
BRANCH   1  12
ATOM     11  C   UNL     1      10.708  -4.625  -2.830  0.00  0.00    +0.138 C 
ATOM     12  N   UNL     1       9.739  -4.082  -2.157  0.00  0.00    -0.188 NA
BRANCH  11  15
ATOM     13  C   UNL     1      13.933  -6.431  -2.171  0.00  0.00    +0.162 A 
ATOM     14  C   UNL     1      12.879  -5.841  -2.842  0.00  0.00    +0.059 A 
ATOM     15  C   UNL     1      11.835  -5.256  -2.120  0.00  0.00    -0.002 A 
ATOM     16  C   UNL     1      11.865  -5.267  -0.723  0.00  0.00    +0.013 A 
ATOM     17  C   UNL     1      12.917  -5.863  -0.060  0.00  0.00    +0.050 A 
ATOM     18  C   UNL     1      13.953  -6.443  -0.778  0.00  0.00    +0.158 A 
BRANCH  18  19
ATOM     19  O   UNL     1      14.992  -7.024  -0.120  0.00  0.00    -0.503 OA
ATOM     20  H   UNL     1      15.009  -7.034   0.980  0.00  0.00    +0.292 HD
ENDBRANCH  18  19
BRANCH  13  21
ATOM     21  O   UNL     1      14.950  -7.001  -2.870  0.00  0.00    -0.489 OA
BRANCH  21  23
ATOM     22  C   UNL     1      16.089  -7.640  -4.904  0.00  0.00    +0.048 C 
ATOM     23  C   UNL     1      14.864  -6.953  -4.296  0.00  0.00    +0.226 C 
ENDBRANCH  21  23
ENDBRANCH  13  21
ENDBRANCH  11  15
ENDBRANCH   1  12
BRANCH   5  24
ATOM     24  S   UNL     1       4.221  -0.993  -1.756  0.00  0.00    -0.080 S 
BRANCH  24  25
ATOM     25  C   UNL     1       3.711  -0.707  -0.039  0.00  0.00    +0.112 C 
BRANCH  25  26
ATOM     26  C   UNL     1       2.396   0.029  -0.022  0.00  0.00    -0.037 A 
ATOM     27  C   UNL     1       1.208  -0.679  -0.014  0.00  0.00    +0.004 A 
ATOM     28  C   UNL     1       0.002  -0.004   0.002  0.00  0.00    +0.000 A 
ATOM     29  C   UNL     1      -0.017   1.378   0.010  0.00  0.00    +0.000 A 
ATOM     30  C   UNL     1       1.171   2.086   0.002  0.00  0.00    +0.000 A 
ATOM     31  C   UNL     1       2.377   1.411  -0.014  0.00  0.00    +0.004 A 
ENDBRANCH  25  26
ENDBRANCH  24  25
ENDBRANCH   5  24
TORSDOF 9
