REMARK  Name = ZINC04030478
REMARK  5 active torsions:
REMARK  status: ('A' for Active; 'I' for Inactive)
REMARK    1  A    between atoms: C_3  and  N_23
REMARK    2  A    between atoms: C_4  and  N_20
REMARK    3  A    between atoms: C_6  and  N_7
REMARK    4  A    between atoms: C_26  and  C_29
REMARK    5  A    between atoms: C_26  and  N_68
REMARK                            x       y       z     vdW  Elec       q    Type
REMARK                         _______ _______ _______ _____ _____    ______ ____
ROOT
ATOM      1  C   UNL     1       1.481   1.164   0.257  0.00  0.00    +0.026 A 
ATOM      2  C   UNL     1       0.226   0.591   0.206  0.00  0.00    +0.027 A 
ATOM      3  C   UNL     1      -0.905   1.397   0.212  0.00  0.00    +0.060 A 
ATOM      4  C   UNL     1      -0.773   2.779   0.281  0.00  0.00    +0.149 A 
ATOM      5  C   UNL     1       0.482   3.350   0.331  0.00  0.00    +0.058 A 
ATOM      6  C   UNL     1       1.613   2.544   0.319  0.00  0.00    +0.046 A 
ENDROOT
BRANCH   6   7
ATOM      7  N   UNL     1       2.890   3.126   0.371  0.00  0.00    -0.210 N 
ATOM      8  C   UNL     1       3.096   4.469   0.428  0.00  0.00    +0.230 C 
ATOM      9  O   UNL     1       2.279   5.342   0.229  0.00  0.00    -0.275 OA
ATOM     10  C   UNL     1       4.538   4.648   0.789  0.00  0.00    +0.088 C 
ATOM     11  C   UNL     1       5.312   5.827   0.239  0.00  0.00    +0.013 C 
ATOM     12  C   UNL     1       6.752   5.682   0.772  0.00  0.00    +0.001 C 
ATOM     13  C   UNL     1       7.375   4.350   0.369  0.00  0.00    +0.001 C 
ATOM     14  C   UNL     1       6.497   3.163   0.748  0.00  0.00    +0.013 C 
ATOM     15  C   UNL     1       5.143   3.381   0.115  0.00  0.00    +0.088 C 
ATOM     16  C   UNL     1       4.041   2.401   0.364  0.00  0.00    +0.230 C 
ATOM     17  O   UNL     1       4.151   1.204   0.528  0.00  0.00    -0.275 OA
ENDBRANCH   6   7
BRANCH   3  18
ATOM     18  N   UNL     1      -2.177   0.818   0.154  0.00  0.00    -0.328 N 
ATOM     19  C   UNL     1      -2.439   0.005   1.348  0.00  0.00    +0.104 C 
ATOM     20  C   UNL     1      -3.886  -0.492   1.320  0.00  0.00    +0.016 C 
ATOM     21  C   UNL     1      -4.111  -1.323   0.053  0.00  0.00    +0.015 C 
ATOM     22  C   UNL     1      -3.784  -0.468  -1.174  0.00  0.00    +0.016 C 
ATOM     23  C   UNL     1      -2.340   0.029  -1.073  0.00  0.00    +0.104 C 
BRANCH  21  29
ATOM     24  C   UNL     1      -6.419  -0.599  -0.040  0.00  0.00    -0.077 C 
ATOM     25  C   UNL     1      -7.856  -1.080  -0.250  0.00  0.00    -0.019 C 
ATOM     26  C   UNL     1      -8.245  -2.025   0.890  0.00  0.00    -0.004 C 
ATOM     27  C   UNL     1      -7.258  -3.195   0.932  0.00  0.00    -0.019 C 
ATOM     28  C   UNL     1      -5.838  -2.652   1.108  0.00  0.00    -0.077 C 
ATOM     29  N   UNL     1      -5.517  -1.770  -0.034  0.00  0.00    +0.389 N 
ATOM     30  H   UNL     1      -5.646  -2.294  -0.907  0.00  0.00    -0.080 HD
ENDBRANCH  21  29
BRANCH  21  31
ATOM     31  C   UNL     1      -3.213  -2.533   0.078  0.00  0.00    +0.200 C 
ATOM     32  O   UNL     1      -2.226  -2.542   0.783  0.00  0.00    -0.278 OA
ATOM     33  N   UNL     1      -3.506  -3.606  -0.684  0.00  0.00    -0.330 N 
ATOM     34  H   UNL     1      -4.252  -3.571  -1.303  0.00  0.00    +0.145 HD
ATOM     35  H   UNL     1      -2.971  -4.412  -0.613  0.00  0.00    +0.145 HD
ENDBRANCH  21  31
ENDBRANCH   3  18
BRANCH   4  36
ATOM     36  N   UNL     1      -1.978   3.638   0.293  0.00  0.00    +0.058 N 
ATOM     37  O   UNL     1      -1.862   4.849   0.348  0.00  0.00    -0.126 OA
ATOM     38  O   UNL     1      -3.086   3.133   0.249  0.00  0.00    -0.126 OA
ENDBRANCH   4  36
TORSDOF 5
