REMARK  Name = ZINC22516316
REMARK  7 active torsions:
REMARK  status: ('A' for Active; 'I' for Inactive)
REMARK    1  A    between atoms: C_1  and  C_2
REMARK    2  A    between atoms: C_2  and  C_3
REMARK    3  A    between atoms: C_8  and  N_9
REMARK    4  A    between atoms: C_10  and  C_12
REMARK    5  A    between atoms: C_12  and  S_13
REMARK    6  A    between atoms: S_13  and  C_14
REMARK    7  A    between atoms: C_24  and  C_28
REMARK                            x       y       z     vdW  Elec       q    Type
REMARK                         _______ _______ _______ _____ _____    ______ ____
ROOT
ATOM      1  C   UNL     1       5.215   3.462  -0.018  0.00  0.00    +0.191 A 
ATOM      2  N   UNL     1       5.273   2.178   0.302  0.00  0.00    -0.207 NA
ATOM      3  C   UNL     1       4.207   1.385   0.385  0.00  0.00    +0.129 A 
ATOM      4  C   UNL     1       2.951   1.997   0.105  0.00  0.00    +0.051 A 
ATOM      5  C   UNL     1       1.643   1.361   0.125  0.00  0.00    -0.025 A 
ATOM      6  C   UNL     1       0.583   2.144  -0.177  0.00  0.00    -0.004 A 
ATOM      7  S   UNL     1       1.265   3.752  -0.497  0.00  0.00    -0.073 S 
ATOM      8  C   UNL     1       2.967   3.374  -0.229  0.00  0.00    +0.115 A 
ATOM      9  N   UNL     1       4.071   4.093  -0.290  0.00  0.00    -0.214 NA
ATOM     10  C   UNL     1      -0.858   1.739  -0.230  0.00  0.00    +0.046 C 
ATOM     11  C   UNL     1      -0.933   0.206  -0.251  0.00  0.00    -0.009 C 
ATOM     12  C   UNL     1      -0.016  -0.344   0.847  0.00  0.00    +0.008 C 
ATOM     13  C   UNL     1       1.446  -0.114   0.464  0.00  0.00    +0.037 C 
ATOM     14  C   UNL     1      -2.373  -0.241   0.006  0.00  0.00    +0.008 C 
ATOM     15  N   UNL     1       4.313   0.048   0.722  0.00  0.00    -0.343 N 
ATOM     16  H   UNL     1       3.410  -0.578   0.780  0.00  0.00    +0.144 HD
ATOM     17  H   UNL     1       5.300  -0.390   0.931  0.00  0.00    +0.144 HD
ENDROOT
BRANCH   1  18
ATOM     18  S   UNL     1       6.718   4.380  -0.086  0.00  0.00    -0.077 S 
BRANCH  18  19
ATOM     19  C   UNL     1       7.899   3.080   0.352  0.00  0.00    +0.173 C 
BRANCH  19  21
ATOM     20  N   UNL     1      10.344   2.861   0.658  0.00  0.00    -0.285 N 
ATOM     21  C   UNL     1       9.294   3.651   0.357  0.00  0.00    +0.227 C 
ATOM     22  O   UNL     1       9.472   4.821   0.090  0.00  0.00    -0.275 OA
ATOM     23  H   UNL     1      10.176   1.827   0.992  0.00  0.00    +0.155 HD
BRANCH  20  29
ATOM     24  C   UNL     1      12.673   2.796   1.295  0.00  0.00    -0.026 A 
ATOM     25  C   UNL     1      13.959   3.288   1.181  0.00  0.00    +0.005 A 
ATOM     26  C   UNL     1      14.225   4.338   0.323  0.00  0.00    +0.000 A 
ATOM     27  C   UNL     1      13.206   4.900  -0.425  0.00  0.00    +0.002 A 
ATOM     28  C   UNL     1      11.920   4.409  -0.320  0.00  0.00    +0.023 A 
ATOM     29  C   UNL     1      11.648   3.357   0.545  0.00  0.00    +0.037 A 
BRANCH  24  31
ATOM     30  C   UNL     1      12.428   0.334   1.453  0.00  0.00    +0.009 C 
ATOM     31  C   UNL     1      12.383   1.651   2.230  0.00  0.00    +0.033 C 
ENDBRANCH  24  31
ENDBRANCH  20  29
ENDBRANCH  19  21
ENDBRANCH  18  19
ENDBRANCH   1  18
TORSDOF 5
