REMARK  Name = ZINC32983149
REMARK  12 active torsions:
REMARK  status: ('A' for Active; 'I' for Inactive)
REMARK    1  A    between atoms: C_1  and  C_2
REMARK    2  A    between atoms: C_3  and  C_29
REMARK    3  A    between atoms: C_4  and  C_28
REMARK    4  A    between atoms: C_7  and  C_8
REMARK    5  A    between atoms: N_10  and  C_11
REMARK    6  A    between atoms: N_10  and  C_15
REMARK    7  A    between atoms: C_11  and  C_12
REMARK    8  A    between atoms: C_12  and  O_13
REMARK    9  A    between atoms: O_13  and  C_14
REMARK   10  A    between atoms: C_15  and  C_16
REMARK   11  A    between atoms: C_29  and  O_31
REMARK   12  A    between atoms: O_31  and  C_32
REMARK                            x       y       z     vdW  Elec       q    Type
REMARK                         _______ _______ _______ _____ _____    ______ ____
ROOT
ATOM      1  C   UNL     1      -4.046  -1.562  -0.950  0.00  0.00    +0.264 C 
ATOM      2  O   UNL     1      -3.716  -2.125  -1.978  0.00  0.00    -0.268 OA
ATOM      3  N   UNL     1      -3.403  -1.834   0.203  0.00  0.00    -0.287 N 
ENDROOT
BRANCH   1  10
ATOM      4  C   UNL     1      -3.714   1.539  -0.878  0.00  0.00    +0.047 C 
ATOM      5  C   UNL     1      -5.008   0.768  -0.936  0.00  0.00    -0.006 A 
ATOM      6  C   UNL     1      -6.311   1.315  -0.971  0.00  0.00    +0.083 A 
ATOM      7  C   UNL     1      -7.195   0.253  -1.014  0.00  0.00    +0.028 A 
ATOM      8  N   UNL     1      -6.488  -0.887  -1.011  0.00  0.00    -0.354 N 
ATOM      9  H   UNL     1      -7.007  -1.857  -1.042  0.00  0.00    +0.166 HD
ATOM     10  C   UNL     1      -5.144  -0.588  -0.967  0.00  0.00    +0.106 A 
ATOM     11  C   UNL     1      -8.698   0.359  -1.056  0.00  0.00    +0.064 C 
BRANCH   6  12
ATOM     12  C   UNL     1      -6.660   2.746  -0.960  0.00  0.00    +0.341 C 
ATOM     13  O   UNL     1      -6.836   3.320   0.097  0.00  0.00    -0.245 OA
BRANCH  12  14
ATOM     14  O   UNL     1      -6.786   3.418  -2.121  0.00  0.00    -0.464 OA
ATOM     15  C   UNL     1      -7.133   4.825  -2.033  0.00  0.00    +0.280 C 
ENDBRANCH  12  14
ENDBRANCH   6  12
ENDBRANCH   1  10
BRANCH   3  16
ATOM     16  C   UNL     1      -3.872  -1.243   1.459  0.00  0.00    +0.136 C 
BRANCH  16  17
ATOM     17  C   UNL     1      -4.988  -2.110   2.045  0.00  0.00    +0.178 C 
BRANCH  17  18
ATOM     18  O   UNL     1      -4.466  -3.397   2.380  0.00  0.00    -0.381 OA
ATOM     19  C   UNL     1      -5.454  -4.325   2.833  0.00  0.00    +0.194 C 
ENDBRANCH  17  18
ENDBRANCH  16  17
ENDBRANCH   3  16
BRANCH   3  20
ATOM     20  C   UNL     1      -2.237  -2.720   0.200  0.00  0.00    +0.182 C 
BRANCH  20  21
ATOM     21  C   UNL     1      -0.979  -1.894   0.119  0.00  0.00    +0.128 A 
ATOM     22  N   UNL     1       0.218  -2.531   0.206  0.00  0.00    -0.309 N 
ATOM     23  H   UNL     1       0.251  -3.623   0.333  0.00  0.00    +0.170 HD
ATOM     24  C   UNL     1       1.376  -1.835   0.138  0.00  0.00    +0.259 A 
ATOM     25  O   UNL     1       2.455  -2.393   0.215  0.00  0.00    -0.267 OA
ATOM     26  C   UNL     1       1.281  -0.377  -0.032  0.00  0.00    +0.065 A 
ATOM     27  C   UNL     1       2.413   0.431  -0.113  0.00  0.00    +0.015 A 
ATOM     28  C   UNL     1       2.265   1.791  -0.272  0.00  0.00    +0.001 A 
ATOM     29  C   UNL     1       1.001   2.360  -0.352  0.00  0.00    +0.002 A 
ATOM     30  C   UNL     1      -0.130   1.579  -0.275  0.00  0.00    +0.028 A 
ATOM     31  C   UNL     1      -0.007   0.198  -0.113  0.00  0.00    +0.078 A 
ATOM     32  N   UNL     1      -1.094  -0.609  -0.032  0.00  0.00    -0.232 NA
ENDBRANCH  20  21
ENDBRANCH   3  20
TORSDOF 8
