REMARK  Name = ZINC63213253
REMARK  10 active torsions:
REMARK  status: ('A' for Active; 'I' for Inactive)
REMARK    1  A    between atoms: C_1  and  C_2
REMARK    2  A    between atoms: C_4  and  C_7
REMARK    3  A    between atoms: C_7  and  N_8
REMARK    4  A    between atoms: C_9  and  C_11
REMARK    5  A    between atoms: N_13  and  C_14
REMARK    6  A    between atoms: C_18  and  N_20
REMARK    7  A    between atoms: C_21  and  C_23
REMARK    8  A    between atoms: C_23  and  C_24
REMARK    9  A    between atoms: C_23  and  C_25
REMARK   10  A    between atoms: C_23  and  C_26
REMARK                            x       y       z     vdW  Elec       q    Type
REMARK                         _______ _______ _______ _____ _____    ______ ____
ROOT
ATOM      1  C   UNL     1      -3.386  -7.357  -2.284  0.00  0.00    +0.303 C 
ATOM      2  O   UNL     1      -3.541  -8.540  -2.511  0.00  0.00    -0.265 OA
ATOM      3  N   UNL     1      -3.387  -6.471  -3.300  0.00  0.00    -0.278 N 
ATOM      4  H   UNL     1      -3.330  -5.521  -3.114  0.00  0.00    +0.155 HD
ENDROOT
BRANCH   3   5
ATOM      5  C   UNL     1      -3.470  -6.921  -4.620  0.00  0.00    +0.036 A 
ATOM      6  C   UNL     1      -2.783  -6.254  -5.627  0.00  0.00    +0.023 A 
ATOM      7  C   UNL     1      -2.865  -6.698  -6.933  0.00  0.00    +0.004 A 
ATOM      8  C   UNL     1      -3.629  -7.807  -7.241  0.00  0.00    +0.023 A 
ATOM      9  C   UNL     1      -4.318  -8.479  -6.239  0.00  0.00    +0.035 A 
ATOM     10  C   UNL     1      -4.233  -8.039  -4.926  0.00  0.00    +0.046 A 
BRANCH   9  11
ATOM     11  N   UNL     1      -5.093  -9.601  -6.553  0.00  0.00    -0.285 N 
ATOM     12  C   UNL     1      -4.691 -10.447  -7.523  0.00  0.00    +0.223 C 
ATOM     13  O   UNL     1      -3.704 -10.192  -8.180  0.00  0.00    -0.275 OA
ATOM     14  H   UNL     1      -5.918  -9.771  -6.073  0.00  0.00    +0.155 HD
BRANCH  12  15
ATOM     15  C   UNL     1      -5.468 -11.710  -7.790  0.00  0.00    +0.039 C 
ATOM     16  C   UNL     1      -4.806 -12.485  -8.931  0.00  0.00    +0.020 C 
ATOM     17  C   UNL     1      -5.486 -12.575  -6.529  0.00  0.00    +0.020 C 
ATOM     18  C   UNL     1      -6.903 -11.352  -8.183  0.00  0.00    +0.020 C 
ENDBRANCH  12  15
ENDBRANCH   9  11
ENDBRANCH   3   5
BRANCH   1  20
ATOM     19  N   UNL     1      -3.193  -7.771   0.135  0.00  0.00    -0.302 N 
ATOM     20  C   UNL     1      -3.194  -6.885  -0.881  0.00  0.00    +0.300 C 
ATOM     21  O   UNL     1      -3.038  -5.702  -0.655  0.00  0.00    -0.265 OA
ATOM     22  H   UNL     1      -3.317  -8.716  -0.046  0.00  0.00    +0.150 HD
BRANCH  19  23
ATOM     23  C   UNL     1      -3.004  -7.307   1.512  0.00  0.00    +0.163 C 
BRANCH  23  27
ATOM     24  C   UNL     1      -1.521 -11.181   4.468  0.00  0.00    +0.089 C 
ATOM     25  C   UNL     1      -2.376 -10.178   3.738  0.00  0.00    +0.135 A 
ATOM     26  C   UNL     1      -1.930  -9.198   2.928  0.00  0.00    +0.072 A 
ATOM     27  C   UNL     1      -3.044  -8.486   2.449  0.00  0.00    +0.101 A 
ATOM     28  N   UNL     1      -4.117  -9.024   2.956  0.00  0.00    -0.081 NA
ATOM     29  O   UNL     1      -3.715 -10.107   3.777  0.00  0.00    -0.360 OA
ENDBRANCH  23  27
ENDBRANCH  19  23
ENDBRANCH   1  20
TORSDOF 6
