REMARK  Name = ZINC39733632
REMARK  5 active torsions:
REMARK  status: ('A' for Active; 'I' for Inactive)
REMARK    1  A    between atoms: C_7  and  C_10
REMARK    2  A    between atoms: C_13  and  S_16
REMARK    3  A    between atoms: S_16  and  C_17
REMARK    4  A    between atoms: C_17  and  C_18
REMARK    5  A    between atoms: C_20  and  C_23
REMARK                            x       y       z     vdW  Elec       q    Type
REMARK                         _______ _______ _______ _____ _____    ______ ____
ROOT
ATOM      1  C   UNL     1       0.676  -3.129  -0.021  0.00  0.00    +0.238 C 
ATOM      2  N   UNL     1      -0.625  -3.009  -0.013  0.00  0.00    -0.145 NA
ATOM      3  N   UNL     1      -1.227  -4.276  -0.013  0.00  0.00    -0.219 N 
ATOM      4  C   UNL     1      -0.115  -5.241  -0.021  0.00  0.00    +0.339 C 
ATOM      5  O   UNL     1       1.066  -4.427  -0.031  0.00  0.00    -0.443 OA
ATOM      6  H   UNL     1      -2.177  -4.474  -0.008  0.00  0.00    +0.173 HD
ENDROOT
BRANCH   1  13
ATOM      7  C   UNL     1      -0.016   1.354   0.009  0.00  0.00    +0.001 A 
ATOM      8  C   UNL     1       1.163   2.101   0.002  0.00  0.00    +0.002 A 
ATOM      9  C   UNL     1       2.384   1.511  -0.013  0.00  0.00    +0.026 A 
ATOM     10  C   UNL     1       2.483   0.096  -0.021  0.00  0.00    +0.043 A 
ATOM     11  N   UNL     1       3.531  -0.705  -0.036  0.00  0.00    -0.380 N 
ATOM     12  C   UNL     1       3.075  -2.099  -0.039  0.00  0.00    +0.154 C 
ATOM     13  C   UNL     1       1.563  -2.044  -0.024  0.00  0.00    +0.043 C 
ATOM     14  C   UNL     1       1.237  -0.687  -0.013  0.00  0.00    +0.008 A 
ATOM     15  C   UNL     1       0.002  -0.004   0.002  0.00  0.00    +0.010 A 
ATOM     16  H   UNL     1       4.457  -0.418  -0.044  0.00  0.00    +0.160 HD
ENDBRANCH   1  13
BRANCH   4  17
ATOM     17  S   UNL     1      -0.167  -6.280   1.465  0.00  0.00    -0.087 S 
BRANCH  17  18
ATOM     18  C   UNL     1      -0.019  -5.097   2.832  0.00  0.00    +0.173 C 
BRANCH  18  19
ATOM     19  C   UNL     1      -0.048  -5.838   4.144  0.00  0.00    +0.238 A 
ATOM     20  N   UNL     1       0.989  -6.304   4.777  0.00  0.00    -0.190 NA
ATOM     21  C   UNL     1       0.601  -6.911   5.915  0.00  0.00    +0.209 A 
ATOM     22  N   UNL     1      -0.706  -6.829   6.007  0.00  0.00    -0.056 NA
ATOM     23  O   UNL     1      -1.146  -6.124   4.856  0.00  0.00    -0.337 OA
BRANCH  21  24
ATOM     24  C   UNL     1       1.496  -7.559   6.896  0.00  0.00    +0.060 A 
ATOM     25  C   UNL     1       1.177  -8.197   8.065  0.00  0.00    +0.019 A 
ATOM     26  C   UNL     1       2.192  -8.732   8.825  0.00  0.00    +0.008 A 
ATOM     27  C   UNL     1       3.475  -8.612   8.395  0.00  0.00    +0.046 A 
ATOM     28  S   UNL     1       3.273  -7.722   6.861  0.00  0.00    -0.093 S 
ENDBRANCH  21  24
ENDBRANCH  18  19
ENDBRANCH  17  18
ENDBRANCH   4  17
TORSDOF 5
