REMARK  Name = ZINC44464816
REMARK  10 active torsions:
REMARK  status: ('A' for Active; 'I' for Inactive)
REMARK    1  A    between atoms: C_1  and  C_2
REMARK    2  A    between atoms: C_5  and  S_8
REMARK    3  A    between atoms: S_8  and  C_9
REMARK    4  A    between atoms: C_10  and  C_21
REMARK    5  A    between atoms: C_11  and  C_15
REMARK    6  A    between atoms: N_13  and  C_14
REMARK    7  A    between atoms: C_21  and  CA_22
REMARK    8  A    between atoms: CA_22  and  C_24
REMARK    9  A    between atoms: CA_22  and  N_26
REMARK   10  A    between atoms: C_24  and  O_25
REMARK                            x       y       z     vdW  Elec       q    Type
REMARK                         _______ _______ _______ _____ _____    ______ ____
ROOT
ATOM      1  C   UNL     1       0.076  -5.007   1.676  0.00  0.00    +0.103 A 
ATOM      2  C   UNL     1       1.147  -5.448   2.388  0.00  0.00    +0.011 A 
ATOM      3  C   UNL     1       0.737  -5.611   3.724  0.00  0.00    +0.097 A 
ATOM      4  N   UNL     1      -0.534  -5.280   3.807  0.00  0.00    -0.170 NA
ATOM      5  N   UNL     1      -0.972  -4.891   2.535  0.00  0.00    -0.260 N 
ATOM      6  C   UNL     1      -2.323  -4.443   2.189  0.00  0.00    +0.173 C 
ENDROOT
BRANCH   3   7
ATOM      7  C   UNL     1       1.591  -6.076   4.846  0.00  0.00    +0.002 A 
ATOM      8  C   UNL     1       1.521  -5.444   6.086  0.00  0.00    +0.010 A 
ATOM      9  C   UNL     1       2.317  -5.881   7.126  0.00  0.00    +0.001 A 
ATOM     10  C   UNL     1       3.182  -6.944   6.939  0.00  0.00    +0.000 A 
ATOM     11  C   UNL     1       3.255  -7.575   5.710  0.00  0.00    +0.001 A 
ATOM     12  C   UNL     1       2.460  -7.150   4.665  0.00  0.00    +0.010 A 
ENDBRANCH   3   7
BRANCH   1  13
ATOM     13  S   UNL     1       0.051  -4.644  -0.048  0.00  0.00    -0.070 S 
BRANCH  13  18
ATOM     14  C   UNL     1      -1.457   1.196  -0.290  0.00  0.00    +0.044 C 
ATOM     15  C   UNL     1      -1.080  -0.262  -0.230  0.00  0.00    -0.050 A 
ATOM     16  C   UNL     1      -0.849  -0.964  -1.399  0.00  0.00    +0.004 A 
ATOM     17  C   UNL     1      -0.504  -2.300  -1.347  0.00  0.00    +0.015 A 
ATOM     18  C   UNL     1      -0.388  -2.939  -0.119  0.00  0.00    +0.014 A 
ATOM     19  C   UNL     1      -0.620  -2.231   1.054  0.00  0.00    +0.015 A 
ATOM     20  C   UNL     1      -0.960  -0.894   0.995  0.00  0.00    +0.004 A 
ENDBRANCH  13  18
ENDBRANCH   1  13
BRANCH   2  21
ATOM     21  C   UNL     1       2.527  -5.713   1.844  0.00  0.00    +0.026 C 
BRANCH  21  22
ATOM     22  CA  UNL     1       3.410  -4.484   2.068  0.00  0.00    -0.045 C 
BRANCH  22  23
ATOM     23  N   UNL     1       2.891  -3.358   1.280  0.00  0.00    +0.382 N 
ATOM     24  H1  UNL     1       2.897  -3.603   0.301  0.00  0.00    -0.090 HD
ATOM     25  H2  UNL     1       1.947  -3.152   1.569  0.00  0.00    -0.090 HD
ATOM     26  H3  UNL     1       3.473  -2.547   1.428  0.00  0.00    -0.090 HD
ENDBRANCH  22  23
BRANCH  22  27
ATOM     27  C   UNL     1       4.842  -4.797   1.630  0.00  0.00    +0.140 C 
BRANCH  27  28
ATOM     28  O   UNL     1       5.689  -3.691   1.946  0.00  0.00    -0.397 OA
ATOM     29  H   UNL     1       6.614  -3.820   1.696  0.00  0.00    +0.209 HD
ENDBRANCH  27  28
ENDBRANCH  22  27
ENDBRANCH  21  22
ENDBRANCH   2  21
TORSDOF 8
