REMARK  Name = ZINC44605205
REMARK  8 active torsions:
REMARK  status: ('A' for Active; 'I' for Inactive)
REMARK    1  A    between atoms: C_4  and  C_7
REMARK    2  A    between atoms: C_8  and  C_28
REMARK    3  A    between atoms: C_10  and  C_22
REMARK    4  A    between atoms: C_11  and  C_13
REMARK    5  A    between atoms: C_13  and  C_15
REMARK    6  A    between atoms: C_20  and  O_21
REMARK    7  A    between atoms: C_28  and  C_30
REMARK    8  A    between atoms: C_35  and  O_36
REMARK                            x       y       z     vdW  Elec       q    Type
REMARK                         _______ _______ _______ _____ _____    ______ ____
ROOT
ATOM      1  C   UNL     1       3.842  -1.077   0.793  0.00  0.00    +0.064 C 
ATOM      2  C   UNL     1       3.906  -1.898   1.903  0.00  0.00    +0.101 C 
ATOM      3  N   UNL     1       5.162  -2.296   2.400  0.00  0.00    -0.308 N 
ATOM      4  C   UNL     1       6.301  -1.640   1.974  0.00  0.00    +0.064 C 
ATOM      5  C   UNL     1       6.237  -0.817   0.867  0.00  0.00    +0.101 C 
ATOM      6  N   UNL     1       5.011  -0.664   0.186  0.00  0.00    -0.308 N 
ATOM      7  H   UNL     1       5.228  -3.025   3.036  0.00  0.00    +0.152 HD
ATOM      8  H   UNL     1       4.989  -0.269  -0.700  0.00  0.00    +0.152 HD
ENDROOT
BRANCH   1  12
ATOM      9  C   UNL     1       0.082   0.154  -0.745  0.00  0.00    +0.000 A 
ATOM     10  C   UNL     1       0.341   0.264   0.610  0.00  0.00    +0.001 A 
ATOM     11  C   UNL     1       1.560  -0.134   1.117  0.00  0.00    +0.010 A 
ATOM     12  C   UNL     1       2.536  -0.649   0.259  0.00  0.00    -0.002 A 
ATOM     13  C   UNL     1       2.267  -0.758  -1.109  0.00  0.00    +0.010 A 
ATOM     14  C   UNL     1       1.043  -0.356  -1.601  0.00  0.00    +0.001 A 
ENDBRANCH   1  12
BRANCH   4  15
ATOM     15  C   UNL     1       7.574  -1.817   2.697  0.00  0.00    -0.002 A 
ATOM     16  C   UNL     1       8.321  -0.702   3.086  0.00  0.00    +0.010 A 
ATOM     17  C   UNL     1       9.511  -0.875   3.761  0.00  0.00    +0.001 A 
ATOM     18  C   UNL     1       9.966  -2.149   4.053  0.00  0.00    +0.000 A 
ATOM     19  C   UNL     1       9.232  -3.258   3.670  0.00  0.00    +0.001 A 
ATOM     20  C   UNL     1       8.037  -3.101   3.000  0.00  0.00    +0.010 A 
ENDBRANCH   4  15
BRANCH   5  21
ATOM     21  C   UNL     1       7.389  -0.139   0.418  0.00  0.00    +0.212 C 
ATOM     22  O   UNL     1       7.450   1.077   0.493  0.00  0.00    -0.285 OA
BRANCH  21  23
ATOM     23  C   UNL     1       8.522  -0.902  -0.144  0.00  0.00    +0.065 A 
ATOM     24  C   UNL     1       8.288  -2.032  -0.930  0.00  0.00    +0.015 A 
ATOM     25  C   UNL     1       9.350  -2.740  -1.451  0.00  0.00    +0.001 A 
ATOM     26  C   UNL     1      10.650  -2.335  -1.198  0.00  0.00    +0.004 A 
ATOM     27  C   UNL     1      10.896  -1.220  -0.421  0.00  0.00    +0.046 A 
ATOM     28  C   UNL     1       9.839  -0.493   0.105  0.00  0.00    +0.128 A 
BRANCH  28  29
ATOM     29  O   UNL     1      10.079   0.607   0.864  0.00  0.00    -0.506 OA
ATOM     30  H   UNL     1      10.169   0.421   1.808  0.00  0.00    +0.292 HD
ENDBRANCH  28  29
ENDBRANCH  21  23
ENDBRANCH   5  21
BRANCH   2  31
ATOM     31  C   UNL     1       2.722  -2.334   2.533  0.00  0.00    +0.212 C 
ATOM     32  O   UNL     1       2.554  -2.131   3.724  0.00  0.00    -0.285 OA
BRANCH  31  33
ATOM     33  C   UNL     1       1.685  -3.037   1.750  0.00  0.00    +0.065 A 
ATOM     34  C   UNL     1       1.918  -3.369   0.414  0.00  0.00    +0.015 A 
ATOM     35  C   UNL     1       0.946  -4.025  -0.311  0.00  0.00    +0.001 A 
ATOM     36  C   UNL     1      -0.262  -4.356   0.280  0.00  0.00    +0.004 A 
ATOM     37  C   UNL     1      -0.505  -4.033   1.601  0.00  0.00    +0.046 A 
ATOM     38  C   UNL     1       0.464  -3.379   2.346  0.00  0.00    +0.128 A 
BRANCH  38  39
ATOM     39  O   UNL     1       0.228  -3.066   3.646  0.00  0.00    -0.506 OA
ATOM     40  H   UNL     1      -0.179  -2.199   3.774  0.00  0.00    +0.292 HD
ENDBRANCH  38  39
ENDBRANCH  31  33
ENDBRANCH   2  31
TORSDOF 8
