REMARK  Name = ZINC20480323
REMARK  3 active torsions:
REMARK  status: ('A' for Active; 'I' for Inactive)
REMARK    1  A    between atoms: C_5  and  N_7
REMARK    2  A    between atoms: C_9  and  C_14
REMARK    3  A    between atoms: C_14  and  N_16
REMARK                            x       y       z     vdW  Elec       q    Type
REMARK                         _______ _______ _______ _____ _____    ______ ____
ROOT
ATOM      1  N   UNL     1       1.706   4.481  -1.834  0.00  0.00    -0.298 N 
ATOM      2  C   UNL     1       2.623   4.689  -0.818  0.00  0.00    +0.132 A 
ATOM      3  C   UNL     1       2.325   5.590   0.219  0.00  0.00    +0.043 A 
ATOM      4  C   UNL     1       3.269   5.783   1.235  0.00  0.00    +0.015 A 
ATOM      5  C   UNL     1       4.456   5.074   1.173  0.00  0.00    +0.020 A 
ATOM      6  C   UNL     1       4.676   4.204   0.121  0.00  0.00    +0.113 A 
ATOM      7  N   UNL     1       3.772   4.032  -0.825  0.00  0.00    -0.240 NA
ATOM      8  H   UNL     1       0.794   5.095  -1.886  0.00  0.00    +0.154 HD
ENDROOT
BRANCH   1  13
ATOM      9  C   UNL     1       3.181   1.588  -3.556  0.00  0.00    +0.002 A 
ATOM     10  C   UNL     1       2.398   1.534  -4.695  0.00  0.00    +0.001 A 
ATOM     11  C   UNL     1       1.385   2.456  -4.886  0.00  0.00    +0.016 A 
ATOM     12  C   UNL     1       1.153   3.435  -3.939  0.00  0.00    +0.035 A 
ATOM     13  C   UNL     1       1.938   3.492  -2.794  0.00  0.00    +0.046 A 
ATOM     14  C   UNL     1       2.954   2.563  -2.605  0.00  0.00    +0.024 A 
ATOM     15  I   UNL     1      -0.375   4.837  -4.234  0.00  0.00    -0.042 I 
ENDBRANCH   1  13
BRANCH   3  16
ATOM     16  C   UNL     1       1.046   6.319   0.236  0.00  0.00    +0.080 C 
ATOM     17  S   UNL     1      -0.431   5.453   0.247  0.00  0.00    -0.035 S 
BRANCH  16  18
ATOM     18  N   UNL     1       1.037   7.666   0.243  0.00  0.00    -0.352 N 
ATOM     19  H   UNL     1       0.081   8.210   0.256  0.00  0.00    +0.143 HD
ATOM     20  H   UNL     1       1.986   8.222   0.236  0.00  0.00    +0.143 HD
ENDBRANCH  16  18
ENDBRANCH   3  16
TORSDOF 3
