REMARK  Name = ZINC37802646
REMARK  7 active torsions:
REMARK  status: ('A' for Active; 'I' for Inactive)
REMARK    1  A    between atoms: C_1  and  C_2
REMARK    2  A    between atoms: C_5  and  C_7
REMARK    3  A    between atoms: C_10  and  C_12
REMARK    4  A    between atoms: C_12  and  N_13
REMARK    5  A    between atoms: N_13  and  C_14
REMARK    6  A    between atoms: C_15  and  C_17
REMARK    7  A    between atoms: C_17  and  N_23
REMARK                            x       y       z     vdW  Elec       q    Type
REMARK                         _______ _______ _______ _____ _____    ______ ____
ROOT
ATOM      1  N   UNL     1       1.259  -6.722   0.646  0.00  0.00    -0.298 N 
ATOM      2  C   UNL     1      -0.112  -7.154   0.932  0.00  0.00    +0.132 C 
ATOM      3  C   UNL     1       2.264  -7.082   1.468  0.00  0.00    +0.204 C 
ATOM      4  O   UNL     1       3.384  -6.657   1.279  0.00  0.00    -0.277 OA
ENDROOT
BRANCH   3   5
ATOM      5  C   UNL     1       1.996  -8.011   2.624  0.00  0.00    +0.007 C 
ATOM      6  C   UNL     1       3.325  -8.451   3.243  0.00  0.00    -0.004 C 
ATOM      7  C   UNL     1       4.164  -9.175   2.189  0.00  0.00    -0.001 C 
ATOM      8  C   UNL     1       3.403 -10.405   1.688  0.00  0.00    -0.000 C 
ATOM      9  C   UNL     1       2.075  -9.966   1.069  0.00  0.00    -0.001 C 
ATOM     10  C   UNL     1       1.236  -9.241   2.123  0.00  0.00    -0.004 C 
BRANCH   5  11
ATOM     11  N   UNL     1       1.190  -7.316   3.636  0.00  0.00    +0.388 N 
ATOM     12  H   UNL     1       0.378  -6.909   3.197  0.00  0.00    -0.089 HD
ATOM     13  H   UNL     1       0.897  -7.973   4.343  0.00  0.00    -0.089 HD
ATOM     14  H   UNL     1       1.743  -6.587   4.063  0.00  0.00    -0.089 HD
ENDBRANCH   5  11
ENDBRANCH   3   5
BRANCH   1  15
ATOM     15  C   UNL     1       1.536  -5.901  -0.535  0.00  0.00    +0.181 C 
BRANCH  15  19
ATOM     16  C   UNL     1       0.574  -2.447   0.160  0.00  0.00    +0.109 A 
ATOM     17  C   UNL     1       1.876  -2.378   0.494  0.00  0.00    +0.045 A 
ATOM     18  C   UNL     1       2.422  -3.664   0.281  0.00  0.00    +0.046 A 
ATOM     19  C   UNL     1       1.423  -4.443  -0.170  0.00  0.00    +0.122 A 
ATOM     20  O   UNL     1       0.304  -3.702  -0.236  0.00  0.00    -0.463 OA
BRANCH  16  24
ATOM     21  C   UNL     1      -1.410   0.587  -1.273  0.00  0.00    +0.008 C 
ATOM     22  C   UNL     1      -1.103  -0.899  -1.077  0.00  0.00    -0.003 C 
ATOM     23  C   UNL     1      -1.891  -1.646   0.001  0.00  0.00    +0.015 C 
ATOM     24  C   UNL     1      -0.414  -1.312   0.226  0.00  0.00    +0.058 C 
ENDBRANCH  16  24
ENDBRANCH  15  19
ENDBRANCH   1  15
TORSDOF 5
