REMARK  Name = ZINC39467583
REMARK  5 active torsions:
REMARK  status: ('A' for Active; 'I' for Inactive)
REMARK    1  A    between atoms: C_4  and  O_7
REMARK    2  A    between atoms: O_7  and  S_8
REMARK    3  A    between atoms: S_8  and  C_11
REMARK    4  A    between atoms: P_20  and  C_30
REMARK    5  A    between atoms: C_35  and  O_36
REMARK                            x       y       z     vdW  Elec       q    Type
REMARK                         _______ _______ _______ _____ _____    ______ ____
ROOT
ATOM      1  C   UNL     1       3.071  -2.384   1.880  0.00  0.00    +0.159 C 
ATOM      2  C   UNL     1       3.650  -3.559   2.104  0.00  0.00    +0.010 C 
ATOM      3  C   UNL     1       2.820  -4.732   2.552  0.00  0.00    +0.018 C 
ATOM      4  C   UNL     1       3.679  -5.728   3.317  0.00  0.00    -0.003 C 
ATOM      5  C   UNL     1       2.835  -6.540   4.309  0.00  0.00    -0.020 C 
ATOM      6  C   UNL     1       3.556  -7.887   4.461  0.00  0.00    +0.157 C 
ATOM      7  O   UNL     1       2.861  -8.725   5.397  0.00  0.00    -0.316 OA
ATOM      8  P   UNL     1       1.262  -8.929   5.170  0.00  0.00    +0.291 P 
ATOM      9  O   UNL     1       0.613  -9.361   6.428  0.00  0.00    -0.269 OA
ATOM     10  N   UNL     1       0.707  -7.444   4.719  0.00  0.00    -0.288 NA
ATOM     11  N   UNL     1       1.467  -6.708   3.833  0.00  0.00    +0.398 N 
ATOM     12  C   UNL     1       0.749  -5.427   3.739  0.00  0.00    -0.046 C 
ATOM     13  C   UNL     1       1.699  -4.250   3.472  0.00  0.00    +0.007 C 
ATOM     14  C   UNL     1       0.956  -3.117   2.817  0.00  0.00    +0.016 C 
ATOM     15  C   UNL     1       1.616  -2.240   2.067  0.00  0.00    +0.148 C 
ATOM     16  F   UNL     1       0.953  -1.223   1.474  0.00  0.00    -0.204 F 
ATOM     17  H   UNL     1      -0.133  -7.104   5.064  0.00  0.00    +0.111 HD
ATOM     18  H   UNL     1       1.478  -7.157   2.929  0.00  0.00    -0.055 HD
ENDROOT
BRANCH   8  19
ATOM     19  C   UNL     1       0.961 -10.145   3.857  0.00  0.00    +0.091 A 
ATOM     20  C   UNL     1       0.856  -9.732   2.543  0.00  0.00    +0.018 A 
ATOM     21  C   UNL     1       0.626 -10.657   1.543  0.00  0.00    +0.001 A 
ATOM     22  C   UNL     1       0.501 -11.999   1.854  0.00  0.00    +0.004 A 
ATOM     23  C   UNL     1       0.606 -12.417   3.166  0.00  0.00    +0.046 A 
ATOM     24  C   UNL     1       0.842 -11.490   4.172  0.00  0.00    +0.131 A 
BRANCH  24  25
ATOM     25  O   UNL     1       0.951 -11.900   5.463  0.00  0.00    -0.506 OA
ATOM     26  H   UNL     1       0.111 -11.917   5.942  0.00  0.00    +0.292 HD
ENDBRANCH  24  25
ENDBRANCH   8  19
BRANCH   1  27
ATOM     27  S   UNL     1       4.038  -1.003   1.368  0.00  0.00    +0.153 S 
ATOM     28  O   UNL     1       5.394  -1.429   1.384  0.00  0.00    -0.131 OA
ATOM     29  O   UNL     1       3.582   0.114   2.119  0.00  0.00    -0.131 OA
BRANCH  27  30
ATOM     30  O   UNL     1       3.688  -0.722  -0.086  0.00  0.00    -0.342 OA
BRANCH  30  34
ATOM     31  C   UNL     1       5.323  -3.406  -2.758  0.00  0.00    +0.000 A 
ATOM     32  C   UNL     1       4.084  -3.657  -2.198  0.00  0.00    +0.004 A 
ATOM     33  C   UNL     1       3.534  -2.760  -1.303  0.00  0.00    +0.048 A 
ATOM     34  C   UNL     1       4.226  -1.606  -0.966  0.00  0.00    +0.157 A 
ATOM     35  C   UNL     1       5.470  -1.357  -1.528  0.00  0.00    +0.048 A 
ATOM     36  C   UNL     1       6.015  -2.257  -2.423  0.00  0.00    +0.004 A 
ENDBRANCH  30  34
ENDBRANCH  27  30
ENDBRANCH   1  27
TORSDOF 5
