REMARK  Name = ZINC10040150
REMARK  9 active torsions:
REMARK  status: ('A' for Active; 'I' for Inactive)
REMARK    1  A    between atoms: C_1  and  C_2
REMARK    2  A    between atoms: C_2  and  C_3
REMARK    3  A    between atoms: C_2  and  C_4
REMARK    4  A    between atoms: C_4  and  C_6
REMARK    5  A    between atoms: C_4  and  N_22
REMARK    6  A    between atoms: N_8  and  N_9
REMARK    7  A    between atoms: C_10  and  C_11
REMARK    8  A    between atoms: C_20  and  O_21
REMARK    9  A    between atoms: C_23  and  C_25
REMARK                            x       y       z     vdW  Elec       q    Type
REMARK                         _______ _______ _______ _____ _____    ______ ____
ROOT
ATOM      1  C   UNL     1      -2.595   9.424   0.010  0.00  0.00    +0.253 C 
ATOM      2  O   UNL     1      -1.598   9.931   0.479  0.00  0.00    -0.272 OA
ATOM      3  N   UNL     1      -2.552   8.163  -0.464  0.00  0.00    -0.205 N 
ATOM      4  H   UNL     1      -3.365   7.732  -0.771  0.00  0.00    +0.177 HD
ENDROOT
BRANCH   3   5
ATOM      5  N   UNL     1      -1.333   7.475  -0.513  0.00  0.00    -0.188 NA
ATOM      6  C   UNL     1      -1.291   6.259  -0.970  0.00  0.00    +0.142 C 
BRANCH   6   7
ATOM      7  C   UNL     1      -0.012   5.537  -1.022  0.00  0.00    +0.044 A 
ATOM      8  C   UNL     1       0.053   4.169  -1.533  0.00  0.00    -0.006 A 
ATOM      9  C   UNL     1      -1.092   3.504  -1.988  0.00  0.00    +0.009 A 
ATOM     10  C   UNL     1      -0.988   2.230  -2.462  0.00  0.00    +0.001 A 
ATOM     11  C   UNL     1       0.242   1.576  -2.490  0.00  0.00    +0.001 A 
ATOM     12  C   UNL     1       1.375   2.193  -2.055  0.00  0.00    +0.008 A 
ATOM     13  C   UNL     1       1.305   3.509  -1.565  0.00  0.00    -0.017 A 
ATOM     14  C   UNL     1       2.454   4.178  -1.107  0.00  0.00    +0.012 A 
ATOM     15  C   UNL     1       2.375   5.450  -0.634  0.00  0.00    +0.046 A 
ATOM     16  C   UNL     1       1.166   6.141  -0.584  0.00  0.00    +0.126 A 
BRANCH  16  17
ATOM     17  O   UNL     1       1.134   7.411  -0.104  0.00  0.00    -0.506 OA
ATOM     18  H   UNL     1       0.982   7.468   0.849  0.00  0.00    +0.292 HD
ENDBRANCH  16  17
ENDBRANCH   6   7
ENDBRANCH   3   5
BRANCH   1  19
ATOM     19  C   UNL     1      -3.883  10.205  -0.042  0.00  0.00    +0.163 C 
BRANCH  19  20
ATOM     20  N   UNL     1      -3.583  11.635  -0.148  0.00  0.00    -0.300 N 
ATOM     21  C   UNL     1      -4.483  12.473  -0.700  0.00  0.00    +0.246 C 
ATOM     22  O   UNL     1      -5.543  12.043  -1.111  0.00  0.00    -0.270 OA
ATOM     23  H   UNL     1      -2.738  11.979   0.180  0.00  0.00    +0.150 HD
BRANCH  21  24
ATOM     24  C   UNL     1      -4.180  13.916  -0.807  0.00  0.00    +0.055 A 
ATOM     25  C   UNL     1      -2.966  14.415  -0.331  0.00  0.00    +0.014 A 
ATOM     26  C   UNL     1      -2.688  15.761  -0.439  0.00  0.00    +0.001 A 
ATOM     27  C   UNL     1      -3.613  16.620  -1.006  0.00  0.00    +0.001 A 
ATOM     28  C   UNL     1      -4.820  16.135  -1.475  0.00  0.00    +0.021 A 
ATOM     29  C   UNL     1      -5.110  14.787  -1.379  0.00  0.00    +0.053 A 
ATOM     30 CL   UNL     1      -6.626  14.179  -1.967  0.00  0.00    -0.083 Cl
ENDBRANCH  21  24
ENDBRANCH  19  20
BRANCH  19  32
ATOM     31  C   UNL     1      -6.039  10.660   1.136  0.00  0.00    +0.009 C 
ATOM     32  C   UNL     1      -4.689   9.946   1.232  0.00  0.00    +0.012 C 
ATOM     33  C   UNL     1      -4.918   8.441   1.393  0.00  0.00    +0.009 C 
ENDBRANCH  19  32
ENDBRANCH   1  19
TORSDOF 7
