REMARK  Name = ZINC06601391
REMARK  16 active torsions:
REMARK  status: ('A' for Active; 'I' for Inactive)
REMARK    1  A    between atoms: C_1  and  C_2
REMARK    2  A    between atoms: C_2  and  O_3
REMARK    3  A    between atoms: O_3  and  C_4
REMARK    4  A    between atoms: C_7  and  C_10
REMARK    5  A    between atoms: C_10  and  C_12
REMARK    6  A    between atoms: C_10  and  N_20
REMARK    7  A    between atoms: N_14  and  C_15
REMARK    8  A    between atoms: C_15  and  C_16
REMARK    9  A    between atoms: C_16  and  C_17
REMARK   10  A    between atoms: C_17  and  C_18
REMARK   11  A    between atoms: C_17  and  C_19
REMARK   12  A    between atoms: N_20  and  C_21
REMARK   13  A    between atoms: C_24  and  C_27
REMARK   14  A    between atoms: C_28  and  C_30
REMARK   15  A    between atoms: C_31  and  N_38
REMARK   16  A    between atoms: C_32  and  C_35
REMARK                            x       y       z     vdW  Elec       q    Type
REMARK                         _______ _______ _______ _____ _____    ______ ____
ROOT
ATOM      1  N   UNL     1       3.279   1.715   0.793  0.00  0.00    -0.251 N 
ATOM      2  C   UNL     1       4.290   1.042   1.379  0.00  0.00    +0.262 C 
ATOM      3  O   UNL     1       4.721   0.025   0.868  0.00  0.00    -0.269 OA
ENDROOT
BRANCH   1   4
ATOM      4  C   UNL     1       2.704   2.813   1.440  0.00  0.00    +0.038 A 
ATOM      5  C   UNL     1       3.083   4.103   1.091  0.00  0.00    +0.024 A 
ATOM      6  C   UNL     1       2.508   5.186   1.727  0.00  0.00    +0.005 A 
ATOM      7  C   UNL     1       1.565   4.987   2.718  0.00  0.00    -0.050 A 
ATOM      8  C   UNL     1       1.189   3.704   3.071  0.00  0.00    +0.005 A 
ATOM      9  C   UNL     1       1.755   2.616   2.435  0.00  0.00    +0.024 A 
ATOM     10  C   UNL     1       0.944   6.170   3.414  0.00  0.00    +0.044 C 
ENDBRANCH   1   4
BRANCH   2  11
ATOM     11  C   UNL     1       4.869   1.535   2.630  0.00  0.00    +0.116 A 
ATOM     12  C   UNL     1       5.854   0.960   3.436  0.00  0.00    +0.076 A 
ATOM     13  C   UNL     1       6.146   1.736   4.558  0.00  0.00    +0.155 A 
ATOM     14  N   UNL     1       5.504   2.869   4.741  0.00  0.00    -0.203 NA
ATOM     15  S   UNL     1       4.512   3.031   3.527  0.00  0.00    +0.019 S 
BRANCH  13  16
ATOM     16  C   UNL     1       7.162   1.290   5.528  0.00  0.00    +0.262 C 
ATOM     17  O   UNL     1       7.752   0.241   5.353  0.00  0.00    -0.269 OA
ATOM     18  N   UNL     1       7.438   2.046   6.610  0.00  0.00    -0.324 N 
ATOM     19  H   UNL     1       6.968   2.882   6.750  0.00  0.00    +0.145 HD
ATOM     20  H   UNL     1       8.107   1.752   7.248  0.00  0.00    +0.145 HD
ENDBRANCH  13  16
BRANCH  12  21
ATOM     21  N   UNL     1       6.474  -0.249   3.152  0.00  0.00    -0.355 N 
ATOM     22  H   UNL     1       6.229  -0.745   2.355  0.00  0.00    +0.142 HD
ATOM     23  H   UNL     1       7.153  -0.598   3.751  0.00  0.00    +0.142 HD
ENDBRANCH  12  21
ENDBRANCH   2  11
BRANCH   1  24
ATOM     24  C   UNL     1       2.784   1.295  -0.520  0.00  0.00    +0.197 C 
BRANCH  24  28
ATOM     25  C   UNL     1      -1.447   0.730  -0.333  0.00  0.00    +0.121 A 
ATOM     26  C   UNL     1      -0.602  -0.368  -0.409  0.00  0.00    +0.046 A 
ATOM     27  C   UNL     1       0.765  -0.182  -0.464  0.00  0.00    +0.009 A 
ATOM     28  C   UNL     1       1.292   1.096  -0.454  0.00  0.00    -0.018 A 
ATOM     29  C   UNL     1       0.452   2.192  -0.385  0.00  0.00    +0.009 A 
ATOM     30  C   UNL     1      -0.916   2.012  -0.324  0.00  0.00    +0.046 A 
BRANCH  25  31
ATOM     31  O   UNL     1      -2.793   0.550  -0.275  0.00  0.00    -0.492 OA
BRANCH  31  33
ATOM     32  C   UNL     1      -4.797  -0.799  -0.216  0.00  0.00    +0.048 C 
ATOM     33  C   UNL     1      -3.269  -0.797  -0.288  0.00  0.00    +0.225 C 
ENDBRANCH  31  33
ENDBRANCH  25  31
ENDBRANCH  24  28
BRANCH  24  34
ATOM     34  C   UNL     1       3.105   2.357  -1.540  0.00  0.00    +0.238 C 
ATOM     35  O   UNL     1       3.689   3.365  -1.203  0.00  0.00    -0.273 OA
ATOM     36  N   UNL     1       2.742   2.187  -2.827  0.00  0.00    -0.313 N 
ATOM     37  H   UNL     1       2.275   1.381  -3.096  0.00  0.00    +0.149 HD
BRANCH  36  38
ATOM     38  C   UNL     1       3.054   3.219  -3.819  0.00  0.00    +0.104 C 
BRANCH  38  39
ATOM     39  C   UNL     1       2.537   2.781  -5.191  0.00  0.00    +0.022 C 
BRANCH  39  40
ATOM     40  C   UNL     1       2.862   3.859  -6.226  0.00  0.00    -0.016 C 
ATOM     41  C   UNL     1       4.379   3.974  -6.383  0.00  0.00    +0.007 C 
ATOM     42  C   UNL     1       2.237   3.480  -7.571  0.00  0.00    +0.007 C 
ENDBRANCH  39  40
ENDBRANCH  38  39
ENDBRANCH  36  38
ENDBRANCH  24  34
ENDBRANCH   1  24
TORSDOF 12
