REMARK  Name = ZINC04923836
REMARK  9 active torsions:
REMARK  status: ('A' for Active; 'I' for Inactive)
REMARK    1  A    between atoms: C_1  and  C_2
REMARK    2  A    between atoms: C_6  and  C_9
REMARK    3  A    between atoms: C_7  and  O_8
REMARK    4  A    between atoms: C_9  and  O_11
REMARK    5  A    between atoms: O_11  and  C_12
REMARK    6  A    between atoms: C_12  and  C_13
REMARK    7  A    between atoms: N_15  and  C_16
REMARK    8  A    between atoms: C_21  and  C_26
REMARK    9  A    between atoms: C_23  and  C_25
REMARK                            x       y       z     vdW  Elec       q    Type
REMARK                         _______ _______ _______ _____ _____    ______ ____
ROOT
ATOM      1  C   UNL     1       1.059   1.502  -4.879  0.00  0.00    +0.328 C 
ENDROOT
BRANCH   1   2
ATOM      2  C   UNL     1       1.888   1.897  -6.075  0.00  0.00    +0.251 C 
ATOM      3  O   UNL     1       2.980   2.400  -5.916  0.00  0.00    -0.272 OA
ATOM      4  N   UNL     1       1.416   1.690  -7.320  0.00  0.00    -0.309 N 
ATOM      5  H   UNL     1       0.542   1.287  -7.447  0.00  0.00    +0.149 HD
BRANCH   4   6
ATOM      6  C   UNL     1       2.221   2.073  -8.482  0.00  0.00    +0.076 C 
ATOM      7  C   UNL     1       3.196   0.944  -8.822  0.00  0.00    +0.022 C 
ATOM      8  C   UNL     1       4.037   1.344 -10.036  0.00  0.00    +0.002 C 
ATOM      9  C   UNL     1       3.117   1.602 -11.231  0.00  0.00    +0.003 C 
ATOM     10  C   UNL     1       2.143   2.731 -10.891  0.00  0.00    -0.009 C 
ATOM     11  C   UNL     1       1.302   2.331  -9.677  0.00  0.00    +0.009 C 
ATOM     12  C   UNL     1       0.327   3.461  -9.337  0.00  0.00    +0.009 C 
ATOM     13  C   UNL     1       1.224   2.989 -12.086  0.00  0.00    +0.008 C 
ENDBRANCH   4   6
ENDBRANCH   1   2
BRANCH   1  14
ATOM     14  O   UNL     1       1.782   1.825  -3.662  0.00  0.00    -0.452 OA
BRANCH  14  15
ATOM     15  C   UNL     1       1.175   1.534  -2.495  0.00  0.00    +0.343 C 
ATOM     16  O   UNL     1       0.072   1.024  -2.494  0.00  0.00    -0.245 OA
BRANCH  15  22
ATOM     17  C   UNL     1       1.190   1.506   2.505  0.00  0.00    +0.047 C 
ATOM     18  C   UNL     1       1.862   1.822   1.193  0.00  0.00    -0.008 A 
ATOM     19  C   UNL     1       3.118   2.397   1.183  0.00  0.00    +0.007 A 
ATOM     20  C   UNL     1       3.741   2.696  -0.017  0.00  0.00    +0.001 A 
ATOM     21  C   UNL     1       3.117   2.419  -1.214  0.00  0.00    +0.018 A 
ATOM     22  C   UNL     1       1.848   1.833  -1.218  0.00  0.00    +0.101 A 
ATOM     23  C   UNL     1       1.220   1.531  -0.001  0.00  0.00    +0.134 A 
BRANCH  23  24
ATOM     24  O   UNL     1      -0.011   0.963   0.007  0.00  0.00    -0.506 OA
ATOM     25  H   UNL     1       0.002  -0.004   0.002  0.00  0.00    +0.292 HD
ENDBRANCH  23  24
ENDBRANCH  15  22
ENDBRANCH  14  15
ENDBRANCH   1  14
TORSDOF 6
