REMARK  Name = ZINC39664817
REMARK  10 active torsions:
REMARK  status: ('A' for Active; 'I' for Inactive)
REMARK    1  A    between atoms: C_1  and  N_2
REMARK    2  A    between atoms: N_2  and  C_3
REMARK    3  A    between atoms: N_2  and  C_4
REMARK    4  A    between atoms: C_4  and  C_5
REMARK    5  A    between atoms: C_5  and  C_7
REMARK    6  A    between atoms: C_5  and  N_13
REMARK    7  A    between atoms: C_14  and  C_16
REMARK    8  A    between atoms: C_27  and  C_29
REMARK    9  A    between atoms: C_33  and  O_34
REMARK   10  A    between atoms: O_34  and  C_35
REMARK                            x       y       z     vdW  Elec       q    Type
REMARK                         _______ _______ _______ _____ _____    ______ ____
ROOT
ATOM      1  C   UNL     1       0.044   5.497   1.555  0.00  0.00    +0.100 C 
ATOM      2  C   UNL     1       0.923   5.265   0.306  0.00  0.00    +0.121 C 
ATOM      3  N   UNL     1      -0.023   4.804  -0.738  0.00  0.00    -0.296 N 
ATOM      4  C   UNL     1      -1.234   5.633  -0.529  0.00  0.00    +0.115 C 
ATOM      5  C   UNL     1      -1.370   5.742   1.003  0.00  0.00    -0.004 C 
ATOM      6  C   UNL     1      -1.856   7.135   1.393  0.00  0.00    -0.010 C 
ATOM      7  C   UNL     1      -3.286   7.333   0.883  0.00  0.00    -0.082 C 
ATOM      8  N   UNL     1      -4.161   6.308   1.463  0.00  0.00    +0.379 N 
ATOM      9  C   UNL     1      -3.743   4.977   1.008  0.00  0.00    -0.082 C 
ATOM     10  C   UNL     1      -2.333   4.678   1.523  0.00  0.00    -0.010 C 
ATOM     11  C   UNL     1       0.173   3.848  -1.667  0.00  0.00    +0.251 C 
ATOM     12  O   UNL     1      -0.720   3.558  -2.439  0.00  0.00    -0.270 OA
ATOM     13  H   UNL     1      -4.106   6.351   2.470  0.00  0.00    -0.086 HD
ATOM     14  H   UNL     1      -5.113   6.477   1.174  0.00  0.00    -0.086 HD
ENDROOT
BRANCH  11  15
ATOM     15  C   UNL     1       1.468   3.155  -1.746  0.00  0.00    +0.087 A 
ATOM     16  C   UNL     1       2.094   2.663  -0.621  0.00  0.00    +0.063 A 
ATOM     17  S   UNL     1       3.508   1.973  -1.203  0.00  0.00    -0.081 S 
ATOM     18  C   UNL     1       3.327   2.306  -2.941  0.00  0.00    +0.120 A 
ATOM     19  C   UNL     1       2.141   2.952  -3.009  0.00  0.00    +0.158 A 
ATOM     20 CL   UNL     1       4.407   1.894  -4.237  0.00  0.00    -0.072 Cl
BRANCH  19  21
ATOM     21  O   UNL     1       1.619   3.388  -4.188  0.00  0.00    -0.492 OA
ATOM     22  C   UNL     1       1.973   4.707  -4.607  0.00  0.00    +0.277 C 
ENDBRANCH  19  21
ENDBRANCH  11  15
BRANCH   1  24
ATOM     23  N   UNL     1      -0.268   4.386   3.743  0.00  0.00    -0.310 N 
ATOM     24  C   UNL     1       0.057   4.277   2.440  0.00  0.00    +0.219 C 
ATOM     25  O   UNL     1       0.361   3.197   1.979  0.00  0.00    -0.275 OA
ATOM     26  H   UNL     1      -0.578   5.235   4.096  0.00  0.00    +0.149 HD
BRANCH  23  27
ATOM     27  C   UNL     1      -0.153   3.224   4.627  0.00  0.00    +0.087 C 
BRANCH  27  28
ATOM     28  C   UNL     1      -1.010   3.435   5.849  0.00  0.00    -0.029 A 
ATOM     29  C   UNL     1      -1.073   4.682   6.441  0.00  0.00    +0.005 A 
ATOM     30  C   UNL     1      -1.858   4.876   7.562  0.00  0.00    +0.000 A 
ATOM     31  C   UNL     1      -2.581   3.823   8.091  0.00  0.00    +0.000 A 
ATOM     32  C   UNL     1      -2.518   2.575   7.497  0.00  0.00    +0.000 A 
ATOM     33  C   UNL     1      -1.736   2.383   6.374  0.00  0.00    +0.005 A 
ENDBRANCH  27  28
BRANCH  27  34
ATOM     34  C   UNL     1       1.306   3.047   5.051  0.00  0.00    -0.052 C 
BRANCH  34  36
ATOM     35  C   UNL     1       1.200   0.655   4.909  0.00  0.00    -0.097 C 
ATOM     36  N   UNL     1       1.449   1.794   5.803  0.00  0.00    +0.377 N 
ATOM     37  C   UNL     1       2.811   1.701   6.346  0.00  0.00    -0.097 C 
ATOM     38  H   UNL     1       0.784   1.778   6.561  0.00  0.00    -0.083 HD
ENDBRANCH  34  36
ENDBRANCH  27  34
ENDBRANCH  23  27
ENDBRANCH   1  24
TORSDOF 7
