REMARK  Name = ZINC20757699
REMARK  13 active torsions:
REMARK  status: ('A' for Active; 'I' for Inactive)
REMARK    1  A    between atoms: CD1_1  and  CG1_2
REMARK    2  A    between atoms: CG1_2  and  CB_3
REMARK    3  A    between atoms: CB_3  and  CG2_5
REMARK    4  A    between atoms: CB_3  and  CA_6
REMARK    5  A    between atoms: CA_6  and  C_8
REMARK    6  A    between atoms: CA_6  and  N_17
REMARK    7  A    between atoms: N_10  and  CA_11
REMARK    8  A    between atoms: CA_11  and  CB_13
REMARK    9  A    between atoms: CA_11  and  C_14
REMARK   10  A    between atoms: C_18  and  C_20
REMARK   11  A    between atoms: C_20  and  C_22
REMARK   12  A    between atoms: C_20  and  N_29
REMARK   13  A    between atoms: C_22  and  C_23
REMARK                            x       y       z     vdW  Elec       q    Type
REMARK                         _______ _______ _______ _____ _____    ______ ____
ROOT
ATOM      1  C   UNK A   0      -4.128   1.931  -5.284  0.00  0.00    +0.185 C 
ENDROOT
BRANCH   1   2
ATOM      2  N   UNK A   0      -4.170   2.557  -6.608  0.00  0.00    -0.248 N 
ATOM      3  C   UNK A   0      -3.963   1.799  -7.707  0.00  0.00    +0.265 A 
ATOM      4  O   UNK A   0      -3.744   0.607  -7.610  0.00  0.00    -0.267 OA
ATOM      5  C   UNK A   0      -4.014   2.454  -9.026  0.00  0.00    +0.063 A 
ATOM      6  C   UNK A   0      -3.815   1.741 -10.206  0.00  0.00    +0.015 A 
ATOM      7  C   UNK A   0      -3.869   2.400 -11.416  0.00  0.00    +0.001 A 
ATOM      8  C   UNK A   0      -4.119   3.763 -11.461  0.00  0.00    +0.002 A 
ATOM      9  C   UNK A   0      -4.316   4.482 -10.299  0.00  0.00    +0.026 A 
ATOM     10  C   UNK A   0      -4.266   3.836  -9.074  0.00  0.00    +0.056 A 
ATOM     11  N   UNK A   0      -4.460   4.521  -7.883  0.00  0.00    -0.307 N 
ATOM     12  H   UNK A   0      -4.659   5.602  -7.896  0.00  0.00    +0.170 HD
ATOM     13  C   UNK A   0      -4.407   3.875  -6.705  0.00  0.00    +0.330 A 
ATOM     14  O   UNK A   0      -4.581   4.511  -5.684  0.00  0.00    -0.246 OA
ENDBRANCH   1   2
BRANCH   1  16
ATOM     15  N   ALA A   1      -2.656   1.972  -3.297  0.00  0.00    -0.302 N 
ATOM     16  C   UNK A   0      -2.978   2.500  -4.495  0.00  0.00    +0.237 C 
ATOM     17  O   UNK A   0      -2.342   3.433  -4.937  0.00  0.00    -0.274 OA
ATOM     18  H   ALA A   1      -3.176   1.073  -2.934  0.00  0.00    +0.150 HD
BRANCH  15  19
ATOM     19  CA  ALA A   1      -1.614   2.595  -2.478  0.00  0.00    +0.162 C 
BRANCH  19  20
ATOM     20  C   ALA A   1      -0.849   1.527  -1.740  0.00  0.00    +0.234 C 
ATOM     21  O   ALA A   1      -1.207   0.370  -1.805  0.00  0.00    -0.274 OA
ATOM     22  N   ALA A   1       0.232   1.857  -1.006  0.00  0.00    -0.301 N 
ATOM     23  H   ALA A   1       0.597   2.895  -1.000  0.00  0.00    +0.150 HD
BRANCH  22  24
ATOM     24  CA  ALA A   1       0.923   0.834  -0.217  0.00  0.00    +0.183 C 
ATOM     25  CB  ALA A   1       0.231   0.683   1.139  0.00  0.00    +0.040 C 
BRANCH  24  26
ATOM     26  C   ALA A   1       2.357   1.245  -0.007  0.00  0.00    +0.376 C 
ATOM     27  O   ALA A   1       2.761   2.286  -0.468  0.00  0.00    -0.244 OA
ATOM     28  OXT ALA A   1       3.186   0.455   0.694  0.00  0.00    -0.244 OA
ENDBRANCH  24  26
ENDBRANCH  22  24
ENDBRANCH  19  20
BRANCH  19  29
ATOM     29  CB  ALA A   1      -2.259   3.549  -1.471  0.00  0.00    +0.015 C 
ATOM     30  CG2 ALA A   1      -2.883   4.731  -2.215  0.00  0.00    +0.010 C 
BRANCH  29  32
ATOM     31  CD1 ALA A   1      -2.699   1.744   0.200  0.00  0.00    +0.004 C 
ATOM     32  CG1 ALA A   1      -3.346   2.808  -0.690  0.00  0.00    +0.002 C 
ENDBRANCH  29  32
ENDBRANCH  19  29
ENDBRANCH  15  19
ENDBRANCH   1  16
BRANCH   1  33
ATOM     33  C   UNK A   0      -5.440   2.208  -4.547  0.00  0.00    +0.070 C 
BRANCH  33  34
ATOM     34  C   UNK A   0      -6.576   1.534  -5.272  0.00  0.00    -0.045 A 
ATOM     35  C   UNK A   0      -7.264   2.212  -6.262  0.00  0.00    +0.004 A 
ATOM     36  C   UNK A   0      -8.303   1.592  -6.930  0.00  0.00    +0.000 A 
ATOM     37  C   UNK A   0      -8.661   0.298  -6.602  0.00  0.00    +0.000 A 
ATOM     38  C   UNK A   0      -7.977  -0.378  -5.609  0.00  0.00    +0.000 A 
ATOM     39  C   UNK A   0      -6.935   0.240  -4.944  0.00  0.00    +0.004 A 
ENDBRANCH  33  34
ENDBRANCH   1  33
TORSDOF 10
