REMARK  Name = ZINC54550954
REMARK  6 active torsions:
REMARK  status: ('A' for Active; 'I' for Inactive)
REMARK    1  A    between atoms: C_1  and  C_2
REMARK    2  A    between atoms: C_10  and  N_29
REMARK    3  A    between atoms: C_11  and  N_15
REMARK    4  A    between atoms: N_18  and  C_21
REMARK    5  A    between atoms: C_25  and  C_28
REMARK    6  A    between atoms: C_26  and  C_27
REMARK                            x       y       z     vdW  Elec       q    Type
REMARK                         _______ _______ _______ _____ _____    ______ ____
ROOT
ATOM      1  C   UNL     1       1.988   1.524  -2.143  0.00  0.00    +0.045 C 
ATOM      2  C   UNL     1       2.130   0.024  -2.161  0.00  0.00    -0.032 A 
ATOM      3  C   UNL     1       3.390  -0.561  -2.170  0.00  0.00    +0.008 A 
ATOM      4  C   UNL     1       3.477  -1.941  -2.186  0.00  0.00    +0.044 A 
ATOM      5  C   UNL     1       2.306  -2.692  -2.193  0.00  0.00    +0.124 A 
ATOM      6  N   UNL     1       1.123  -2.097  -2.184  0.00  0.00    -0.240 NA
ATOM      7  C   UNL     1       1.010  -0.782  -2.163  0.00  0.00    +0.116 A 
ATOM      8  N   UNL     1       2.378  -4.082  -2.209  0.00  0.00    -0.283 N 
ATOM      9  C   UNL     1       1.216  -4.840  -2.106  0.00  0.00    +0.150 A 
ATOM     10  C   UNL     1       1.284  -6.231  -2.015  0.00  0.00    +0.106 A 
ATOM     11  C   UNL     1       0.088  -6.944  -1.913  0.00  0.00    +0.147 A 
ATOM     12  N   UNL     1      -1.063  -6.275  -1.907  0.00  0.00    -0.219 NA
ATOM     13  C   UNL     1      -1.082  -4.961  -1.995  0.00  0.00    +0.225 A 
ATOM     14  N   UNL     1       0.024  -4.250  -2.087  0.00  0.00    -0.219 NA
ATOM     15  H   UNL     1       3.239  -4.521  -2.293  0.00  0.00    +0.155 HD
ENDROOT
BRANCH  11  16
ATOM     16  N   UNL     1       0.098  -8.331  -1.821  0.00  0.00    -0.311 N 
ATOM     17  C   UNL     1       0.262  -8.992  -0.518  0.00  0.00    +0.125 C 
ATOM     18  C   UNL     1      -0.915  -9.951  -0.305  0.00  0.00    +0.124 C 
ATOM     19  N   UNL     1      -1.068 -10.783  -1.507  0.00  0.00    -0.327 N 
ATOM     20  C   UNL     1      -1.232 -10.121  -2.809  0.00  0.00    +0.124 C 
ATOM     21  C   UNL     1      -0.060  -9.162  -3.022  0.00  0.00    +0.125 C 
BRANCH  19  22
ATOM     22  C   UNL     1      -1.057 -12.176  -1.414  0.00  0.00    +0.033 A 
ATOM     23  C   UNL     1      -2.246 -12.870  -1.222  0.00  0.00    +0.023 A 
ATOM     24  C   UNL     1      -2.232 -14.248  -1.131  0.00  0.00    +0.002 A 
ATOM     25  C   UNL     1      -1.036 -14.937  -1.230  0.00  0.00    +0.004 A 
ATOM     26  C   UNL     1       0.148 -14.249  -1.420  0.00  0.00    -0.046 A 
ATOM     27  C   UNL     1       0.140 -12.872  -1.518  0.00  0.00    -0.027 A 
ATOM     28  C   UNL     1       1.431 -12.124  -1.732  0.00  0.00    +0.046 C 
ATOM     29  C   UNL     1       1.448 -15.004  -1.525  0.00  0.00    +0.044 C 
ENDBRANCH  19  22
ENDBRANCH  11  16
BRANCH  10  30
ATOM     30  N   UNL     1       2.521  -6.896  -2.026  0.00  0.00    -0.353 N 
ATOM     31  H   UNL     1       3.346  -6.385  -2.023  0.00  0.00    +0.143 HD
ATOM     32  H   UNL     1       2.551  -7.865  -2.037  0.00  0.00    +0.143 HD
ENDBRANCH  10  30
TORSDOF 3
