REMARK  Name = ZINC02889114
REMARK  7 active torsions:
REMARK  status: ('A' for Active; 'I' for Inactive)
REMARK    1  A    between atoms: C_1  and  C_2
REMARK    2  A    between atoms: C_2  and  C_3
REMARK    3  A    between atoms: C_5  and  N_33
REMARK    4  A    between atoms: C_6  and  C_19
REMARK    5  A    between atoms: C_15  and  C_17
REMARK    6  A    between atoms: C_15  and  C_18
REMARK    7  A    between atoms: C_24  and  C_27
REMARK                            x       y       z     vdW  Elec       q    Type
REMARK                         _______ _______ _______ _____ _____    ______ ____
ROOT
ATOM      1  C   UNL     1      -0.865   1.983  -1.467  0.00  0.00    -0.024 A 
ATOM      2  C   UNL     1       0.228   1.391  -0.798  0.00  0.00    +0.033 A 
ATOM      3  C   UNL     1       1.369   2.041  -0.169  0.00  0.00    +0.054 A 
ATOM      4  C   UNL     1       2.319   1.250   0.437  0.00  0.00    +0.097 A 
ATOM      5  S   UNL     1       1.708  -0.404   0.179  0.00  0.00    -0.062 S 
ATOM      6  C   UNL     1       0.221  -0.023  -0.716  0.00  0.00    +0.111 A 
ATOM      7  N   UNL     1      -0.737  -0.763  -1.235  0.00  0.00    -0.244 NA
ATOM      8  C   UNL     1      -1.764  -0.234  -1.871  0.00  0.00    +0.054 A 
ATOM      9  C   UNL     1      -1.854   1.159  -2.001  0.00  0.00    +0.043 A 
ATOM     10  C   UNL     1      -3.003   1.763  -2.699  0.00  0.00    +0.166 C 
ATOM     11  O   UNL     1      -3.215   2.956  -2.644  0.00  0.00    -0.292 OA
ATOM     12  C   UNL     1      -3.911   0.841  -3.486  0.00  0.00    +0.086 C 
ATOM     13  C   UNL     1      -4.139  -0.415  -2.635  0.00  0.00    -0.022 C 
ATOM     14  C   UNL     1      -2.813  -1.147  -2.445  0.00  0.00    +0.063 C 
ATOM     15  C   UNL     1      -5.135  -1.337  -3.342  0.00  0.00    +0.011 C 
ATOM     16  C   UNL     1      -4.699  -0.012  -1.269  0.00  0.00    +0.011 C 
ENDROOT
BRANCH   4  17
ATOM     17  C   UNL     1       3.502   1.654   1.105  0.00  0.00    +0.259 C 
ATOM     18  O   UNL     1       3.777   2.837   1.194  0.00  0.00    -0.269 OA
ATOM     19  N   UNL     1       4.321   0.730   1.643  0.00  0.00    -0.250 N 
ATOM     20  C   UNL     1       5.486   1.128   2.302  0.00  0.00    +0.230 A 
ATOM     21  N   UNL     1       6.288   0.231   2.827  0.00  0.00    -0.205 NA
ATOM     22  C   UNL     1       7.388   0.644   3.446  0.00  0.00    +0.130 A 
ATOM     23  S   UNL     1       7.264   2.365   3.267  0.00  0.00    +0.035 S 
ATOM     24  N   UNL     1       5.791   2.407   2.395  0.00  0.00    -0.174 NA
ATOM     25  H   UNL     1       4.102  -0.213   1.573  0.00  0.00    +0.158 HD
BRANCH  22  26
ATOM     26  C   UNL     1       8.441  -0.153   4.113  0.00  0.00    +0.009 A 
ATOM     27  C   UNL     1       8.348  -1.544   4.151  0.00  0.00    +0.010 A 
ATOM     28  C   UNL     1       9.336  -2.282   4.769  0.00  0.00    +0.001 A 
ATOM     29  C   UNL     1      10.412  -1.644   5.361  0.00  0.00    +0.000 A 
ATOM     30  C   UNL     1      10.508  -0.264   5.331  0.00  0.00    +0.001 A 
ATOM     31  C   UNL     1       9.529   0.485   4.711  0.00  0.00    +0.010 A 
ENDBRANCH  22  26
ENDBRANCH   4  17
BRANCH   3  32
ATOM     32  N   UNL     1       1.495   3.422  -0.180  0.00  0.00    -0.356 N 
ATOM     33  H   UNL     1       0.703   3.982  -0.167  0.00  0.00    +0.142 HD
ATOM     34  H   UNL     1       2.376   3.828  -0.201  0.00  0.00    +0.142 HD
ENDBRANCH   3  32
BRANCH   1  36
ATOM     35  C   UNL     1      -1.724   4.060  -0.420  0.00  0.00    +0.009 C 
ATOM     36  C   UNL     1      -0.956   3.480  -1.609  0.00  0.00    +0.033 C 
ENDBRANCH   1  36
TORSDOF 4
