REMARK  Name = ZINC09243066
REMARK  11 active torsions:
REMARK  status: ('A' for Active; 'I' for Inactive)
REMARK    1  A    between atoms: C_1  and  C_2
REMARK    2  A    between atoms: C_2  and  O_3
REMARK    3  A    between atoms: O_3  and  C_4
REMARK    4  A    between atoms: C_6  and  C_11
REMARK    5  A    between atoms: C_9  and  O_10
REMARK    6  A    between atoms: C_14  and  C_29
REMARK    7  A    between atoms: N_21  and  C_22
REMARK    8  A    between atoms: C_22  and  C_23
REMARK    9  A    between atoms: C_31  and  C_37
REMARK   10  A    between atoms: C_33  and  C_36
REMARK   11  A    between atoms: C_34  and  O_35
REMARK                            x       y       z     vdW  Elec       q    Type
REMARK                         _______ _______ _______ _____ _____    ______ ____
ROOT
ATOM      1  C   UNL     1       0.150  -4.978  -0.012  0.00  0.00    +0.142 C 
ATOM      2  C   UNL     1       0.826  -5.312  -1.314  0.00  0.00    +0.035 A 
ATOM      3  C   UNL     1       1.452  -4.840  -2.472  0.00  0.00    +0.102 A 
ATOM      4  N   UNL     1       1.796  -5.891  -3.190  0.00  0.00    -0.173 NA
ATOM      5  N   UNL     1       1.449  -6.979  -2.600  0.00  0.00    -0.272 N 
ATOM      6  H   UNL     1       1.602  -7.873  -2.945  0.00  0.00    +0.189 HD
ATOM      7  C   UNL     1       0.834  -6.690  -1.415  0.00  0.00    +0.126 A 
ATOM      8  C   UNL     1       0.187  -7.249  -0.224  0.00  0.00    +0.266 C 
ATOM      9  O   UNL     1       0.035  -8.437  -0.009  0.00  0.00    -0.268 OA
ATOM     10  N   UNL     1      -0.214  -6.263   0.600  0.00  0.00    -0.281 N 
ENDROOT
BRANCH   3  11
ATOM     11  C   UNL     1       1.686  -3.418  -2.828  0.00  0.00    +0.044 A 
ATOM     12  C   UNL     1       1.402  -2.412  -1.908  0.00  0.00    +0.017 A 
ATOM     13  C   UNL     1       1.621  -1.091  -2.244  0.00  0.00    -0.049 A 
ATOM     14  C   UNL     1       2.122  -0.762  -3.491  0.00  0.00    +0.010 A 
ATOM     15  C   UNL     1       2.406  -1.754  -4.411  0.00  0.00    -0.008 A 
ATOM     16  C   UNL     1       2.197  -3.084  -4.085  0.00  0.00    +0.129 A 
ATOM     17  C   UNL     1       2.950  -1.387  -5.768  0.00  0.00    +0.047 C 
ATOM     18  C   UNL     1       1.313  -0.002  -1.248  0.00  0.00    +0.044 C 
BRANCH  16  19
ATOM     19  O   UNL     1       2.482  -4.060  -4.986  0.00  0.00    -0.506 OA
ATOM     20  H   UNL     1       1.743  -4.287  -5.567  0.00  0.00    +0.292 HD
ENDBRANCH  16  19
ENDBRANCH   3  11
BRANCH   1  23
ATOM     21  C   UNL     1      -3.261  -3.925  -1.248  0.00  0.00    +0.162 A 
ATOM     22  C   UNL     1      -2.123  -4.681  -1.014  0.00  0.00    +0.055 A 
ATOM     23  C   UNL     1      -1.087  -4.155  -0.265  0.00  0.00    -0.019 A 
ATOM     24  C   UNL     1      -1.183  -2.877   0.252  0.00  0.00    +0.009 A 
ATOM     25  C   UNL     1      -2.316  -2.118   0.023  0.00  0.00    +0.049 A 
ATOM     26  C   UNL     1      -3.355  -2.637  -0.732  0.00  0.00    +0.158 A 
BRANCH  26  27
ATOM     27  O   UNL     1      -4.468  -1.889  -0.964  0.00  0.00    -0.503 OA
ATOM     28  H   UNL     1      -5.159  -1.995  -0.295  0.00  0.00    +0.292 HD
ENDBRANCH  26  27
BRANCH  21  29
ATOM     29  O   UNL     1      -4.281  -4.441  -1.985  0.00  0.00    -0.489 OA
BRANCH  29  31
ATOM     30  C   UNL     1      -5.327  -6.147  -3.339  0.00  0.00    +0.048 C 
ATOM     31  C   UNL     1      -4.066  -5.719  -2.586  0.00  0.00    +0.226 C 
ENDBRANCH  29  31
ENDBRANCH  21  29
ENDBRANCH   1  23
BRANCH  10  32
ATOM     32  C   UNL     1      -0.896  -6.439   1.885  0.00  0.00    +0.144 C 
BRANCH  32  33
ATOM     33  C   UNL     1      -2.386  -6.458   1.664  0.00  0.00    -0.030 A 
ATOM     34  C   UNL     1      -3.106  -5.278   1.700  0.00  0.00    +0.005 A 
ATOM     35  C   UNL     1      -4.473  -5.296   1.497  0.00  0.00    +0.000 A 
ATOM     36  C   UNL     1      -5.121  -6.494   1.258  0.00  0.00    +0.000 A 
ATOM     37  C   UNL     1      -4.401  -7.673   1.220  0.00  0.00    +0.000 A 
ATOM     38  C   UNL     1      -3.033  -7.655   1.419  0.00  0.00    +0.005 A 
ENDBRANCH  32  33
ENDBRANCH  10  32
TORSDOF 8
