REMARK  Name = ZINC12233007
REMARK  6 active torsions:
REMARK  status: ('A' for Active; 'I' for Inactive)
REMARK    1  A    between atoms: C_4  and  N_7
REMARK    2  A    between atoms: C_19  and  C_21
REMARK    3  A    between atoms: C_21  and  C_22
REMARK    4  A    between atoms: N_24  and  C_25
REMARK    5  A    between atoms: C_25  and  C_26
REMARK    6  A    between atoms: C_26  and  C_27
REMARK                            x       y       z     vdW  Elec       q    Type
REMARK                         _______ _______ _______ _____ _____    ______ ____
ROOT
ATOM      1  N   UNL     1      -6.202   7.851   0.879  0.00  0.00    -0.214 N 
ATOM      2  C   UNL     1      -6.019   6.550   0.519  0.00  0.00    +0.171 A 
ATOM      3  C   UNL     1      -5.104   6.001   1.433  0.00  0.00    +0.103 A 
ATOM      4  C   UNL     1      -4.767   7.026   2.343  0.00  0.00    +0.150 A 
ATOM      5  N   UNL     1      -5.414   8.107   2.008  0.00  0.00    -0.172 NA
ATOM      6  C   UNL     1      -4.726   4.649   1.289  0.00  0.00    +0.266 A 
ATOM      7  O   UNL     1      -3.935   4.150   2.070  0.00  0.00    -0.267 OA
ATOM      8  N   UNL     1      -5.249   3.898   0.266  0.00  0.00    -0.283 N 
ATOM      9  C   UNL     1      -6.129   4.514  -0.577  0.00  0.00    +0.174 A 
ATOM     10  N   UNL     1      -6.500   5.769  -0.454  0.00  0.00    -0.203 NA
ATOM     11  S   UNL     1      -6.624   3.298  -1.780  0.00  0.00    -0.085 S 
ATOM     12  C   UNL     1      -5.642   1.873  -1.183  0.00  0.00    +0.103 C 
ATOM     13  C   UNL     1      -4.926   2.493   0.026  0.00  0.00    +0.112 C 
ENDROOT
BRANCH   1  17
ATOM     14  C   UNL     1      -8.678  10.595  -1.046  0.00  0.00    +0.000 A 
ATOM     15  C   UNL     1      -8.531  10.644   0.328  0.00  0.00    +0.002 A 
ATOM     16  C   UNL     1      -7.711   9.736   0.969  0.00  0.00    +0.028 A 
ATOM     17  C   UNL     1      -7.034   8.773   0.232  0.00  0.00    +0.068 A 
ATOM     18  C   UNL     1      -7.180   8.729  -1.148  0.00  0.00    +0.028 A 
ATOM     19  C   UNL     1      -8.005   9.637  -1.783  0.00  0.00    +0.002 A 
ENDBRANCH   1  17
BRANCH  13  20
ATOM     20  C   UNL     1      -5.297   1.689   1.274  0.00  0.00    +0.121 C 
BRANCH  20  21
ATOM     21  C   UNL     1      -4.836   0.264   1.109  0.00  0.00    +0.215 C 
ATOM     22  O   UNL     1      -4.172  -0.051   0.144  0.00  0.00    -0.276 OA
ATOM     23  N   UNL     1      -5.161  -0.661   2.034  0.00  0.00    -0.315 N 
ATOM     24  H   UNL     1      -5.692  -0.409   2.806  0.00  0.00    +0.149 HD
BRANCH  23  25
ATOM     25  C   UNL     1      -4.713  -2.046   1.875  0.00  0.00    +0.108 C 
BRANCH  25  26
ATOM     26  C   UNL     1      -5.214  -2.884   3.053  0.00  0.00    +0.049 C 
BRANCH  26  27
ATOM     27  C   UNL     1      -4.753  -4.309   2.888  0.00  0.00    -0.072 C 
ATOM     28  C   UNL     1      -3.658  -4.664   3.479  0.00  0.00    -0.028 C 
ATOM     29  C   UNL     1      -3.071  -6.044   3.404  0.00  0.00    +0.027 C 
ATOM     30  C   UNL     1      -4.122  -7.038   2.906  0.00  0.00    +0.004 C 
ATOM     31  C   UNL     1      -4.778  -6.461   1.646  0.00  0.00    +0.005 C 
ATOM     32  C   UNL     1      -5.589  -5.226   2.045  0.00  0.00    +0.030 C 
ENDBRANCH  26  27
ENDBRANCH  25  26
ENDBRANCH  23  25
ENDBRANCH  20  21
ENDBRANCH  13  20
TORSDOF 6
