REMARK  Name = ZINC40701623
REMARK  7 active torsions:
REMARK  status: ('A' for Active; 'I' for Inactive)
REMARK    1  A    between atoms: C_1  and  C_2
REMARK    2  A    between atoms: C_2  and  O_3
REMARK    3  A    between atoms: O_3  and  C_4
REMARK    4  A    between atoms: C_5  and  N_19
REMARK    5  A    between atoms: C_6  and  N_10
REMARK    6  A    between atoms: N_10  and  C_11
REMARK    7  A    between atoms: C_16  and  C_17
REMARK                            x       y       z     vdW  Elec       q    Type
REMARK                         _______ _______ _______ _____ _____    ______ ____
ROOT
ATOM      1  C   UNL     1       0.807  -1.806  -1.320  0.00  0.00    +0.241 A 
ATOM      2  C   UNL     1       1.445  -2.336  -2.441  0.00  0.00    +0.128 A 
ATOM      3  C   UNL     1       1.508  -3.726  -2.569  0.00  0.00    +0.151 A 
ATOM      4  N   UNL     1       0.960  -4.485  -1.623  0.00  0.00    -0.218 NA
ATOM      5  C   UNL     1       0.367  -3.943  -0.579  0.00  0.00    +0.227 A 
ATOM      6  N   UNL     1       0.291  -2.637  -0.419  0.00  0.00    -0.200 NA
ENDROOT
BRANCH   2   7
ATOM      7  N   UNL     1       2.008  -1.496  -3.414  0.00  0.00    -0.351 N 
ATOM      8  H   UNL     1       1.956  -0.533  -3.312  0.00  0.00    +0.143 HD
ATOM      9  H   UNL     1       2.449  -1.879  -4.189  0.00  0.00    +0.143 HD
ENDBRANCH   2   7
BRANCH   3  10
ATOM     10  N   UNL     1       2.132  -4.306  -3.667  0.00  0.00    -0.298 N 
ATOM     11  H   UNL     1       2.451  -3.749  -4.394  0.00  0.00    +0.154 HD
BRANCH  10  12
ATOM     12  C   UNL     1       2.299  -5.693  -3.724  0.00  0.00    +0.037 A 
ATOM     13  C   UNL     1       2.335  -6.438  -2.552  0.00  0.00    +0.023 A 
ATOM     14  C   UNL     1       2.501  -7.808  -2.611  0.00  0.00    +0.003 A 
ATOM     15  C   UNL     1       2.631  -8.438  -3.834  0.00  0.00    +0.020 A 
ATOM     16  C   UNL     1       2.595  -7.699  -5.004  0.00  0.00    +0.046 A 
ATOM     17  C   UNL     1       2.423  -6.329  -4.952  0.00  0.00    -0.011 A 
ATOM     18  C   UNL     1       2.377  -5.525  -6.226  0.00  0.00    +0.047 C 
ATOM     19 CL   UNL     1       2.760  -8.495  -6.538  0.00  0.00    -0.083 Cl
ENDBRANCH  10  12
ENDBRANCH   3  10
BRANCH   1  20
ATOM     20  O   UNL     1       0.719  -0.463  -1.149  0.00  0.00    -0.475 OA
BRANCH  20  22
ATOM     21  C   UNL     1       0.054   1.528   0.049  0.00  0.00    +0.048 C 
ATOM     22  C   UNL     1       0.055  -0.002   0.030  0.00  0.00    +0.227 C 
ENDBRANCH  20  22
ENDBRANCH   1  20
TORSDOF 5
