REMARK  Name = ZINC08015913
REMARK  5 active torsions:
REMARK  status: ('A' for Active; 'I' for Inactive)
REMARK    1  A    between atoms: C_1  and  C_2
REMARK    2  A    between atoms: C_5  and  C_7
REMARK    3  A    between atoms: C_8  and  C_9
REMARK    4  A    between atoms: N_11  and  C_12
REMARK    5  A    between atoms: C_21  and  C_24
REMARK                            x       y       z     vdW  Elec       q    Type
REMARK                         _______ _______ _______ _____ _____    ______ ____
ROOT
ATOM      1  C   UNL     1      -5.813  -1.743   0.140  0.00  0.00    +0.036 A 
ATOM      2  C   UNL     1      -5.620  -3.116   0.230  0.00  0.00    +0.027 A 
ATOM      3  C   UNL     1      -6.707  -3.965   0.327  0.00  0.00    +0.049 A 
ATOM      4  C   UNL     1      -7.990  -3.447   0.335  0.00  0.00    +0.143 A 
ATOM      5  C   UNL     1      -8.187  -2.070   0.245  0.00  0.00    +0.077 A 
ATOM      6  C   UNL     1      -7.099  -1.219   0.153  0.00  0.00    +0.050 A 
ATOM      7  N   UNL     1      -9.494  -1.562   0.253  0.00  0.00    -0.279 N 
ATOM      8  C   UNL     1     -10.504  -2.361   0.661  0.00  0.00    +0.258 C 
ATOM      9  O   UNL     1     -11.646  -1.952   0.649  0.00  0.00    -0.271 OA
ATOM     10  C   UNL     1     -10.206  -3.761   1.133  0.00  0.00    +0.256 C 
ATOM     11  O   UNL     1      -9.069  -4.272   0.433  0.00  0.00    -0.478 OA
ATOM     12  C   UNL     1     -11.416  -4.658   0.861  0.00  0.00    +0.062 C 
ATOM     13  H   UNL     1      -9.669  -0.651  -0.030  0.00  0.00    +0.155 HD
ENDROOT
BRANCH   1  16
ATOM     14  C   UNL     1      -4.800   0.250  -0.677  0.00  0.00    +0.241 C 
ATOM     15  O   UNL     1      -5.808   0.485  -1.319  0.00  0.00    -0.270 OA
ATOM     16  N   UNL     1      -4.709  -0.887   0.042  0.00  0.00    -0.282 N 
ATOM     17  H   UNL     1      -3.880  -1.112   0.491  0.00  0.00    +0.155 HD
BRANCH  14  19
ATOM     18  C   UNL     1      -3.817   2.313  -1.409  0.00  0.00    +0.020 C 
ATOM     19  C   UNL     1      -3.725   1.169  -0.686  0.00  0.00    +0.068 C 
BRANCH  18  24
ATOM     20  C   UNL     1       0.861   5.219  -0.797  0.00  0.00    +0.051 C 
ATOM     21  C   UNL     1      -0.488   4.632  -1.123  0.00  0.00    -0.013 A 
ATOM     22  C   UNL     1      -1.464   5.149  -1.916  0.00  0.00    +0.011 A 
ATOM     23  C   UNL     1      -2.632   4.448  -2.084  0.00  0.00    +0.016 A 
ATOM     24  C   UNL     1      -2.741   3.233  -1.418  0.00  0.00    +0.013 A 
ATOM     25  S   UNL     1      -1.170   3.135  -0.577  0.00  0.00    -0.094 S 
ENDBRANCH  18  24
ENDBRANCH  14  19
ENDBRANCH   1  16
TORSDOF 3
