REMARK  Name = ZINC13052024
REMARK  10 active torsions:
REMARK  status: ('A' for Active; 'I' for Inactive)
REMARK    1  A    between atoms: C_1  and  C_2
REMARK    2  A    between atoms: C_2  and  C_4
REMARK    3  A    between atoms: C_2  and  O_30
REMARK    4  A    between atoms: C_4  and  N_5
REMARK    5  A    between atoms: C_11  and  C_28
REMARK    6  A    between atoms: C_15  and  S_16
REMARK    7  A    between atoms: S_16  and  C_17
REMARK    8  A    between atoms: C_17  and  C_18
REMARK    9  A    between atoms: N_20  and  C_21
REMARK   10  A    between atoms: C_21  and  C_26
REMARK                            x       y       z     vdW  Elec       q    Type
REMARK                         _______ _______ _______ _____ _____    ______ ____
ROOT
ATOM      1  N   UNL     1      -1.189  -0.671   0.015  0.00  0.00    -0.285 N 
ATOM      2  C   UNL     1      -1.220  -2.024   0.004  0.00  0.00    +0.262 A 
ATOM      3  O   UNL     1      -2.275  -2.631   0.011  0.00  0.00    -0.267 OA
ATOM      4  C   UNL     1       0.069  -2.734  -0.012  0.00  0.00    +0.065 A 
ATOM      5  C   UNL     1       0.138  -4.127  -0.020  0.00  0.00    +0.016 A 
ATOM      6  C   UNL     1       1.353  -4.748  -0.034  0.00  0.00    +0.016 A 
ATOM      7  C   UNL     1       2.537  -3.999  -0.042  0.00  0.00    +0.065 A 
ATOM      8  C   UNL     1       2.492  -2.611  -0.035  0.00  0.00    +0.043 A 
ATOM      9  C   UNL     1       1.254  -1.964  -0.020  0.00  0.00    +0.080 A 
ATOM     10  N   UNL     1       1.162  -0.613  -0.012  0.00  0.00    -0.223 NA
ATOM     11  C   UNL     1       0.002  -0.004   0.002  0.00  0.00    +0.173 A 
ENDROOT
BRANCH   7  12
ATOM     12  C   UNL     1       3.844  -4.692  -0.057  0.00  0.00    +0.387 C 
ATOM     13  O   UNL     1       4.873  -4.047  -0.063  0.00  0.00    -0.241 OA
ATOM     14  O   UNL     1       3.893  -6.038  -0.064  0.00  0.00    -0.241 OA
ENDBRANCH   7  12
BRANCH   1  15
ATOM     15  C   UNL     1      -2.445   0.083   0.037  0.00  0.00    +0.158 C 
BRANCH  15  17
ATOM     16  C   UNL     1      -4.144   1.247  -1.377  0.00  0.00    +0.039 C 
ATOM     17  C   UNL     1      -2.902   0.354  -1.397  0.00  0.00    +0.131 C 
BRANCH  17  18
ATOM     18  O   UNL     1      -3.216  -0.884  -2.038  0.00  0.00    -0.390 OA
ATOM     19  H   UNL     1      -3.921  -1.384  -1.604  0.00  0.00    +0.210 HD
ENDBRANCH  17  18
ENDBRANCH  15  17
ENDBRANCH   1  15
BRANCH  11  20
ATOM     20  S   UNL     1      -0.022   1.758   0.012  0.00  0.00    -0.078 S 
BRANCH  20  21
ATOM     21  C   UNL     1       1.756   2.096  -0.004  0.00  0.00    +0.173 C 
BRANCH  21  22
ATOM     22  C   UNL     1       1.984   3.586   0.002  0.00  0.00    +0.224 C 
ATOM     23  O   UNL     1       1.037   4.344   0.015  0.00  0.00    -0.275 OA
ATOM     24  N   UNL     1       3.240   4.076  -0.007  0.00  0.00    -0.297 N 
ATOM     25  H   UNL     1       3.997   3.469  -0.018  0.00  0.00    +0.150 HD
BRANCH  24  26
ATOM     26  C   UNL     1       3.461   5.524  -0.001  0.00  0.00    +0.121 C 
ATOM     27  C   UNL     1       2.858   6.156  -1.273  0.00  0.00    +0.041 C 
ATOM     28  C   UNL     1       3.862   7.274  -1.653  0.00  0.00    +0.003 C 
ATOM     29  C   UNL     1       5.232   6.631  -1.321  0.00  0.00    +0.003 C 
ATOM     30  C   UNL     1       4.969   5.827  -0.032  0.00  0.00    +0.041 C 
BRANCH  26  31
ATOM     31  C   UNL     1       2.850   6.122   1.197  0.00  0.00    +0.088 C 
ATOM     32  N   UNL     1       2.379   6.584   2.122  0.00  0.00    -0.194 NA
ENDBRANCH  26  31
ENDBRANCH  24  26
ENDBRANCH  21  22
ENDBRANCH  20  21
ENDBRANCH  11  20
TORSDOF 9
