REMARK  Name = ZINC13965306
REMARK  8 active torsions:
REMARK  status: ('A' for Active; 'I' for Inactive)
REMARK    1  A    between atoms: C_1  and  C_2
REMARK    2  A    between atoms: C_4  and  C_21
REMARK    3  A    between atoms: C_5  and  N_9
REMARK    4  A    between atoms: C_6  and  C_8
REMARK    5  A    between atoms: N_12  and  C_13
REMARK    6  A    between atoms: C_13  and  C_14
REMARK    7  A    between atoms: C_14  and  C_16
REMARK    8  A    between atoms: C_14  and  N_48
REMARK                            x       y       z     vdW  Elec       q    Type
REMARK                         _______ _______ _______ _____ _____    ______ ____
ROOT
ATOM      1  N   UNL     1      -0.438  -2.205   0.800  0.00  0.00    -0.269 N 
ATOM      2  C   UNL     1      -0.612  -1.167  -0.043  0.00  0.00    +0.304 C 
ATOM      3  O   UNL     1      -1.686  -1.000  -0.588  0.00  0.00    -0.253 OA
ATOM      4  N   UNL     1       0.404  -0.315  -0.281  0.00  0.00    -0.301 N 
ATOM      5  H   UNL     1       0.436  -2.378   1.181  0.00  0.00    +0.156 HD
ATOM      6  H   UNL     1       1.261  -0.448   0.154  0.00  0.00    +0.150 HD
ENDROOT
BRANCH   1  11
ATOM      7  C   UNL     1      -4.822  -5.558   2.113  0.00  0.00    +0.044 C 
ATOM      8  C   UNL     1      -3.657  -4.667   1.765  0.00  0.00    -0.050 A 
ATOM      9  C   UNL     1      -2.469  -5.224   1.330  0.00  0.00    +0.008 A 
ATOM     10  C   UNL     1      -1.400  -4.410   1.009  0.00  0.00    -0.029 A 
ATOM     11  C   UNL     1      -1.520  -3.032   1.123  0.00  0.00    +0.041 A 
ATOM     12  C   UNL     1      -2.713  -2.476   1.566  0.00  0.00    -0.029 A 
ATOM     13  C   UNL     1      -3.780  -3.295   1.880  0.00  0.00    +0.008 A 
ATOM     14  C   UNL     1      -2.845  -0.980   1.697  0.00  0.00    +0.045 C 
ATOM     15  C   UNL     1      -0.105  -5.018   0.535  0.00  0.00    +0.045 C 
ENDBRANCH   1  11
BRANCH   4  16
ATOM     16  C   UNL     1       0.215   0.813  -1.197  0.00  0.00    +0.090 C 
BRANCH  16  17
ATOM     17  C   UNL     1       1.514   1.618  -1.289  0.00  0.00    -0.054 C 
ATOM     18  C   UNL     1       1.356   2.721  -2.338  0.00  0.00    -0.012 C 
BRANCH  17  23
ATOM     19  C   UNL     1       2.480   0.298  -3.093  0.00  0.00    -0.078 C 
ATOM     20  C   UNL     1       3.915  -0.152  -3.465  0.00  0.00    -0.020 C 
ATOM     21  C   UNL     1       4.803   0.870  -2.720  0.00  0.00    -0.020 C 
ATOM     22  C   UNL     1       3.917   1.424  -1.589  0.00  0.00    -0.078 C 
ATOM     23  N   UNL     1       2.638   0.720  -1.692  0.00  0.00    +0.382 N 
ATOM     24  H   UNL     1       2.646  -0.104  -1.080  0.00  0.00    -0.081 HD
ENDBRANCH  17  23
ENDBRANCH  16  17
ENDBRANCH   4  16
TORSDOF 4
