REMARK  Name = ZINC36012598
REMARK  8 active torsions:
REMARK  status: ('A' for Active; 'I' for Inactive)
REMARK    1  A    between atoms: C_1  and  O_2
REMARK    2  A    between atoms: O_2  and  C_3
REMARK    3  A    between atoms: C_5  and  C_11
REMARK    4  A    between atoms: C_8  and  O_9
REMARK    5  A    between atoms: N_12  and  N_13
REMARK    6  A    between atoms: C_14  and  C_16
REMARK    7  A    between atoms: C_16  and  N_17
REMARK    8  A    between atoms: C_18  and  C_20
REMARK                            x       y       z     vdW  Elec       q    Type
REMARK                         _______ _______ _______ _____ _____    ______ ____
ROOT
ATOM      1  N   UNL     1       3.104  -1.626  -5.249  0.00  0.00    -0.206 N 
ATOM      2  C   UNL     1       3.870  -2.224  -6.182  0.00  0.00    +0.249 C 
ATOM      3  O   UNL     1       4.516  -1.552  -6.958  0.00  0.00    -0.272 OA
ATOM      4  H   UNL     1       2.588  -2.163  -4.628  0.00  0.00    +0.177 HD
ENDROOT
BRANCH   1   6
ATOM      5  C   UNL     1       2.419   0.348  -4.200  0.00  0.00    +0.138 C 
ATOM      6  N   UNL     1       3.054  -0.228  -5.175  0.00  0.00    -0.188 NA
BRANCH   5   9
ATOM      7  C   UNL     1       1.160  -0.551  -0.779  0.00  0.00    +0.163 A 
ATOM      8  C   UNL     1       1.318   0.112  -1.982  0.00  0.00    +0.059 A 
ATOM      9  C   UNL     1       2.247  -0.354  -2.916  0.00  0.00    -0.001 A 
ATOM     10  C   UNL     1       3.013  -1.487  -2.629  0.00  0.00    +0.028 A 
ATOM     11  C   UNL     1       2.850  -2.143  -1.426  0.00  0.00    +0.063 A 
ATOM     12  C   UNL     1       1.930  -1.676  -0.497  0.00  0.00    +0.173 A 
ATOM     13 BR   UNL     1       3.887  -3.676  -1.039  0.00  0.00    -0.046 Br
BRANCH   7  15
ATOM     14  C   UNL     1      -0.500   1.059  -0.224  0.00  0.00    +0.277 C 
ATOM     15  O   UNL     1       0.256  -0.100   0.132  0.00  0.00    -0.491 OA
ENDBRANCH   7  15
BRANCH  12  16
ATOM     16  O   UNL     1       1.777  -2.323   0.689  0.00  0.00    -0.503 OA
ATOM     17  H   UNL     1       1.113  -3.025   0.671  0.00  0.00    +0.292 HD
ENDBRANCH  12  16
ENDBRANCH   5   9
ENDBRANCH   1   6
BRANCH   2  18
ATOM     18  C   UNL     1       3.924  -3.728  -6.261  0.00  0.00    +0.201 C 
BRANCH  18  19
ATOM     19  N   UNL     1       4.820  -4.128  -7.349  0.00  0.00    -0.306 N 
ATOM     20  C   UNL     1       5.024  -5.435  -7.608  0.00  0.00    +0.220 C 
ATOM     21  O   UNL     1       4.466  -6.280  -6.941  0.00  0.00    -0.275 OA
ATOM     22  H   UNL     1       5.266  -3.452  -7.883  0.00  0.00    +0.149 HD
BRANCH  20  23
ATOM     23  C   UNL     1       5.945  -5.846  -8.728  0.00  0.00    +0.048 C 
ATOM     24  C   UNL     1       5.422  -5.285 -10.051  0.00  0.00    +0.019 C 
ATOM     25  C   UNL     1       6.357  -5.702 -11.188  0.00  0.00    -0.009 C 
ATOM     26  C   UNL     1       6.412  -7.229 -11.268  0.00  0.00    +0.007 C 
ATOM     27  C   UNL     1       6.936  -7.791  -9.945  0.00  0.00    -0.009 C 
ATOM     28  C   UNL     1       6.000  -7.373  -8.808  0.00  0.00    +0.019 C 
ATOM     29  C   UNL     1       8.339  -7.243  -9.678  0.00  0.00    +0.007 C 
ATOM     30  C   UNL     1       8.284  -5.716  -9.597  0.00  0.00    -0.009 C 
ATOM     31  C   UNL     1       7.761  -5.155 -10.921  0.00  0.00    +0.007 C 
ATOM     32  C   UNL     1       7.349  -5.299  -8.461  0.00  0.00    +0.019 C 
ENDBRANCH  20  23
ENDBRANCH  18  19
ENDBRANCH   2  18
TORSDOF 7
