REMARK  Name = ZINC13655854
REMARK  7 active torsions:
REMARK  status: ('A' for Active; 'I' for Inactive)
REMARK    1  A    between atoms: C_1  and  C_2
REMARK    2  A    between atoms: C_4  and  C_15
REMARK    3  A    between atoms: C_5  and  C_14
REMARK    4  A    between atoms: N_6  and  C_7
REMARK    5  A    between atoms: C_12  and  O_13
REMARK    6  A    between atoms: N_21  and  C_24
REMARK    7  A    between atoms: C_24  and  C_25
REMARK                            x       y       z     vdW  Elec       q    Type
REMARK                         _______ _______ _______ _____ _____    ______ ____
ROOT
ATOM      1  C   UNL     1       0.041  -3.338  -1.423  0.00  0.00    +0.028 C 
ATOM      2  C   UNL     1      -0.652  -3.366  -2.623  0.00  0.00    +0.102 C 
ATOM      3  C   UNL     1      -0.759  -4.602  -3.425  0.00  0.00    +0.276 C 
ATOM      4  N   UNL     1      -1.446  -4.557  -4.578  0.00  0.00    -0.123 NA
ATOM      5  C   UNL     1      -2.018  -3.458  -5.003  0.00  0.00    +0.336 C 
ATOM      6  O   UNL     1      -2.688  -3.501  -6.170  0.00  0.00    -0.250 OA
ATOM      7  N   UNL     1      -1.973  -2.278  -4.332  0.00  0.00    -0.213 N 
ATOM      8  C   UNL     1      -1.323  -2.167  -3.154  0.00  0.00    +0.260 C 
ATOM      9  O   UNL     1      -1.288  -1.109  -2.553  0.00  0.00    -0.269 OA
ATOM     10  O   UNL     1      -0.235  -5.638  -3.050  0.00  0.00    -0.268 OA
ENDROOT
BRANCH   1  14
ATOM     11  C   UNL     1       1.265   1.484  -0.564  0.00  0.00    +0.064 C 
ATOM     12  C   UNL     1       0.830   0.051  -0.402  0.00  0.00    +0.022 A 
ATOM     13  C   UNL     1       0.743  -0.852  -1.393  0.00  0.00    +0.031 A 
ATOM     14  C   UNL     1       0.281  -2.104  -0.774  0.00  0.00    -0.003 A 
ATOM     15  C   UNL     1       0.130  -1.825   0.577  0.00  0.00    +0.028 A 
ATOM     16  N   UNL     1       0.468  -0.538   0.778  0.00  0.00    -0.314 N 
ATOM     17  C   UNL     1      -0.327  -2.796   1.635  0.00  0.00    +0.064 C 
BRANCH  16  18
ATOM     18  C   UNL     1       0.447   0.109   2.022  0.00  0.00    +0.088 A 
ATOM     19  C   UNL     1      -0.706   0.750   2.453  0.00  0.00    +0.030 A 
ATOM     20  C   UNL     1      -0.724   1.387   3.679  0.00  0.00    +0.002 A 
ATOM     21  C   UNL     1       0.405   1.389   4.478  0.00  0.00    +0.004 A 
ATOM     22  C   UNL     1       1.557   0.753   4.055  0.00  0.00    +0.047 A 
ATOM     23  C   UNL     1       1.581   0.106   2.830  0.00  0.00    +0.141 A 
BRANCH  23  24
ATOM     24  O   UNL     1       2.712  -0.525   2.415  0.00  0.00    -0.505 OA
ATOM     25  H   UNL     1       3.314   0.038   1.911  0.00  0.00    +0.292 HD
ENDBRANCH  23  24
ENDBRANCH  16  18
ENDBRANCH   1  14
BRANCH   7  26
ATOM     26  C   UNL     1      -2.647  -1.105  -4.895  0.00  0.00    +0.192 C 
BRANCH  26  27
ATOM     27  C   UNL     1      -4.066  -1.052  -4.393  0.00  0.00    +0.123 A 
ATOM     28  C   UNL     1      -4.484  -0.424  -3.280  0.00  0.00    +0.046 A 
ATOM     29  C   UNL     1      -5.880  -0.630  -3.193  0.00  0.00    +0.041 A 
ATOM     30  C   UNL     1      -6.232  -1.372  -4.258  0.00  0.00    +0.195 A 
ATOM     31  O   UNL     1      -5.130  -1.620  -4.985  0.00  0.00    -0.466 OA
ENDBRANCH  26  27
ENDBRANCH   7  26
TORSDOF 5
