REMARK  Name = ZINC67298774
REMARK  10 active torsions:
REMARK  status: ('A' for Active; 'I' for Inactive)
REMARK    1  A    between atoms: C_1  and  C_2
REMARK    2  A    between atoms: C_2  and  C_4
REMARK    3  A    between atoms: C_2  and  N_14
REMARK    4  A    between atoms: C_4  and  C_5
REMARK    5  A    between atoms: C_5  and  C_6
REMARK    6  A    between atoms: C_9  and  O_12
REMARK    7  A    between atoms: O_12  and  C_13
REMARK    8  A    between atoms: C_15  and  C_17
REMARK    9  A    between atoms: C_20  and  N_26
REMARK   10  A    between atoms: C_21  and  N_23
REMARK                            x       y       z     vdW  Elec       q    Type
REMARK                         _______ _______ _______ _____ _____    ______ ____
ROOT
ATOM      1  N   UNL     1      -1.440  -0.382  -0.043  0.00  0.00    -0.309 N 
ATOM      2  C   UNL     1      -1.992  -0.762   1.126  0.00  0.00    +0.244 C 
ATOM      3  O   UNL     1      -1.335  -0.731   2.148  0.00  0.00    -0.270 OA
ATOM      4  H   UNL     1      -1.964  -0.407  -0.859  0.00  0.00    +0.149 HD
ENDROOT
BRANCH   2   5
ATOM      5  C   UNL     1      -3.395  -1.218   1.165  0.00  0.00    +0.039 A 
ATOM      6  C   UNL     1      -4.151  -1.260  -0.011  0.00  0.00    +0.015 A 
ATOM      7  C   UNL     1      -5.458  -1.686   0.029  0.00  0.00    +0.026 A 
ATOM      8  C   UNL     1      -6.030  -2.073   1.238  0.00  0.00    +0.055 A 
ATOM      9  C   UNL     1      -5.280  -2.031   2.410  0.00  0.00    +0.147 A 
ATOM     10  C   UNL     1      -3.970  -1.613   2.376  0.00  0.00    +0.047 A 
BRANCH   9  11
ATOM     11  N   UNL     1      -5.892  -2.443   3.694  0.00  0.00    +0.058 N 
ATOM     12  O   UNL     1      -5.615  -1.854   4.712  0.00  0.00    -0.126 OA
ATOM     13  O   UNL     1      -6.669  -3.369   3.724  0.00  0.00    -0.126 OA
ENDBRANCH   9  11
BRANCH   8  14
ATOM     14  N   UNL     1      -7.352  -2.502   1.274  0.00  0.00    -0.356 N 
ATOM     15  H   UNL     1      -7.840  -2.640   0.448  0.00  0.00    +0.142 HD
ATOM     16  H   UNL     1      -7.786  -2.663   2.127  0.00  0.00    +0.142 HD
ENDBRANCH   8  14
ENDBRANCH   2   5
BRANCH   1  18
ATOM     17  C   UNL     1       0.016   1.559   0.264  0.00  0.00    +0.028 C 
ATOM     18  C   UNL     1      -0.047   0.070  -0.082  0.00  0.00    +0.070 C 
BRANCH  18  19
ATOM     19  C   UNL     1       0.523  -0.152  -1.484  0.00  0.00    +0.026 C 
BRANCH  19  20
ATOM     20  C   UNL     1       0.576  -1.651  -1.782  0.00  0.00    +0.037 C 
BRANCH  20  21
ATOM     21  C   UNL     1       1.136  -1.870  -3.163  0.00  0.00    -0.047 A 
ATOM     22  C   UNL     1       0.288  -1.913  -4.254  0.00  0.00    +0.007 A 
ATOM     23  C   UNL     1       0.799  -2.114  -5.521  0.00  0.00    +0.046 A 
ATOM     24  C   UNL     1       2.166  -2.272  -5.699  0.00  0.00    +0.120 A 
ATOM     25  C   UNL     1       3.016  -2.228  -4.603  0.00  0.00    +0.046 A 
ATOM     26  C   UNL     1       2.499  -2.022  -3.339  0.00  0.00    +0.007 A 
BRANCH  24  27
ATOM     27  O   UNL     1       2.672  -2.470  -6.945  0.00  0.00    -0.495 OA
ATOM     28  C   UNL     1       4.088  -2.625  -7.053  0.00  0.00    +0.277 C 
ENDBRANCH  24  27
ENDBRANCH  20  21
ENDBRANCH  19  20
ENDBRANCH  18  19
ENDBRANCH   1  18
TORSDOF 8
