REMARK  Name = ZINC04086344
REMARK  8 active torsions:
REMARK  status: ('A' for Active; 'I' for Inactive)
REMARK    1  A    between atoms: C_1  and  C_2
REMARK    2  A    between atoms: C_2  and  O_3
REMARK    3  A    between atoms: O_3  and  C_4
REMARK    4  A    between atoms: C_4  and  C_6
REMARK    5  A    between atoms: C_8  and  C_20
REMARK    6  A    between atoms: C_14  and  C_15
REMARK    7  A    between atoms: C_14  and  O_19
REMARK    8  A    between atoms: C_24  and  N_26
REMARK                            x       y       z     vdW  Elec       q    Type
REMARK                         _______ _______ _______ _____ _____    ______ ____
ROOT
ATOM      1  C   UNL     1      -2.685   0.408   1.381  0.00  0.00    +0.181 C 
ATOM      2  C   UNL     1      -2.727   1.429   0.239  0.00  0.00    +0.121 C 
ATOM      3  N   UNL     1      -2.871   0.720  -1.034  0.00  0.00    -0.319 N 
ATOM      4  C   UNL     1      -2.390  -0.521  -1.200  0.00  0.00    +0.133 C 
ATOM      5  S   UNL     1      -2.582  -1.281  -2.722  0.00  0.00    -0.019 S 
ATOM      6  N   UNL     1      -1.765  -1.191  -0.220  0.00  0.00    -0.291 N 
ATOM      7  C   UNL     1      -1.558  -0.592   1.100  0.00  0.00    +0.244 C 
ATOM      8  H   UNL     1      -3.322   1.157  -1.773  0.00  0.00    +0.148 HD
ATOM      9  H   UNL     1      -1.443  -2.090  -0.389  0.00  0.00    +0.151 HD
ENDROOT
BRANCH   2  10
ATOM     10  C   UNL     1      -1.449   2.227   0.230  0.00  0.00    -0.024 A 
ATOM     11  C   UNL     1      -1.303   3.308   1.078  0.00  0.00    +0.005 A 
ATOM     12  C   UNL     1      -0.128   4.037   1.074  0.00  0.00    +0.003 A 
ATOM     13  C   UNL     1       0.899   3.687   0.217  0.00  0.00    +0.033 A 
ATOM     14  C   UNL     1       0.751   2.609  -0.635  0.00  0.00    +0.127 A 
ATOM     15  C   UNL     1      -0.424   1.880  -0.631  0.00  0.00    +0.038 A 
BRANCH  14  16
ATOM     16  N   UNL     1       1.850   2.234  -1.553  0.00  0.00    +0.056 N 
ATOM     17  O   UNL     1       2.886   2.876  -1.557  0.00  0.00    -0.126 OA
ATOM     18  O   UNL     1       1.720   1.284  -2.304  0.00  0.00    -0.126 OA
ENDBRANCH  14  16
ENDBRANCH   2  10
BRANCH   7  19
ATOM     19  C   UNL     1      -1.568  -1.689   2.166  0.00  0.00    +0.436 C 
ATOM     20  F   UNL     1      -0.458  -2.522   1.989  0.00  0.00    -0.166 F 
ATOM     21  F   UNL     1      -1.514  -1.105   3.436  0.00  0.00    -0.166 F 
ATOM     22  F   UNL     1      -2.740  -2.443   2.049  0.00  0.00    -0.166 F 
ENDBRANCH   7  19
BRANCH   1  23
ATOM     23  C   UNL     1      -4.002  -0.322   1.456  0.00  0.00    +0.317 C 
ATOM     24  O   UNL     1      -4.665  -0.477   0.458  0.00  0.00    -0.250 OA
BRANCH  23  25
ATOM     25  O   UNL     1      -4.439  -0.799   2.632  0.00  0.00    -0.465 OA
BRANCH  25  27
ATOM     26  C   UNL     1      -6.044  -1.959   4.049  0.00  0.00    +0.048 C 
ATOM     27  C   UNL     1      -5.715  -1.491   2.630  0.00  0.00    +0.229 C 
ENDBRANCH  25  27
ENDBRANCH  23  25
ENDBRANCH   1  23
BRANCH   7  28
ATOM     28  O   UNL     1      -0.301   0.087   1.125  0.00  0.00    -0.364 OA
ATOM     29  H   UNL     1       0.459  -0.485   0.949  0.00  0.00    +0.212 HD
ENDBRANCH   7  28
TORSDOF 7
