REMARK  Name = ZINC39037739
REMARK  8 active torsions:
REMARK  status: ('A' for Active; 'I' for Inactive)
REMARK    1  A    between atoms: C_1  and  O_2
REMARK    2  A    between atoms: O_2  and  C_3
REMARK    3  A    between atoms: C_6  and  N_9
REMARK    4  A    between atoms: C_10  and  C_12
REMARK    5  A    between atoms: C_12  and  C_13
REMARK    6  A    between atoms: C_13  and  C_14
REMARK    7  A    between atoms: N_16  and  N_17
REMARK    8  A    between atoms: C_18  and  C_19
REMARK                            x       y       z     vdW  Elec       q    Type
REMARK                         _______ _______ _______ _____ _____    ______ ____
ROOT
ATOM      1  C   UNL     1       4.136  -6.633  -6.348  0.00  0.00    +0.233 C 
ATOM      2  O   UNL     1       4.630  -5.957  -7.225  0.00  0.00    -0.274 OA
ATOM      3  N   UNL     1       4.274  -7.973  -6.371  0.00  0.00    -0.207 N 
ATOM      4  H   UNL     1       3.879  -8.514  -5.669  0.00  0.00    +0.177 HD
ENDROOT
BRANCH   3   5
ATOM      5  N   UNL     1       4.987  -8.586  -7.409  0.00  0.00    -0.188 NA
ATOM      6  C   UNL     1       5.121  -9.889  -7.431  0.00  0.00    +0.136 C 
BRANCH   6   7
ATOM      7  C   UNL     1       5.835 -10.502  -8.470  0.00  0.00    +0.000 C 
ATOM      8  C   UNL     1       6.064 -11.865  -8.645  0.00  0.00    +0.004 A 
ATOM      9  C   UNL     1       5.684 -13.000  -7.894  0.00  0.00    +0.010 A 
ATOM     10  C   UNL     1       6.057 -14.237  -8.310  0.00  0.00    +0.001 A 
ATOM     11  C   UNL     1       6.812 -14.423  -9.472  0.00  0.00    +0.002 A 
ATOM     12  C   UNL     1       7.210 -13.381 -10.241  0.00  0.00    +0.026 A 
ATOM     13  C   UNL     1       6.859 -12.056  -9.870  0.00  0.00    +0.043 A 
ATOM     14  N   UNL     1       7.119 -10.895 -10.435  0.00  0.00    -0.380 N 
ATOM     15  C   UNL     1       6.513  -9.823  -9.640  0.00  0.00    +0.150 C 
ATOM     16  H   UNL     1       7.628 -10.770 -11.252  0.00  0.00    +0.160 HD
ENDBRANCH   6   7
ENDBRANCH   3   5
BRANCH   1  17
ATOM     17  C   UNL     1       3.369  -5.973  -5.231  0.00  0.00    +0.107 C 
BRANCH  17  18
ATOM     18  C   UNL     1       3.363  -4.458  -5.442  0.00  0.00    +0.105 C 
BRANCH  18  20
ATOM     19  N   UNL     1       2.458  -2.458  -4.302  0.00  0.00    -0.285 N 
ATOM     20  C   UNL     1       2.596  -3.798  -4.325  0.00  0.00    +0.218 C 
ATOM     21  O   UNL     1       2.102  -4.474  -3.447  0.00  0.00    -0.275 OA
ATOM     22  H   UNL     1       2.786  -1.924  -5.042  0.00  0.00    +0.155 HD
BRANCH  19  26
ATOM     23  C   UNL     1       0.623  -0.606  -1.048  0.00  0.00    +0.120 A 
ATOM     24  C   UNL     1       1.376  -1.755  -0.857  0.00  0.00    +0.047 A 
ATOM     25  C   UNL     1       1.984  -2.369  -1.935  0.00  0.00    +0.027 A 
ATOM     26  C   UNL     1       1.841  -1.835  -3.208  0.00  0.00    +0.034 A 
ATOM     27  C   UNL     1       1.087  -0.685  -3.398  0.00  0.00    +0.027 A 
ATOM     28  C   UNL     1       0.475  -0.075  -2.321  0.00  0.00    +0.047 A 
BRANCH  23  30
ATOM     29  C   UNL     1       0.219  -0.601   1.296  0.00  0.00    +0.277 C 
ATOM     30  O   UNL     1       0.025  -0.001   0.013  0.00  0.00    -0.495 OA
ENDBRANCH  23  30
ENDBRANCH  19  26
ENDBRANCH  18  20
ENDBRANCH  17  18
ENDBRANCH   1  17
TORSDOF 7
