REMARK  Name = ZINC00425185
REMARK  7 active torsions:
REMARK  status: ('A' for Active; 'I' for Inactive)
REMARK    1  A    between atoms: C_1  and  C_2
REMARK    2  A    between atoms: C_6  and  C_19
REMARK    3  A    between atoms: C_7  and  N_8
REMARK    4  A    between atoms: C_9  and  N_18
REMARK    5  A    between atoms: C_10  and  C_14
REMARK    6  A    between atoms: C_14  and  O_16
REMARK    7  A    between atoms: O_16  and  C_17
REMARK                            x       y       z     vdW  Elec       q    Type
REMARK                         _______ _______ _______ _____ _____    ______ ____
ROOT
ATOM      1  N   UNL     1      -0.016   1.346   0.009  0.00  0.00    -0.285 N 
ATOM      2  C   UNL     1       1.145   2.035   0.002  0.00  0.00    +0.123 A 
ATOM      3  C   UNL     1       2.320   1.304  -0.013  0.00  0.00    +0.137 A 
ATOM      4  S   UNL     1       1.698  -0.369  -0.016  0.00  0.00    -0.053 S 
ATOM      5  C   UNL     1       0.002  -0.004   0.002  0.00  0.00    +0.132 A 
ATOM      6  S   UNL     1      -1.323  -1.089   0.009  0.00  0.00    -0.024 S 
ENDROOT
BRANCH   1  13
ATOM      7  C   UNL     1      -1.197   2.027  -2.489  0.00  0.00    +0.046 C 
ATOM      8  C   UNL     1      -1.849   2.382  -1.178  0.00  0.00    -0.026 A 
ATOM      9  C   UNL     1      -3.056   3.053  -1.165  0.00  0.00    +0.005 A 
ATOM     10  C   UNL     1      -3.652   3.384   0.038  0.00  0.00    +0.001 A 
ATOM     11  C   UNL     1      -3.045   3.040   1.231  0.00  0.00    +0.005 A 
ATOM     12  C   UNL     1      -1.840   2.365   1.225  0.00  0.00    -0.026 A 
ATOM     13  C   UNL     1      -1.239   2.031   0.019  0.00  0.00    +0.055 A 
ATOM     14  C   UNL     1      -1.177   1.991   2.527  0.00  0.00    +0.046 C 
ENDBRANCH   1  13
BRANCH   2  15
ATOM     15  N   UNL     1       1.159   3.411   0.009  0.00  0.00    -0.343 N 
ATOM     16  H   UNL     1       0.324   3.905   0.019  0.00  0.00    +0.144 HD
ATOM     17  H   UNL     1       2.004   3.888   0.003  0.00  0.00    +0.144 HD
ENDBRANCH   2  15
BRANCH   3  18
ATOM     18  C   UNL     1       3.653   1.759  -0.023  0.00  0.00    +0.349 C 
ATOM     19  O   UNL     1       3.889   2.954  -0.018  0.00  0.00    -0.244 OA
BRANCH  18  20
ATOM     20  O   UNL     1       4.670   0.871  -0.037  0.00  0.00    -0.464 OA
ATOM     21  C   UNL     1       5.997   1.403  -0.047  0.00  0.00    +0.280 C 
ENDBRANCH  18  20
ENDBRANCH   3  18
TORSDOF 4
