REMARK  Name = ZINC44737097
REMARK  6 active torsions:
REMARK  status: ('A' for Active; 'I' for Inactive)
REMARK    1  A    between atoms: C_1  and  C_2
REMARK    2  A    between atoms: C_10  and  C_12
REMARK    3  A    between atoms: C_12  and  C_13
REMARK    4  A    between atoms: C_12  and  N_14
REMARK    5  A    between atoms: C_15  and  C_17
REMARK    6  A    between atoms: C_27  and  C_29
REMARK                            x       y       z     vdW  Elec       q    Type
REMARK                         _______ _______ _______ _____ _____    ______ ____
ROOT
ATOM      1  C   UNL     1      -1.813  -9.066   0.444  0.00  0.00    +0.100 C 
ATOM      2  C   UNL     1      -0.520  -9.486  -0.290  0.00  0.00    +0.121 C 
ATOM      3  N   UNL     1      -0.031 -10.668   0.459  0.00  0.00    -0.296 N 
ATOM      4  C   UNL     1      -1.261 -11.425   0.795  0.00  0.00    +0.115 C 
ATOM      5  C   UNL     1      -2.295 -10.343   1.152  0.00  0.00    -0.004 C 
ATOM      6  C   UNL     1      -2.331 -10.128   2.662  0.00  0.00    -0.010 C 
ATOM      7  C   UNL     1      -2.867 -11.393   3.340  0.00  0.00    -0.082 C 
ATOM      8  N   UNL     1      -4.214 -11.687   2.835  0.00  0.00    +0.379 N 
ATOM      9  C   UNL     1      -4.156 -11.983   1.398  0.00  0.00    -0.082 C 
ATOM     10  C   UNL     1      -3.674 -10.744   0.638  0.00  0.00    -0.010 C 
ATOM     11  C   UNL     1       1.243 -10.982   0.766  0.00  0.00    +0.247 C 
ATOM     12  O   UNL     1       2.138 -10.194   0.529  0.00  0.00    -0.270 OA
ATOM     13  H   UNL     1      -4.589 -12.484   3.326  0.00  0.00    -0.086 HD
ATOM     14  H   UNL     1      -4.811 -10.889   2.989  0.00  0.00    -0.086 HD
ENDROOT
BRANCH  11  15
ATOM     15  C   UNL     1       1.552 -12.286   1.390  0.00  0.00    +0.037 A 
ATOM     16  C   UNL     1       0.649 -13.356   1.254  0.00  0.00    +0.013 A 
ATOM     17  C   UNL     1       0.911 -14.563   1.818  0.00  0.00    +0.009 A 
ATOM     18  C   UNL     1       2.097 -14.755   2.550  0.00  0.00    -0.018 A 
ATOM     19  C   UNL     1       2.390 -15.995   3.142  0.00  0.00    +0.008 A 
ATOM     20  C   UNL     1       3.546 -16.152   3.844  0.00  0.00    +0.001 A 
ATOM     21  C   UNL     1       4.448 -15.099   3.986  0.00  0.00    +0.001 A 
ATOM     22  C   UNL     1       4.199 -13.884   3.426  0.00  0.00    +0.008 A 
ATOM     23  C   UNL     1       3.015 -13.684   2.693  0.00  0.00    -0.017 A 
ATOM     24  C   UNL     1       2.731 -12.446   2.098  0.00  0.00    +0.021 A 
ENDBRANCH  11  15
BRANCH   1  26
ATOM     25  N   UNL     1      -2.494  -7.147   1.850  0.00  0.00    -0.305 N 
ATOM     26  C   UNL     1      -1.516  -7.986   1.453  0.00  0.00    +0.219 C 
ATOM     27  O   UNL     1      -0.398  -7.873   1.909  0.00  0.00    -0.275 OA
ATOM     28  H   UNL     1      -3.388  -7.238   1.485  0.00  0.00    +0.149 HD
BRANCH  25  29
ATOM     29  C   UNL     1      -2.206  -6.098   2.831  0.00  0.00    +0.136 C 
ATOM     30  C   UNL     1      -1.643  -4.869   2.113  0.00  0.00    +0.036 C 
BRANCH  29  40
ATOM     31  C   UNL     1      -7.655  -3.853   7.374  0.00  0.00    +0.044 C 
ATOM     32  C   UNL     1      -6.918  -4.408   6.183  0.00  0.00    -0.048 A 
ATOM     33  C   UNL     1      -7.630  -4.852   5.077  0.00  0.00    +0.005 A 
ATOM     34  C   UNL     1      -6.981  -5.358   3.987  0.00  0.00    +0.030 A 
ATOM     35  C   UNL     1      -5.585  -5.431   3.980  0.00  0.00    +0.089 A 
ATOM     36  C   UNL     1      -4.864  -4.981   5.099  0.00  0.00    +0.067 A 
ATOM     37  C   UNL     1      -5.541  -4.465   6.196  0.00  0.00    +0.031 A 
ATOM     38  N   UNL     1      -3.531  -5.178   4.797  0.00  0.00    -0.340 N 
ATOM     39  H   UNL     1      -2.776  -4.968   5.368  0.00  0.00    +0.167 HD
ATOM     40  C   UNL     1      -3.474  -5.722   3.551  0.00  0.00    +0.128 A 
ATOM     41  N   UNL     1      -4.675  -5.870   3.073  0.00  0.00    -0.231 NA
ENDBRANCH  29  40
ENDBRANCH  25  29
ENDBRANCH   1  26
TORSDOF 4
