REMARK  Name = ZINC61498683
REMARK  6 active torsions:
REMARK  status: ('A' for Active; 'I' for Inactive)
REMARK    1  A    between atoms: C_1  and  C_2
REMARK    2  A    between atoms: N_4  and  C_5
REMARK    3  A    between atoms: C_5  and  C_13
REMARK    4  A    between atoms: C_6  and  C_7
REMARK    5  A    between atoms: N_15  and  N_16
REMARK    6  A    between atoms: C_17  and  C_19
REMARK                            x       y       z     vdW  Elec       q    Type
REMARK                         _______ _______ _______ _____ _____    ______ ____
ROOT
ATOM      1  C   UNL     1       0.094  -2.838  -0.011  0.00  0.00    +0.274 C 
ATOM      2  O   UNL     1       0.075  -4.053  -0.085  0.00  0.00    -0.267 OA
ATOM      3  N   UNL     1       1.270  -2.182   0.007  0.00  0.00    -0.229 N 
ATOM      4  H   UNL     1       1.288  -1.221   0.139  0.00  0.00    +0.173 HD
ENDROOT
BRANCH   3   5
ATOM      5  N   UNL     1       2.469  -2.887  -0.163  0.00  0.00    -0.230 N 
ATOM      6  C   UNL     1       3.646  -2.231  -0.144  0.00  0.00    +0.267 C 
ATOM      7  O   UNL     1       3.667  -1.025   0.021  0.00  0.00    -0.268 OA
ATOM      8  H   UNL     1       2.452  -3.848  -0.295  0.00  0.00    +0.173 HD
BRANCH   6   9
ATOM      9  C   UNL     1       4.900  -2.969  -0.323  0.00  0.00    +0.076 A 
ATOM     10  C   UNL     1       6.197  -2.494  -0.330  0.00  0.00    +0.024 A 
ATOM     11  C   UNL     1       7.210  -3.429  -0.523  0.00  0.00    -0.036 A 
ATOM     12  C   UNL     1       6.821  -4.720  -0.687  0.00  0.00    -0.006 A 
ATOM     13  S   UNL     1       5.151  -4.714  -0.578  0.00  0.00    -0.088 S 
ATOM     14  C   UNL     1       7.691  -5.920  -0.918  0.00  0.00    +0.043 C 
ATOM     15  C   UNL     1       9.061  -5.690  -0.271  0.00  0.00    +0.005 C 
ATOM     16  C   UNL     1       9.973  -5.013  -1.290  0.00  0.00    +0.001 C 
ATOM     17  C   UNL     1       9.398  -3.664  -1.712  0.00  0.00    +0.005 C 
ATOM     18  C   UNL     1       8.675  -3.004  -0.543  0.00  0.00    +0.036 C 
ENDBRANCH   6   9
ENDBRANCH   3   5
BRANCH   1  19
ATOM     19  C   UNL     1      -1.169  -2.087   0.057  0.00  0.00    +0.098 C 
ATOM     20  C   UNL     1      -1.552  -1.313  -0.984  0.00  0.00    +0.036 C 
BRANCH  20  21
ATOM     21  C   UNL     1      -0.785  -1.336  -2.239  0.00  0.00    -0.023 A 
ATOM     22  C   UNL     1      -0.130  -2.505  -2.642  0.00  0.00    +0.008 A 
ATOM     23  C   UNL     1       0.586  -2.518  -3.820  0.00  0.00    +0.001 A 
ATOM     24  C   UNL     1       0.658  -1.379  -4.604  0.00  0.00    +0.000 A 
ATOM     25  C   UNL     1       0.013  -0.219  -4.212  0.00  0.00    +0.001 A 
ATOM     26  C   UNL     1      -0.713  -0.191  -3.039  0.00  0.00    +0.008 A 
ENDBRANCH  20  21
BRANCH  19  30
ATOM     27  C   UNL     1      -2.360  -2.865   3.541  0.00  0.00    +0.109 C 
ATOM     28  C   UNL     1      -1.544  -2.863   2.274  0.00  0.00    +0.214 C 
ATOM     29  O   UNL     1      -0.502  -3.482   2.222  0.00  0.00    -0.276 OA
ATOM     30  N   UNL     1      -1.972  -2.173   1.198  0.00  0.00    -0.282 N 
ATOM     31  H   UNL     1      -2.838  -1.736   1.216  0.00  0.00    +0.155 HD
ENDBRANCH  19  30
ENDBRANCH   1  19
TORSDOF 5
