REMARK  Name = ZINC12453849
REMARK  8 active torsions:
REMARK  status: ('A' for Active; 'I' for Inactive)
REMARK    1  A    between atoms: C_1  and  C_2
REMARK    2  A    between atoms: C_2  and  O_3
REMARK    3  A    between atoms: O_3  and  C_4
REMARK    4  A    between atoms: C_7  and  C_10
REMARK    5  A    between atoms: C_24  and  C_25
REMARK    6  A    between atoms: C_24  and  N_56
REMARK    7  A    between atoms: C_28  and  C_30
REMARK    8  A    between atoms: C_30  and  O_31
REMARK                            x       y       z     vdW  Elec       q    Type
REMARK                         _______ _______ _______ _____ _____    ______ ____
ROOT
ATOM      1  C   UNL     1      -0.074   5.628   0.031  0.00  0.00    +0.011 C 
ATOM      2  C   UNL     1      -0.342   6.138  -1.365  0.00  0.00    +0.011 A 
ATOM      3  C   UNL     1      -1.202   7.148  -1.628  0.00  0.00    -0.022 A 
ATOM      4  C   UNL     1      -1.195   7.353  -3.059  0.00  0.00    +0.003 A 
ATOM      5  C   UNL     1      -1.876   8.244  -3.896  0.00  0.00    +0.010 A 
ATOM      6  C   UNL     1      -1.616   8.154  -5.241  0.00  0.00    +0.001 A 
ATOM      7  C   UNL     1      -0.724   7.229  -5.759  0.00  0.00    +0.002 A 
ATOM      8  C   UNL     1      -0.038   6.335  -4.955  0.00  0.00    +0.026 A 
ATOM      9  C   UNL     1      -0.281   6.403  -3.585  0.00  0.00    +0.047 A 
ATOM     10  N   UNL     1       0.213   5.688  -2.532  0.00  0.00    -0.359 N 
ATOM     11  H   UNL     1       0.861   4.969  -2.600  0.00  0.00    +0.166 HD
ATOM     12  C   UNL     1      -1.982   7.875  -0.562  0.00  0.00    +0.019 C 
ATOM     13  C   UNL     1      -1.341   7.555   0.795  0.00  0.00    -0.072 C 
ATOM     14  N   UNL     1      -1.177   6.089   0.908  0.00  0.00    +0.393 N 
ATOM     15  H   UNL     1      -2.049   5.633   0.614  0.00  0.00    -0.080 HD
ENDROOT
BRANCH   1  19
ATOM     16  C   UNL     1      -0.016   1.355   0.009  0.00  0.00    +0.121 A 
ATOM     17  C   UNL     1      -1.226   2.033   0.019  0.00  0.00    +0.046 A 
ATOM     18  C   UNL     1      -1.242   3.414   0.031  0.00  0.00    +0.006 A 
ATOM     19  C   UNL     1      -0.054   4.121   0.024  0.00  0.00    -0.055 A 
ATOM     20  C   UNL     1       1.153   3.447   0.009  0.00  0.00    +0.006 A 
ATOM     21  C   UNL     1       1.175   2.066   0.002  0.00  0.00    +0.046 A 
BRANCH  16  22
ATOM     22  O   UNL     1       0.002  -0.004   0.002  0.00  0.00    -0.492 OA
BRANCH  22  24
ATOM     23  C   UNL     1      -1.041  -2.184   0.000  0.00  0.00    +0.048 C 
ATOM     24  C   UNL     1      -1.262  -0.670   0.011  0.00  0.00    +0.225 C 
ENDBRANCH  22  24
ENDBRANCH  16  22
ENDBRANCH   1  19
BRANCH  14  25
ATOM     25  C   UNL     1      -0.893   5.720   2.310  0.00  0.00    -0.002 C 
BRANCH  25  26
ATOM     26  C   UNL     1      -1.871   6.425   3.214  0.00  0.00    +0.089 A 
ATOM     27  C   UNL     1      -3.077   5.958   3.584  0.00  0.00    +0.043 A 
ATOM     28  C   UNL     1      -3.653   6.934   4.428  0.00  0.00    +0.047 A 
ATOM     29  C   UNL     1      -2.765   7.940   4.524  0.00  0.00    +0.130 A 
ATOM     30  O   UNL     1      -1.685   7.623   3.791  0.00  0.00    -0.464 OA
BRANCH  29  31
ATOM     31  C   UNL     1      -2.948   9.204   5.323  0.00  0.00    +0.230 C 
BRANCH  31  32
ATOM     32  O   UNL     1      -2.445   9.008   6.646  0.00  0.00    -0.387 OA
ATOM     33  H   UNL     1      -2.530   9.783   7.218  0.00  0.00    +0.210 HD
ENDBRANCH  31  32
ENDBRANCH  29  31
ENDBRANCH  25  26
ENDBRANCH  14  25
TORSDOF 7
