REMARK  Name = ZINC57929611
REMARK  4 active torsions:
REMARK  status: ('A' for Active; 'I' for Inactive)
REMARK    1  A    between atoms: C_1  and  C_2
REMARK    2  A    between atoms: C_2  and  C_4
REMARK    3  A    between atoms: C_4  and  N_5
REMARK    4  A    between atoms: C_13  and  C_17
REMARK                            x       y       z     vdW  Elec       q    Type
REMARK                         _______ _______ _______ _____ _____    ______ ____
ROOT
ATOM      1  N   UNL     1      -1.831  -1.220   1.453  0.00  0.00    -0.264 N 
ATOM      2  C   UNL     1      -1.240  -2.320   2.087  0.00  0.00    +0.058 A 
ATOM      3  C   UNL     1      -0.053  -2.856   1.617  0.00  0.00    +0.025 A 
ATOM      4  C   UNL     1       0.511  -3.946   2.255  0.00  0.00    +0.002 A 
ATOM      5  C   UNL     1      -0.103  -4.503   3.362  0.00  0.00    +0.002 A 
ATOM      6  C   UNL     1      -1.288  -3.972   3.840  0.00  0.00    +0.025 A 
ATOM      7  C   UNL     1      -1.856  -2.881   3.207  0.00  0.00    +0.050 A 
ATOM      8  N   UNL     1      -3.050  -2.314   3.675  0.00  0.00    -0.328 N 
ATOM      9  C   UNL     1      -3.262  -0.876   3.451  0.00  0.00    +0.188 C 
ATOM     10  C   UNL     1      -2.808  -0.520   2.059  0.00  0.00    +0.245 C 
ATOM     11  O   UNL     1      -3.333   0.405   1.476  0.00  0.00    -0.273 OA
ATOM     12  H   UNL     1      -3.715  -2.852   4.131  0.00  0.00    +0.147 HD
ENDROOT
BRANCH   9  13
ATOM     13  C   UNL     1      -2.462  -0.086   4.456  0.00  0.00    -0.018 A 
ATOM     14  C   UNL     1      -1.183  -0.489   4.791  0.00  0.00    +0.006 A 
ATOM     15  C   UNL     1      -0.450   0.235   5.713  0.00  0.00    +0.000 A 
ATOM     16  C   UNL     1      -0.995   1.363   6.297  0.00  0.00    +0.000 A 
ATOM     17  C   UNL     1      -2.274   1.766   5.961  0.00  0.00    +0.000 A 
ATOM     18  C   UNL     1      -3.006   1.044   5.037  0.00  0.00    +0.006 A 
ENDBRANCH   9  13
BRANCH   1  19
ATOM     19  C   UNL     1      -1.376  -0.824   0.118  0.00  0.00    +0.143 C 
BRANCH  19  21
ATOM     20  C   UNL     1      -1.622  -2.985  -1.325  0.00  0.00    +0.040 C 
ATOM     21  C   UNL     1      -2.119  -1.620  -0.923  0.00  0.00    -0.062 C 
ATOM     22  C   UNL     1      -3.197  -1.126  -1.479  0.00  0.00    +0.009 C 
ENDBRANCH  19  21
ENDBRANCH   1  19
TORSDOF 3
