REMARK  Name = ZINC14251708
REMARK  6 active torsions:
REMARK  status: ('A' for Active; 'I' for Inactive)
REMARK    1  A    between atoms: C_10  and  C_13
REMARK    2  A    between atoms: C_13  and  C_14
REMARK    3  A    between atoms: N_16  and  N_17
REMARK    4  A    between atoms: C_18  and  C_20
REMARK    5  A    between atoms: C_20  and  S_21
REMARK    6  A    between atoms: S_21  and  C_22
REMARK                            x       y       z     vdW  Elec       q    Type
REMARK                         _______ _______ _______ _____ _____    ______ ____
ROOT
ATOM      1  C   UNL     1      -0.014   1.209   0.009  0.00  0.00    +0.231 C 
ATOM      2  O   UNL     1       0.002  -0.004   0.002  0.00  0.00    -0.274 OA
ATOM      3  N   UNL     1       1.143   1.898   0.001  0.00  0.00    -0.234 N 
ATOM      4  H   UNL     1       1.130   2.868   0.007  0.00  0.00    +0.173 HD
ENDROOT
BRANCH   3   5
ATOM      5  N   UNL     1       2.366   1.214  -0.014  0.00  0.00    -0.234 N 
ATOM      6  C   UNL     1       3.524   1.904  -0.021  0.00  0.00    +0.239 C 
ATOM      7  O   UNL     1       3.508   3.117  -0.015  0.00  0.00    -0.273 OA
ATOM      8  H   UNL     1       2.379   0.244  -0.019  0.00  0.00    +0.173 HD
BRANCH   6   9
ATOM      9  C   UNL     1       4.839   1.168  -0.038  0.00  0.00    +0.171 C 
BRANCH   9  10
ATOM     10  S   UNL     1       6.202   2.366  -0.044  0.00  0.00    -0.116 S 
BRANCH  10  11
ATOM     11  C   UNL     1       7.651   1.363  -0.064  0.00  0.00    +0.008 A 
ATOM     12  C   UNL     1       7.538  -0.022  -0.064  0.00  0.00    +0.016 A 
ATOM     13  C   UNL     1       8.675  -0.805  -0.084  0.00  0.00    +0.021 A 
ATOM     14  C   UNL     1       9.926  -0.212  -0.092  0.00  0.00    +0.041 A 
ATOM     15  C   UNL     1      10.041   1.167  -0.087  0.00  0.00    +0.021 A 
ATOM     16  C   UNL     1       8.907   1.956  -0.072  0.00  0.00    +0.016 A 
ATOM     17 CL   UNL     1      11.353  -1.200  -0.111  0.00  0.00    -0.084 Cl
ENDBRANCH  10  11
ENDBRANCH   9  10
ENDBRANCH   6   9
ENDBRANCH   3   5
BRANCH   1  18
ATOM     18  C   UNL     1      -1.330   1.944   0.019  0.00  0.00    +0.121 C 
BRANCH  18  28
ATOM     19  C   UNL     1      -4.201   2.968   4.529  0.00  0.00    +0.002 A 
ATOM     20  C   UNL     1      -3.293   2.018   4.962  0.00  0.00    +0.001 A 
ATOM     21  C   UNL     1      -2.757   1.116   4.062  0.00  0.00    +0.016 A 
ATOM     22  C   UNL     1      -3.128   1.169   2.728  0.00  0.00    +0.030 A 
ATOM     23  C   UNL     1      -4.026   2.138   2.279  0.00  0.00    +0.047 A 
ATOM     24  C   UNL     1      -4.570   3.027   3.200  0.00  0.00    +0.024 A 
ATOM     25  N   UNL     1      -4.408   2.219   0.943  0.00  0.00    -0.284 N 
ATOM     26  C   UNL     1      -3.793   1.662  -0.095  0.00  0.00    +0.231 C 
ATOM     27  O   UNL     1      -4.316   1.743  -1.186  0.00  0.00    -0.274 OA
ATOM     28  C   UNL     1      -2.479   0.934   0.019  0.00  0.00    +0.146 C 
ATOM     29  S   UNL     1      -2.473  -0.001   1.579  0.00  0.00    -0.110 S 
ATOM     30  H   UNL     1      -5.206   2.736   0.750  0.00  0.00    +0.155 HD
ENDBRANCH  18  28
ENDBRANCH   1  18
TORSDOF 6
