REMARK  Name = ZINC40480192
REMARK  5 active torsions:
REMARK  status: ('A' for Active; 'I' for Inactive)
REMARK    1  A    between atoms: C_1  and  C_2
REMARK    2  A    between atoms: C_5  and  N_11
REMARK    3  A    between atoms: C_6  and  C_8
REMARK    4  A    between atoms: C_12  and  C_14
REMARK    5  A    between atoms: C_14  and  N_19
REMARK                            x       y       z     vdW  Elec       q    Type
REMARK                         _______ _______ _______ _____ _____    ______ ____
ROOT
ATOM      1  N   UNL     1       0.037  -4.022  -0.066  0.00  0.00    -0.286 N 
ATOM      2  C   UNL     1      -0.097  -4.632  -1.260  0.00  0.00    +0.206 C 
ATOM      3  O   UNL     1      -0.132  -3.973  -2.278  0.00  0.00    -0.277 OA
ATOM      4  H   UNL     1       0.146  -4.551   0.739  0.00  0.00    +0.155 HD
ENDROOT
BRANCH   1   9
ATOM      5  C   UNL     1      -0.047   1.646   0.236  0.00  0.00    +0.044 C 
ATOM      6  C   UNL     1      -0.019   0.141   0.164  0.00  0.00    -0.050 A 
ATOM      7  C   UNL     1      -0.648  -0.510  -0.886  0.00  0.00    +0.005 A 
ATOM      8  C   UNL     1      -0.631  -1.888  -0.965  0.00  0.00    +0.024 A 
ATOM      9  C   UNL     1       0.019  -2.633   0.011  0.00  0.00    +0.048 A 
ATOM     10  C   UNL     1       0.657  -1.976   1.076  0.00  0.00    +0.085 A 
ATOM     11  C   UNL     1       0.635  -0.579   1.138  0.00  0.00    +0.020 A 
BRANCH  10  12
ATOM     12  C   UNL     1       1.349  -2.753   2.116  0.00  0.00    +0.388 C 
ATOM     13  O   UNL     1       1.821  -2.185   3.092  0.00  0.00    -0.241 OA
ATOM     14  O   UNL     1       1.453  -3.967   2.006  0.00  0.00    -0.241 OA
ENDBRANCH  10  12
ENDBRANCH   1   9
BRANCH   2  15
ATOM     15  C   UNL     1      -0.204  -6.134  -1.331  0.00  0.00    +0.007 C 
ATOM     16  C   UNL     1       1.201  -6.771  -1.475  0.00  0.00    -0.004 C 
ATOM     17  C   UNL     1       1.495  -6.612  -2.987  0.00  0.00    -0.001 C 
ATOM     18  C   UNL     1       0.134  -6.867  -3.667  0.00  0.00    -0.001 C 
ATOM     19  C   UNL     1      -0.947  -6.562  -2.614  0.00  0.00    -0.004 C 
BRANCH  15  20
ATOM     20  N   UNL     1      -0.889  -6.656  -0.142  0.00  0.00    +0.388 N 
ATOM     21  H   UNL     1      -1.821  -6.272  -0.095  0.00  0.00    -0.089 HD
ATOM     22  H   UNL     1      -0.943  -7.662  -0.199  0.00  0.00    -0.089 HD
ATOM     23  H   UNL     1      -0.375  -6.393   0.686  0.00  0.00    -0.089 HD
ENDBRANCH  15  20
ENDBRANCH   2  15
TORSDOF 4
