REMARK  Name = ZINC19847880
REMARK  4 active torsions:
REMARK  status: ('A' for Active; 'I' for Inactive)
REMARK    1  A    between atoms: C_3  and  S_11
REMARK    2  A    between atoms: C_6  and  C_7
REMARK    3  A    between atoms: N_8  and  O_9
REMARK    4  A    between atoms: S_11  and  C_12
REMARK                            x       y       z     vdW  Elec       q    Type
REMARK                         _______ _______ _______ _____ _____    ______ ____
ROOT
ATOM      1  C   UNL     1       3.887   2.673  -0.015  0.00  0.00    +0.015 A 
ATOM      2  C   UNL     1       5.118   3.297  -0.030  0.00  0.00    +0.036 A 
ATOM      3  C   UNL     1       5.176   4.689  -0.022  0.00  0.00    +0.103 A 
ATOM      4  N   UNL     1       4.068   5.416  -0.008  0.00  0.00    -0.248 NA
ATOM      5  C   UNL     1       2.874   4.860   0.001  0.00  0.00    +0.123 A 
ATOM      6  C   UNL     1       2.736   3.472  -0.005  0.00  0.00    +0.036 A 
ENDROOT
BRANCH   6   7
ATOM      7  C   UNL     1       1.393   2.853   0.004  0.00  0.00    +0.164 C 
ATOM      8  N   UNL     1       1.275   1.556  -0.002  0.00  0.00    -0.071 NA
ATOM      9  N   UNL     1       0.262   3.651   0.019  0.00  0.00    -0.340 N 
ATOM     10  H   UNL     1      -0.737   3.190   0.026  0.00  0.00    +0.144 HD
ATOM     11  H   UNL     1       0.362   4.747   0.024  0.00  0.00    +0.144 HD
BRANCH   8  12
ATOM     12  O   UNL     1      -0.011   0.963   0.007  0.00  0.00    -0.408 OA
ATOM     13  H   UNL     1      -0.111  -0.133   0.002  0.00  0.00    +0.328 HD
ENDBRANCH   8  12
ENDBRANCH   6   7
BRANCH   3  14
ATOM     14  S   UNL     1       6.744   5.493  -0.033  0.00  0.00    -0.041 S 
BRANCH  14  15
ATOM     15  C   UNL     1       6.342   7.209  -0.020  0.00  0.00    +0.164 A 
ATOM     16  N   UNL     1       5.159   7.809  -0.011  0.00  0.00    -0.135 NA
ATOM     17  N   UNL     1       5.050   9.065   0.002  0.00  0.00    -0.149 NA
ATOM     18  C   UNL     1       6.101   9.861  -0.004  0.00  0.00    +0.182 A 
ATOM     19  S   UNL     1       7.414   8.643  -0.022  0.00  0.00    -0.047 S 
ENDBRANCH  14  15
ENDBRANCH   3  14
TORSDOF 4
