REMARK  Name = ZINC12378548
REMARK  8 active torsions:
REMARK  status: ('A' for Active; 'I' for Inactive)
REMARK    1  A    between atoms: C_1  and  C_2
REMARK    2  A    between atoms: N_4  and  C_5
REMARK    3  A    between atoms: C_7  and  O_27
REMARK    4  A    between atoms: C_9  and  O_26
REMARK    5  A    between atoms: C_11  and  C_24
REMARK    6  A    between atoms: C_14  and  O_16
REMARK    7  A    between atoms: O_16  and  C_17
REMARK    8  A    between atoms: C_24  and  O_25
REMARK                            x       y       z     vdW  Elec       q    Type
REMARK                         _______ _______ _______ _____ _____    ______ ____
ROOT
ATOM      1  C   UNL     1       3.606   5.902  -0.249  0.00  0.00    +0.173 C 
ATOM      2  C   UNL     1       4.554   5.494   0.882  0.00  0.00    +0.172 C 
ATOM      3  C   UNL     1       3.961   5.947   2.220  0.00  0.00    +0.176 C 
ATOM      4  C   UNL     1       2.566   5.338   2.383  0.00  0.00    +0.179 C 
ATOM      5  O   UNL     1       1.744   5.732   1.282  0.00  0.00    -0.332 OA
ATOM      6  C   UNL     1       2.225   5.295   0.010  0.00  0.00    +0.331 C 
ENDROOT
BRANCH   1  10
ATOM      7  C   UNL     1       4.320   5.514  -3.990  0.00  0.00    +0.109 C 
ATOM      8  C   UNL     1       3.784   6.022  -2.676  0.00  0.00    +0.210 C 
ATOM      9  O   UNL     1       3.046   6.984  -2.653  0.00  0.00    -0.276 OA
ATOM     10  N   UNL     1       4.127   5.408  -1.526  0.00  0.00    -0.304 N 
ATOM     11  H   UNL     1       4.717   4.639  -1.544  0.00  0.00    +0.149 HD
ENDBRANCH   1  10
BRANCH   3  12
ATOM     12  O   UNL     1       3.865   7.373   2.241  0.00  0.00    -0.387 OA
ATOM     13  H   UNL     1       3.493   7.730   3.058  0.00  0.00    +0.210 HD
ENDBRANCH   3  12
BRANCH   2  14
ATOM     14  O   UNL     1       4.711   4.073   0.886  0.00  0.00    -0.387 OA
ATOM     15  H   UNL     1       5.295   3.744   1.583  0.00  0.00    +0.210 HD
ENDBRANCH   2  14
BRANCH   6  16
ATOM     16  O   UNL     1       2.322   3.869   0.001  0.00  0.00    -0.460 OA
BRANCH  16  17
ATOM     17  C   UNL     1       1.155   3.171   0.008  0.00  0.00    +0.142 A 
ATOM     18  C   UNL     1      -0.057   3.844   0.023  0.00  0.00    +0.047 A 
ATOM     19  C   UNL     1      -1.241   3.133   0.031  0.00  0.00    +0.004 A 
ATOM     20  C   UNL     1      -1.219   1.750   0.017  0.00  0.00    +0.002 A 
ATOM     21  C   UNL     1      -0.013   1.076   0.008  0.00  0.00    +0.023 A 
ATOM     22  C   UNL     1       1.175   1.783   0.000  0.00  0.00    +0.083 A 
ATOM     23 CL   UNL     1       2.691   0.936  -0.019  0.00  0.00    -0.080 Cl
ENDBRANCH  16  17
ENDBRANCH   6  16
BRANCH   4  24
ATOM     24  C   UNL     1       1.942   5.834   3.689  0.00  0.00    +0.190 C 
BRANCH  24  25
ATOM     25  O   UNL     1       0.691   5.178   3.898  0.00  0.00    -0.392 OA
ATOM     26  H   UNL     1       0.237   5.445   4.710  0.00  0.00    +0.210 HD
ENDBRANCH  24  25
ENDBRANCH   4  24
TORSDOF 7
