REMARK  Name = ZINC32743508
REMARK  4 active torsions:
REMARK  status: ('A' for Active; 'I' for Inactive)
REMARK    1  A    between atoms: C_8  and  C_12
REMARK    2  A    between atoms: C_12  and  N_13
REMARK    3  A    between atoms: N_13  and  C_14
REMARK    4  A    between atoms: C_17  and  N_23
REMARK                            x       y       z     vdW  Elec       q    Type
REMARK                         _______ _______ _______ _____ _____    ______ ____
ROOT
ATOM      1  N   UNL     1      -6.108   2.849   0.739  0.00  0.00    -0.342 N 
ATOM      2  H   UNL     1      -5.879   1.900   1.246  0.00  0.00    +0.146 HD
ENDROOT
BRANCH   1   3
ATOM      3  C   UNL     1      -7.429   3.265   0.607  0.00  0.00    +0.059 A 
ATOM      4  C   UNL     1      -7.730   4.441  -0.020  0.00  0.00    +0.027 A 
ATOM      5  C   UNL     1      -9.047   4.880  -0.165  0.00  0.00    +0.037 A 
ATOM      6  C   UNL     1     -10.110   4.177   0.300  0.00  0.00    +0.157 A 
ATOM      7  C   UNL     1      -9.910   2.952   0.962  0.00  0.00    +0.166 A 
ATOM      8  C   UNL     1      -8.521   2.453   1.129  0.00  0.00    +0.157 A 
ATOM      9  N   UNL     1      -8.691   1.327   1.769  0.00  0.00    -0.047 NA
ATOM     10  O   UNL     1      -9.879   1.150   1.954  0.00  0.00    -0.241 OA
ATOM     11  N   UNL     1     -10.623   2.013   1.533  0.00  0.00    -0.047 NA
BRANCH   6  12
ATOM     12  N   UNL     1     -11.482   4.700   0.112  0.00  0.00    +0.059 N 
ATOM     13  O   UNL     1     -11.656   5.761  -0.461  0.00  0.00    -0.126 OA
ATOM     14  O   UNL     1     -12.437   4.070   0.529  0.00  0.00    -0.126 OA
ENDBRANCH   6  12
ENDBRANCH   1   3
BRANCH   1  15
ATOM     15  C   UNL     1      -5.023   3.675   0.204  0.00  0.00    +0.108 C 
BRANCH  15  23
ATOM     16  C   UNL     1       1.157   3.162   0.008  0.00  0.00    +0.000 A 
ATOM     17  C   UNL     1       1.174   1.780   0.000  0.00  0.00    +0.004 A 
ATOM     18  C   UNL     1      -0.013   1.076   0.008  0.00  0.00    +0.046 A 
ATOM     19  C   UNL     1      -1.228   1.753   0.017  0.00  0.00    +0.124 A 
ATOM     20  C   UNL     1      -1.242   3.136   0.027  0.00  0.00    -0.005 A 
ATOM     21  C   UNL     1      -0.048   3.838   0.020  0.00  0.00    +0.007 A 
ATOM     22  C   UNL     1      -2.537   3.909   0.035  0.00  0.00    +0.047 C 
ATOM     23  C   UNL     1      -3.680   2.994   0.480  0.00  0.00    +0.048 C 
ATOM     24  C   UNL     1      -3.590   1.686  -0.317  0.00  0.00    +0.234 C 
ATOM     25  O   UNL     1      -2.375   1.025   0.040  0.00  0.00    -0.491 OA
ENDBRANCH  15  23
ENDBRANCH   1  15
TORSDOF 4
