REMARK  Name = ZINC67128685
REMARK  10 active torsions:
REMARK  status: ('A' for Active; 'I' for Inactive)
REMARK    1  A    between atoms: C_1  and  C_2
REMARK    2  A    between atoms: C_2  and  C_3
REMARK    3  A    between atoms: C_2  and  C_4
REMARK    4  A    between atoms: C_2  and  N_5
REMARK    5  A    between atoms: N_5  and  C_6
REMARK    6  A    between atoms: C_6  and  C_7
REMARK    7  A    between atoms: C_13  and  C_15
REMARK    8  A    between atoms: C_15  and  N_16
REMARK    9  A    between atoms: C_18  and  O_26
REMARK   10  A    between atoms: C_21  and  C_23
REMARK                            x       y       z     vdW  Elec       q    Type
REMARK                         _______ _______ _______ _____ _____    ______ ____
ROOT
ATOM      1  N   UNL     1       0.742  -0.121  -1.492  0.00  0.00    -0.294 N 
ATOM      2  C   UNL     1       0.184  -0.612  -2.616  0.00  0.00    +0.200 C 
ATOM      3  O   UNL     1       0.847  -0.717  -3.626  0.00  0.00    -0.278 OA
ENDROOT
BRANCH   1   5
ATOM      4  C   UNL     1       0.762   0.661   0.825  0.00  0.00    +0.031 C 
ATOM      5  C   UNL     1      -0.022  -0.105  -0.242  0.00  0.00    +0.029 C 
ATOM      6  C   UNL     1      -0.256  -1.542   0.231  0.00  0.00    +0.031 C 
ATOM      7  C   UNL     1      -1.369   0.581  -0.476  0.00  0.00    +0.031 C 
ENDBRANCH   1   5
BRANCH   1   8
ATOM      8  C   UNL     1       2.112   0.396  -1.520  0.00  0.00    +0.143 C 
BRANCH   8   9
ATOM      9  C   UNL     1       3.083  -0.744  -1.355  0.00  0.00    -0.030 A 
ATOM     10  C   UNL     1       3.472  -1.143  -0.090  0.00  0.00    +0.005 A 
ATOM     11  C   UNL     1       4.363  -2.190   0.062  0.00  0.00    +0.000 A 
ATOM     12  C   UNL     1       4.864  -2.837  -1.052  0.00  0.00    +0.000 A 
ATOM     13  C   UNL     1       4.474  -2.438  -2.317  0.00  0.00    +0.000 A 
ATOM     14  C   UNL     1       3.580  -1.395  -2.468  0.00  0.00    +0.005 A 
ENDBRANCH   8   9
ENDBRANCH   1   8
BRANCH   2  15
ATOM     15  C   UNL     1      -1.264  -1.028  -2.619  0.00  0.00    +0.020 C 
BRANCH  15  16
ATOM     16  N   UNL     1      -1.583  -1.682  -3.895  0.00  0.00    +0.395 N 
ATOM     17  C   UNL     1      -0.885  -2.990  -3.989  0.00  0.00    -0.045 C 
ATOM     18  C   UNL     1      -1.723  -3.765  -5.038  0.00  0.00    +0.097 C 
ATOM     19  C   UNL     1      -3.170  -3.326  -4.716  0.00  0.00    +0.023 C 
ATOM     20  C   UNL     1      -3.028  -1.991  -3.963  0.00  0.00    +0.022 C 
ATOM     21  H   UNL     1      -1.317  -1.089  -4.667  0.00  0.00    -0.080 HD
BRANCH  20  22
ATOM     22  C   UNL     1      -3.751  -0.900  -4.712  0.00  0.00    +0.197 C 
ATOM     23  O   UNL     1      -3.133   0.046  -5.150  0.00  0.00    -0.278 OA
ATOM     24  N   UNL     1      -5.084  -0.978  -4.893  0.00  0.00    -0.331 N 
ATOM     25  H   UNL     1      -5.579  -1.735  -4.542  0.00  0.00    +0.145 HD
ATOM     26  H   UNL     1      -5.550  -0.276  -5.375  0.00  0.00    +0.145 HD
ENDBRANCH  20  22
BRANCH  18  27
ATOM     27  O   UNL     1      -1.568  -5.175  -4.867  0.00  0.00    -0.394 OA
ATOM     28  H   UNL     1      -2.072  -5.705  -5.499  0.00  0.00    +0.210 HD
ENDBRANCH  18  27
ENDBRANCH  15  16
ENDBRANCH   2  15
TORSDOF 7
