REMARK  Name = ZINC27550694
REMARK  10 active torsions:
REMARK  status: ('A' for Active; 'I' for Inactive)
REMARK    1  A    between atoms: C_1  and  C_2
REMARK    2  A    between atoms: C_4  and  C_9
REMARK    3  A    between atoms: C_5  and  S_7
REMARK    4  A    between atoms: S_7  and  C_8
REMARK    5  A    between atoms: C_11  and  C_33
REMARK    6  A    between atoms: C_12  and  N_32
REMARK    7  A    between atoms: N_13  and  C_23
REMARK    8  A    between atoms: C_19  and  C_21
REMARK    9  A    between atoms: C_19  and  C_22
REMARK   10  A    between atoms: C_26  and  N_29
REMARK                            x       y       z     vdW  Elec       q    Type
REMARK                         _______ _______ _______ _____ _____    ______ ____
ROOT
ATOM      1  C   UNL     1      -1.483   1.743   4.723  0.00  0.00    +0.099 C 
ATOM      2  C   UNL     1      -0.516   2.664   5.407  0.00  0.00    +0.077 C 
ATOM      3  C   UNL     1      -0.424   2.705   6.761  0.00  0.00    +0.107 C 
ATOM      4  N   UNL     1      -1.230   1.899   7.533  0.00  0.00    -0.260 N 
ATOM      5  C   UNL     1      -2.377   1.358   7.012  0.00  0.00    +0.025 C 
ATOM      6  C   UNL     1      -2.550   1.268   5.676  0.00  0.00    +0.025 C 
ATOM      7  C   UNL     1      -3.730   0.730   5.134  0.00  0.00    +0.162 C 
ATOM      8  O   UNL     1      -3.852   0.656   3.927  0.00  0.00    -0.292 OA
ATOM      9  C   UNL     1      -4.845   0.243   6.018  0.00  0.00    +0.086 C 
ATOM     10  C   UNL     1      -4.818   1.029   7.334  0.00  0.00    -0.023 C 
ATOM     11  C   UNL     1      -3.435   0.865   7.968  0.00  0.00    +0.058 C 
ATOM     12  C   UNL     1      -5.082   2.510   7.053  0.00  0.00    +0.011 C 
ATOM     13  C   UNL     1      -5.890   0.485   8.280  0.00  0.00    +0.011 C 
ENDROOT
BRANCH   1  17
ATOM     14  C   UNL     1       1.465  -2.378   5.234  0.00  0.00    +0.051 C 
ATOM     15  C   UNL     1       0.635  -1.342   4.521  0.00  0.00    -0.012 A 
ATOM     16  C   UNL     1      -0.033  -0.284   5.038  0.00  0.00    +0.016 A 
ATOM     17  C   UNL     1      -0.734   0.551   4.186  0.00  0.00    -0.014 A 
ATOM     18  C   UNL     1      -0.738   0.272   2.851  0.00  0.00    +0.049 A 
ATOM     19  S   UNL     1       0.279  -1.194   2.778  0.00  0.00    -0.087 S 
BRANCH  18  20
ATOM     20  S   UNL     1      -1.534   1.137   1.539  0.00  0.00    -0.121 S 
ATOM     21  C   UNL     1      -1.086   0.193   0.056  0.00  0.00    +0.090 C 
ENDBRANCH  18  20
ENDBRANCH   1  17
BRANCH   4  22
ATOM     22  C   UNL     1      -0.876   1.630   8.860  0.00  0.00    +0.040 A 
ATOM     23  C   UNL     1      -1.262   2.498   9.873  0.00  0.00    +0.026 A 
ATOM     24  C   UNL     1      -0.916   2.227  11.182  0.00  0.00    +0.034 A 
ATOM     25  C   UNL     1      -0.176   1.098  11.483  0.00  0.00    +0.126 A 
ATOM     26  C   UNL     1       0.214   0.234  10.476  0.00  0.00    +0.034 A 
ATOM     27  C   UNL     1      -0.133   0.497   9.166  0.00  0.00    +0.026 A 
BRANCH  25  28
ATOM     28  N   UNL     1       0.199   0.814  12.887  0.00  0.00    +0.056 N 
ATOM     29  O   UNL     1       0.851  -0.180  13.153  0.00  0.00    -0.126 OA
ATOM     30  O   UNL     1      -0.144   1.573  13.775  0.00  0.00    -0.126 OA
ENDBRANCH  25  28
ENDBRANCH   4  22
BRANCH   3  31
ATOM     31  N   UNL     1       0.475   3.552   7.362  0.00  0.00    -0.345 N 
ATOM     32  H   UNL     1       0.551   3.586   8.459  0.00  0.00    +0.144 HD
ATOM     33  H   UNL     1       1.120   4.197   6.746  0.00  0.00    +0.144 HD
ENDBRANCH   3  31
BRANCH   2  34
ATOM     34  C   UNL     1       0.324   3.514   4.618  0.00  0.00    +0.099 C 
ATOM     35  N   UNL     1       0.990   4.189   3.992  0.00  0.00    -0.191 NA
ENDBRANCH   2  34
TORSDOF 6
