REMARK  Name = ZINC65265770
REMARK  5 active torsions:
REMARK  status: ('A' for Active; 'I' for Inactive)
REMARK    1  A    between atoms: C_1  and  O_2
REMARK    2  A    between atoms: O_2  and  C_3
REMARK    3  A    between atoms: C_3  and  C_4
REMARK    4  A    between atoms: C_4  and  N_5
REMARK    5  A    between atoms: C_21  and  C_23
REMARK                            x       y       z     vdW  Elec       q    Type
REMARK                         _______ _______ _______ _____ _____    ______ ____
ROOT
ATOM      1  N   UNL     1      -0.515  -2.565   1.245  0.00  0.00    -0.373 N 
ATOM      2  C   UNL     1      -0.296  -3.823   1.450  0.00  0.00    +0.095 C 
ATOM      3  N   UNL     1      -0.642  -4.778   0.525  0.00  0.00    -0.303 N 
ATOM      4  C   UNL     1       0.290  -5.150  -0.438  0.00  0.00    +0.037 A 
ATOM      5  C   UNL     1      -0.094  -5.272  -1.766  0.00  0.00    +0.023 A 
ATOM      6  C   UNL     1       0.825  -5.656  -2.722  0.00  0.00    +0.002 A 
ATOM      7  C   UNL     1       2.130  -5.919  -2.343  0.00  0.00    +0.000 A 
ATOM      8  C   UNL     1       2.513  -5.792  -1.026  0.00  0.00    +0.007 A 
ATOM      9  C   UNL     1       1.601  -5.398  -0.050  0.00  0.00    -0.012 A 
ATOM     10  C   UNL     1       2.128  -5.254   1.355  0.00  0.00    +0.119 C 
ATOM     11  N   UNL     1       1.109  -5.536   2.374  0.00  0.00    -0.299 NA
ATOM     12  C   UNL     1       0.350  -4.313   2.701  0.00  0.00    +0.091 C 
ATOM     13  C   UNL     1      -0.678  -4.599   3.808  0.00  0.00    +0.050 C 
ATOM     14  C   UNL     1       0.157  -4.446   5.099  0.00  0.00    +0.110 C 
ATOM     15  N   UNL     1       1.337  -3.633   4.764  0.00  0.00    -0.294 N 
ATOM     16  C   UNL     1       1.264  -3.257   3.337  0.00  0.00    +0.138 C 
ATOM     17  C   UNL     1       2.321  -3.289   5.617  0.00  0.00    +0.265 C 
ATOM     18  O   UNL     1       3.252  -2.611   5.230  0.00  0.00    -0.268 OA
ATOM     19  H   UNL     1      -0.257  -1.913   1.914  0.00  0.00    +0.161 HD
ATOM     20  H   UNL     1       0.493  -6.278   2.075  0.00  0.00    +0.123 HD
ATOM     21  H   UNL     1      -1.522  -5.185   0.542  0.00  0.00    +0.153 HD
ENDROOT
BRANCH  17  22
ATOM     22  C   UNL     1       2.268  -3.737   7.030  0.00  0.00    +0.126 A 
ATOM     23  C   UNL     1       3.299  -3.365   7.906  0.00  0.00    +0.033 A 
ATOM     24  C   UNL     1       3.262  -3.771   9.208  0.00  0.00    +0.012 A 
ATOM     25  C   UNL     1       2.175  -4.560   9.630  0.00  0.00    +0.000 A 
ATOM     26  C   UNL     1       2.073  -5.013  10.955  0.00  0.00    +0.010 A 
ATOM     27  C   UNL     1       1.007  -5.774  11.327  0.00  0.00    +0.001 A 
ATOM     28  C   UNL     1       0.013  -6.111  10.409  0.00  0.00    +0.002 A 
ATOM     29  C   UNL     1       0.079  -5.691   9.117  0.00  0.00    +0.028 A 
ATOM     30  C   UNL     1       1.165  -4.902   8.693  0.00  0.00    +0.072 A 
ATOM     31  N   UNL     1       1.251  -4.473   7.434  0.00  0.00    -0.242 NA
ENDBRANCH  17  22
BRANCH   1  32
ATOM     32  C   UNL     1      -1.154  -2.126   0.002  0.00  0.00    +0.141 C 
BRANCH  32  33
ATOM     33  C   UNL     1      -1.295  -0.603   0.011  0.00  0.00    +0.180 C 
BRANCH  33  35
ATOM     34  C   UNL     1      -0.017   1.425   0.010  0.00  0.00    +0.194 C 
ATOM     35  O   UNL     1       0.002  -0.004   0.002  0.00  0.00    -0.381 OA
ENDBRANCH  33  35
ENDBRANCH  32  33
ENDBRANCH   1  32
TORSDOF 4
