REMARK  Name = ZINC67557895
REMARK  4 active torsions:
REMARK  status: ('A' for Active; 'I' for Inactive)
REMARK    1  A    between atoms: C_1  and  C_2
REMARK    2  A    between atoms: C_7  and  C_10
REMARK    3  A    between atoms: N_18  and  C_19
REMARK    4  A    between atoms: C_23  and  N_25
REMARK                            x       y       z     vdW  Elec       q    Type
REMARK                         _______ _______ _______ _____ _____    ______ ____
ROOT
ATOM      1  C   UNL     1      -1.263   0.718   0.966  0.00  0.00    +0.039 C 
ATOM      2  C   UNL     1      -0.713  -0.690   0.724  0.00  0.00    +0.133 C 
ATOM      3  C   UNL     1      -0.281  -0.826  -0.741  0.00  0.00    +0.140 C 
ATOM      4  N   UNL     1       0.412  -2.114  -0.902  0.00  0.00    -0.280 N 
ATOM      5  C   UNL     1       1.495  -2.440   0.039  0.00  0.00    +0.145 C 
ATOM      6  C   UNL     1       0.976  -2.225   1.466  0.00  0.00    +0.166 C 
ATOM      7  O   UNL     1       0.415  -0.914   1.571  0.00  0.00    -0.366 OA
ATOM      8  C   UNL     1       0.065  -2.970  -1.884  0.00  0.00    +0.307 C 
ATOM      9  O   UNL     1      -0.893  -2.727  -2.592  0.00  0.00    -0.252 OA
ATOM     10  N   UNL     1       0.780  -4.096  -2.080  0.00  0.00    -0.269 N 
ATOM     11  H   UNL     1       1.496  -4.328  -1.469  0.00  0.00    +0.156 HD
ENDROOT
BRANCH  10  12
ATOM     12  C   UNL     1       0.489  -4.929  -3.167  0.00  0.00    +0.037 A 
ATOM     13  C   UNL     1       0.038  -4.382  -4.361  0.00  0.00    +0.025 A 
ATOM     14  C   UNL     1      -0.248  -5.206  -5.432  0.00  0.00    +0.024 A 
ATOM     15  C   UNL     1      -0.085  -6.576  -5.315  0.00  0.00    +0.071 A 
ATOM     16  C   UNL     1       0.364  -7.123  -4.126  0.00  0.00    +0.146 A 
ATOM     17  C   UNL     1       0.657  -6.302  -3.054  0.00  0.00    +0.057 A 
ATOM     18 CL   UNL     1      -0.447  -7.609  -6.663  0.00  0.00    -0.081 Cl
BRANCH  16  19
ATOM     19  N   UNL     1       0.537  -8.588  -4.005  0.00  0.00    +0.058 N 
ATOM     20  O   UNL     1       0.929  -9.066  -2.967  0.00  0.00    -0.126 OA
ATOM     21  O   UNL     1       0.285  -9.306  -4.945  0.00  0.00    -0.126 OA
ENDBRANCH  16  19
ENDBRANCH  10  12
BRANCH   6  22
ATOM     22  C   UNL     1       2.114  -2.367   2.442  0.00  0.00    -0.017 A 
ATOM     23  C   UNL     1       2.925  -1.283   2.722  0.00  0.00    +0.006 A 
ATOM     24  C   UNL     1       3.969  -1.413   3.618  0.00  0.00    +0.000 A 
ATOM     25  C   UNL     1       4.203  -2.628   4.235  0.00  0.00    +0.000 A 
ATOM     26  C   UNL     1       3.393  -3.712   3.955  0.00  0.00    +0.000 A 
ATOM     27  C   UNL     1       2.345  -3.581   3.063  0.00  0.00    +0.006 A 
ENDBRANCH   6  22
TORSDOF 3
