REMARK  Name = ZINC65882273
REMARK  11 active torsions:
REMARK  status: ('A' for Active; 'I' for Inactive)
REMARK    1  A    between atoms: C_1  and  C_2
REMARK    2  A    between atoms: C_2  and  C_3
REMARK    3  A    between atoms: C_3  and  C_4
REMARK    4  A    between atoms: C_4  and  C_5
REMARK    5  A    between atoms: C_4  and  N_23
REMARK    6  A    between atoms: N_7  and  C_8
REMARK    7  A    between atoms: C_11  and  C_14
REMARK    8  A    between atoms: C_16  and  C_19
REMARK    9  A    between atoms: C_19  and  C_20
REMARK   10  A    between atoms: C_19  and  C_21
REMARK   11  A    between atoms: C_19  and  C_22
REMARK                            x       y       z     vdW  Elec       q    Type
REMARK                         _______ _______ _______ _____ _____    ______ ____
ROOT
ATOM      1  C   UNL     1      -2.613  -3.098  -0.353  0.00  0.00    +0.238 C 
ATOM      2  O   UNL     1      -3.006  -3.953   0.412  0.00  0.00    -0.273 OA
ATOM      3  N   UNL     1      -3.433  -2.620  -1.310  0.00  0.00    -0.284 N 
ATOM      4  H   UNL     1      -3.142  -1.890  -1.878  0.00  0.00    +0.155 HD
ENDROOT
BRANCH   3   5
ATOM      5  C   UNL     1      -4.704  -3.175  -1.482  0.00  0.00    +0.033 A 
ATOM      6  C   UNL     1      -5.422  -3.620  -0.378  0.00  0.00    +0.024 A 
ATOM      7  C   UNL     1      -6.676  -4.168  -0.546  0.00  0.00    +0.013 A 
ATOM      8  C   UNL     1      -7.223  -4.277  -1.823  0.00  0.00    +0.023 A 
ATOM      9  C   UNL     1      -6.500  -3.830  -2.929  0.00  0.00    +0.013 A 
ATOM     10  C   UNL     1      -5.250  -3.277  -2.756  0.00  0.00    +0.024 A 
BRANCH   8  11
ATOM     11  C   UNL     1      -8.571  -4.867  -2.006  0.00  0.00    +0.202 A 
ATOM     12  N   UNL     1      -9.203  -5.031  -3.183  0.00  0.00    -0.191 NA
ATOM     13  C   UNL     1     -10.369  -5.577  -2.990  0.00  0.00    +0.233 A 
ATOM     14  O   UNL     1     -10.529  -5.786  -1.677  0.00  0.00    -0.337 OA
ATOM     15  N   UNL     1      -9.343  -5.321  -1.050  0.00  0.00    -0.056 NA
BRANCH  13  16
ATOM     16  C   UNL     1     -11.371  -5.918  -4.064  0.00  0.00    +0.041 C 
ATOM     17  C   UNL     1     -10.747  -6.910  -5.047  0.00  0.00    +0.020 C 
ATOM     18  C   UNL     1     -12.611  -6.545  -3.424  0.00  0.00    +0.020 C 
ATOM     19  C   UNL     1     -11.771  -4.643  -4.811  0.00  0.00    +0.020 C 
ENDBRANCH  13  16
ENDBRANCH   8  11
ENDBRANCH   3   5
BRANCH   1  20
ATOM     20  C   UNL     1      -1.206  -2.571  -0.235  0.00  0.00    +0.161 C 
BRANCH  20  21
ATOM     21  N   UNL     1      -0.386  -3.529   0.511  0.00  0.00    -0.288 N 
ATOM     22  C   UNL     1      -0.718  -3.859   1.775  0.00  0.00    +0.298 C 
ATOM     23  O   UNL     1      -1.697  -3.361   2.296  0.00  0.00    -0.253 OA
ATOM     24  N   UNL     1       0.036  -4.740   2.462  0.00  0.00    -0.313 N 
ATOM     25  H   UNL     1       0.395  -3.926   0.096  0.00  0.00    +0.151 HD
ATOM     26  H   UNL     1       0.817  -5.137   2.046  0.00  0.00    +0.146 HD
ATOM     27  H   UNL     1      -0.203  -4.978   3.371  0.00  0.00    +0.146 HD
ENDBRANCH  20  21
BRANCH  20  28
ATOM     28  C   UNL     1      -1.224  -1.231   0.504  0.00  0.00    +0.031 C 
BRANCH  28  30
ATOM     29  C   UNL     1       0.168   0.704   1.255  0.00  0.00    +0.004 C 
ATOM     30  C   UNL     1       0.186  -0.636   0.516  0.00  0.00    -0.001 C 
ENDBRANCH  28  30
ENDBRANCH  20  28
ENDBRANCH   1  20
TORSDOF 7
