REMARK  Name = ZINC02645217
REMARK  5 active torsions:
REMARK  status: ('A' for Active; 'I' for Inactive)
REMARK    1  A    between atoms: C_4  and  N_7
REMARK    2  A    between atoms: C_8  and  C_17
REMARK    3  A    between atoms: C_11  and  S_12
REMARK    4  A    between atoms: S_12  and  C_13
REMARK    5  A    between atoms: C_13  and  C_14
REMARK                            x       y       z     vdW  Elec       q    Type
REMARK                         _______ _______ _______ _____ _____    ______ ____
ROOT
ATOM      1  N   UNL     1       1.315  -0.391  -0.013  0.00  0.00    -0.270 N 
ATOM      2  C   UNL     1       2.045   0.777  -0.013  0.00  0.00    +0.169 A 
ATOM      3  N   UNL     1       1.184   1.769   0.000  0.00  0.00    -0.128 NA
ATOM      4  N   UNL     1      -0.016   1.310   0.009  0.00  0.00    -0.122 NA
ATOM      5  C   UNL     1       0.002  -0.004   0.002  0.00  0.00    +0.197 A 
ENDROOT
BRANCH   2   6
ATOM      6  C   UNL     1       3.518   0.893  -0.026  0.00  0.00    +0.023 A 
ATOM      7  C   UNL     1       4.304  -0.214  -0.352  0.00  0.00    +0.015 A 
ATOM      8  C   UNL     1       5.679  -0.104  -0.364  0.00  0.00    +0.050 A 
ATOM      9  C   UNL     1       6.285   1.104  -0.053  0.00  0.00    +0.166 A 
ATOM     10  C   UNL     1       5.506   2.213   0.273  0.00  0.00    +0.167 A 
ATOM     11  C   UNL     1       4.128   2.111   0.281  0.00  0.00    +0.061 A 
ATOM     12  O   UNL     1       6.335   3.266   0.536  0.00  0.00    -0.453 OA
ATOM     13  C   UNL     1       7.608   2.903  -0.029  0.00  0.00    +0.466 C 
ATOM     14  O   UNL     1       7.601   1.464   0.006  0.00  0.00    -0.453 OA
ENDBRANCH   2   6
BRANCH   1  18
ATOM     15  C   UNL     1       2.795  -4.288  -0.047  0.00  0.00    +0.000 A 
ATOM     16  C   UNL     1       2.066  -3.817  -1.124  0.00  0.00    +0.002 A 
ATOM     17  C   UNL     1       1.574  -2.526  -1.115  0.00  0.00    +0.026 A 
ATOM     18  C   UNL     1       1.812  -1.702  -0.024  0.00  0.00    +0.051 A 
ATOM     19  C   UNL     1       2.549  -2.175   1.053  0.00  0.00    +0.026 A 
ATOM     20  C   UNL     1       3.034  -3.469   1.041  0.00  0.00    +0.002 A 
ENDBRANCH   1  18
BRANCH   5  21
ATOM     21  S   UNL     1      -1.402  -1.069   0.010  0.00  0.00    -0.076 S 
BRANCH  21  22
ATOM     22  C   UNL     1      -2.729   0.162   0.029  0.00  0.00    +0.172 C 
BRANCH  22  23
ATOM     23  C   UNL     1      -4.063  -0.539   0.039  0.00  0.00    +0.221 C 
ATOM     24  O   UNL     1      -4.112  -1.751   0.033  0.00  0.00    -0.275 OA
ATOM     25  N   UNL     1      -5.203   0.181   0.053  0.00  0.00    -0.329 N 
ATOM     26  H   UNL     1      -5.164   1.150   0.058  0.00  0.00    +0.145 HD
ATOM     27  H   UNL     1      -6.061  -0.270   0.059  0.00  0.00    +0.145 HD
ENDBRANCH  22  23
ENDBRANCH  21  22
ENDBRANCH   5  21
TORSDOF 5
