REMARK  Name = ZINC15967744
REMARK  5 active torsions:
REMARK  status: ('A' for Active; 'I' for Inactive)
REMARK    1  A    between atoms: C_16  and  C_19
REMARK    2  A    between atoms: C_19  and  C_20
REMARK    3  A    between atoms: C_20  and  C_21
REMARK    4  A    between atoms: N_26  and  C_29
REMARK    5  A    between atoms: C_29  and  C_30
REMARK                            x       y       z     vdW  Elec       q    Type
REMARK                         _______ _______ _______ _____ _____    ______ ____
ROOT
ATOM      1  C   UNL     1      -0.017   1.378   0.010  0.00  0.00    +0.002 A 
ATOM      2  C   UNL     1       1.174   2.083   0.002  0.00  0.00    +0.008 A 
ATOM      3  C   UNL     1       2.375   1.409  -0.013  0.00  0.00    +0.005 A 
ATOM      4  C   UNL     1       2.407   0.018  -0.020  0.00  0.00    +0.057 A 
ATOM      5  C   UNL     1       1.203  -0.685  -0.013  0.00  0.00    +0.062 A 
ATOM      6  C   UNL     1       0.002  -0.004   0.002  0.00  0.00    +0.022 A 
ATOM      7 CL   UNL     1       1.215  -2.421  -0.023  0.00  0.00    -0.082 Cl
ATOM      8  N   UNL     1       3.728  -0.434  -0.032  0.00  0.00    -0.282 N 
ATOM      9  C   UNL     1       4.613   0.582  -0.034  0.00  0.00    +0.243 C 
ATOM     10  O   UNL     1       5.822   0.489  -0.041  0.00  0.00    -0.273 OA
ATOM     11  C   UNL     1       3.810   1.853  -0.024  0.00  0.00    +0.136 C 
ATOM     12  C   UNL     1       4.142   2.718   1.197  0.00  0.00    +0.122 C 
ATOM     13  C   UNL     1       5.149   3.776   0.667  0.00  0.00    +0.107 C 
ATOM     14  C   UNL     1       5.329   3.436  -0.828  0.00  0.00    +0.068 C 
ATOM     15  N   UNL     1       4.109   2.687  -1.204  0.00  0.00    -0.295 NA
ATOM     16  C   UNL     1       6.420   3.454   1.421  0.00  0.00    +0.227 C 
ATOM     17  O   UNL     1       7.471   4.049   1.308  0.00  0.00    -0.275 OA
ATOM     18  N   UNL     1       6.205   2.411   2.230  0.00  0.00    -0.237 N 
ATOM     19  C   UNL     1       4.948   1.914   2.191  0.00  0.00    +0.229 C 
ATOM     20  O   UNL     1       4.530   0.978   2.839  0.00  0.00    -0.275 OA
ATOM     21  H   UNL     1       3.980  -1.371  -0.039  0.00  0.00    +0.155 HD
ATOM     22  H   UNL     1       4.267   2.115  -2.020  0.00  0.00    +0.123 HD
ENDROOT
BRANCH  14  23
ATOM     23  C   UNL     1       5.465   4.717  -1.653  0.00  0.00    +0.031 C 
BRANCH  23  24
ATOM     24  C   UNL     1       5.766   4.357  -3.109  0.00  0.00    +0.126 C 
BRANCH  24  25
ATOM     25  C   UNL     1       5.900   5.619  -3.921  0.00  0.00    +0.356 C 
ATOM     26  O   UNL     1       5.766   6.706  -3.385  0.00  0.00    -0.246 OA
ATOM     27  O   UNL     1       6.141   5.553  -5.114  0.00  0.00    -0.246 OA
ENDBRANCH  24  25
ENDBRANCH  23  24
ENDBRANCH  14  23
BRANCH  18  28
ATOM     28  C   UNL     1       7.247   1.853   3.097  0.00  0.00    +0.151 C 
BRANCH  28  29
ATOM     29  C   UNL     1       7.214   2.548   4.433  0.00  0.00    -0.026 A 
ATOM     30  C   UNL     1       7.971   3.687   4.637  0.00  0.00    +0.009 A 
ATOM     31  C   UNL     1       7.944   4.328   5.862  0.00  0.00    +0.050 A 
ATOM     32  C   UNL     1       7.158   3.830   6.888  0.00  0.00    +0.166 A 
ATOM     33  C   UNL     1       6.395   2.683   6.683  0.00  0.00    +0.167 A 
ATOM     34  C   UNL     1       6.423   2.048   5.451  0.00  0.00    +0.054 A 
ATOM     35  O   UNL     1       5.717   2.398   7.832  0.00  0.00    -0.453 OA
ATOM     36  C   UNL     1       6.384   3.144   8.867  0.00  0.00    +0.466 C 
ATOM     37  O   UNL     1       6.957   4.264   8.166  0.00  0.00    -0.453 OA
ENDBRANCH  28  29
ENDBRANCH  18  28
TORSDOF 5
