REMARK  Name = ZINC39445092
REMARK  7 active torsions:
REMARK  status: ('A' for Active; 'I' for Inactive)
REMARK    1  A    between atoms: C_1  and  O_2
REMARK    2  A    between atoms: O_2  and  C_3
REMARK    3  A    between atoms: C_5  and  N_25
REMARK    4  A    between atoms: C_8  and  C_9
REMARK    5  A    between atoms: C_9  and  O_11
REMARK    6  A    between atoms: O_11  and  C_12
REMARK    7  A    between atoms: C_12  and  C_13
REMARK                            x       y       z     vdW  Elec       q    Type
REMARK                         _______ _______ _______ _____ _____    ______ ____
ROOT
ATOM      1  C   UNL     1       0.068  -2.828  -0.063  0.00  0.00    +0.343 C 
ATOM      2  O   UNL     1      -0.473  -2.294   0.885  0.00  0.00    -0.245 OA
ENDROOT
BRANCH   1   8
ATOM      3  C   UNL     1       0.605  -0.606  -1.054  0.00  0.00    +0.136 A 
ATOM      4  C   UNL     1       1.171   0.158  -2.059  0.00  0.00    +0.070 A 
ATOM      5  C   UNL     1       1.787  -0.464  -3.138  0.00  0.00    +0.047 A 
ATOM      6  C   UNL     1       1.836  -1.857  -3.212  0.00  0.00    +0.063 A 
ATOM      7  C   UNL     1       1.280  -2.619  -2.226  0.00  0.00    +0.040 A 
ATOM      8  C   UNL     1       0.662  -2.007  -1.129  0.00  0.00    +0.102 A 
ATOM      9 CL   UNL     1       2.608  -2.623  -4.565  0.00  0.00    -0.082 Cl
BRANCH   5  10
ATOM     10  N   UNL     1       2.356   0.304  -4.148  0.00  0.00    -0.357 N 
ATOM     11  H   UNL     1       2.323   1.272  -4.099  0.00  0.00    +0.142 HD
ATOM     12  H   UNL     1       2.787  -0.129  -4.902  0.00  0.00    +0.142 HD
ENDBRANCH   5  10
BRANCH   3  14
ATOM     13  C   UNL     1      -0.017   1.425   0.010  0.00  0.00    +0.277 C 
ATOM     14  O   UNL     1       0.002  -0.004   0.002  0.00  0.00    -0.494 OA
ENDBRANCH   3  14
ENDBRANCH   1   8
BRANCH   1  15
ATOM     15  O   UNL     1       0.125  -4.173  -0.138  0.00  0.00    -0.453 OA
BRANCH  15  16
ATOM     16  C   UNL     1      -0.472  -4.908   0.933  0.00  0.00    +0.305 C 
BRANCH  16  17
ATOM     17  C   UNL     1      -0.313  -6.384   0.678  0.00  0.00    +0.160 C 
ATOM     18  N   UNL     1       0.314  -6.769  -0.414  0.00  0.00    -0.161 NA
ATOM     19  C   UNL     1       0.304  -8.033  -0.857  0.00  0.00    +0.257 C 
ATOM     20  O   UNL     1       1.033  -8.396  -1.759  0.00  0.00    -0.272 OA
ATOM     21  C   UNL     1      -0.645  -8.978  -0.189  0.00  0.00    +0.187 C 
ATOM     22  C   UNL     1      -0.795  -8.534   1.260  0.00  0.00    +0.066 C 
ATOM     23  N   UNL     1      -0.807  -7.236   1.569  0.00  0.00    -0.234 NA
ATOM     24  C   UNL     1      -0.669  -9.591   2.126  0.00  0.00    +0.032 C 
ATOM     25  C   UNL     1      -0.242 -10.808   1.697  0.00  0.00    +0.043 C 
ATOM     26  S   UNL     1       0.017 -10.664   0.019  0.00  0.00    -0.114 S 
ENDBRANCH  16  17
ENDBRANCH  15  16
ENDBRANCH   1  15
TORSDOF 6
