REMARK  Name = ZINC09777274
REMARK  9 active torsions:
REMARK  status: ('A' for Active; 'I' for Inactive)
REMARK    1  A    between atoms: C_1  and  C_2
REMARK    2  A    between atoms: C_2  and  C_3
REMARK    3  A    between atoms: C_3  and  N_4
REMARK    4  A    between atoms: C_5  and  C_35
REMARK    5  A    between atoms: C_13  and  C_19
REMARK    6  A    between atoms: N_21  and  C_22
REMARK    7  A    between atoms: C_25  and  O_28
REMARK    8  A    between atoms: O_28  and  C_29
REMARK    9  A    between atoms: N_37  and  C_38
REMARK                            x       y       z     vdW  Elec       q    Type
REMARK                         _______ _______ _______ _____ _____    ______ ____
ROOT
ATOM      1  N   UNL     1       1.828   5.612  -0.751  0.00  0.00    -0.287 N 
ATOM      2  C   UNL     1       0.599   4.988  -1.336  0.00  0.00    +0.198 C 
ATOM      3  C   UNL     1       0.492   3.719  -0.550  0.00  0.00    +0.127 C 
ATOM      4  C   UNL     1       0.069   3.951   0.889  0.00  0.00    +0.009 C 
ATOM      5  C   UNL     1       0.015   2.735   1.460  0.00  0.00    +0.004 C 
ATOM      6  C   UNL     1       0.465   1.781   0.346  0.00  0.00    +0.155 C 
ATOM      7  O   UNL     1      -0.052   2.461  -0.873  0.00  0.00    -0.358 OA
ATOM      8  C   UNL     1       2.012   2.079   0.260  0.00  0.00    +0.123 C 
ATOM      9  C   UNL     1       2.027   3.338  -0.569  0.00  0.00    +0.128 C 
ATOM     10  C   UNL     1       2.624   4.635  -0.203  0.00  0.00    +0.223 C 
ATOM     11  O   UNL     1       3.627   4.808   0.457  0.00  0.00    -0.275 OA
ENDROOT
BRANCH   8  12
ATOM     12  C   UNL     1       2.593   2.324   1.628  0.00  0.00    +0.224 C 
ATOM     13  O   UNL     1       2.439   3.398   2.169  0.00  0.00    -0.275 OA
ATOM     14  N   UNL     1       3.284   1.349   2.251  0.00  0.00    -0.285 N 
ATOM     15  H   UNL     1       3.466   0.514   1.792  0.00  0.00    +0.155 HD
BRANCH  14  16
ATOM     16  C   UNL     1       3.741   1.541   3.562  0.00  0.00    +0.034 A 
ATOM     17  C   UNL     1       4.192   2.792   3.963  0.00  0.00    +0.027 A 
ATOM     18  C   UNL     1       4.636   2.982   5.257  0.00  0.00    +0.048 A 
ATOM     19  C   UNL     1       4.642   1.922   6.152  0.00  0.00    +0.129 A 
ATOM     20  C   UNL     1       4.197   0.671   5.749  0.00  0.00    +0.048 A 
ATOM     21  C   UNL     1       3.747   0.481   4.458  0.00  0.00    +0.027 A 
BRANCH  19  22
ATOM     22  O   UNL     1       5.085   2.109   7.424  0.00  0.00    -0.456 OA
BRANCH  22  23
ATOM     23  C   UNL     1       5.512   3.351   7.774  0.00  0.00    +0.128 A 
ATOM     24  C   UNL     1       6.870   3.628   7.833  0.00  0.00    +0.046 A 
ATOM     25  C   UNL     1       7.301   4.892   8.185  0.00  0.00    +0.004 A 
ATOM     26  C   UNL     1       6.381   5.878   8.488  0.00  0.00    +0.000 A 
ATOM     27  C   UNL     1       5.027   5.603   8.436  0.00  0.00    +0.004 A 
ATOM     28  C   UNL     1       4.590   4.342   8.080  0.00  0.00    +0.046 A 
ENDBRANCH  22  23
ENDBRANCH  19  22
ENDBRANCH  14  16
ENDBRANCH   8  12
BRANCH   2  29
ATOM     29  C   UNL     1      -0.608   5.863  -1.114  0.00  0.00    +0.237 C 
ATOM     30  O   UNL     1      -0.597   6.699  -0.235  0.00  0.00    -0.274 OA
ATOM     31  N   UNL     1      -1.699   5.716  -1.891  0.00  0.00    -0.311 N 
ATOM     32  H   UNL     1      -1.708   5.048  -2.593  0.00  0.00    +0.149 HD
BRANCH  31  33
ATOM     33  C   UNL     1      -2.872   6.567  -1.674  0.00  0.00    +0.073 C 
ATOM     34  C   UNL     1      -3.750   5.956  -0.580  0.00  0.00    +0.022 C 
ATOM     35  C   UNL     1      -4.975   6.845  -0.354  0.00  0.00    +0.002 C 
ATOM     36  C   UNL     1      -5.777   6.947  -1.652  0.00  0.00    +0.000 C 
ATOM     37  C   UNL     1      -4.899   7.558  -2.747  0.00  0.00    +0.002 C 
ATOM     38  C   UNL     1      -3.674   6.670  -2.973  0.00  0.00    +0.022 C 
ENDBRANCH  31  33
ENDBRANCH   2  29
BRANCH   1  39
ATOM     39  C   UNL     1       2.135   7.044  -0.762  0.00  0.00    +0.108 C 
BRANCH  39  41
ATOM     40  C   UNL     1       3.299   8.867  -2.013  0.00  0.00    +0.005 C 
ATOM     41  C   UNL     1       2.877   7.397  -2.053  0.00  0.00    +0.016 C 
ENDBRANCH  39  41
ENDBRANCH   1  39
TORSDOF 8
