REMARK  Name = ZINC44896121
REMARK  4 active torsions:
REMARK  status: ('A' for Active; 'I' for Inactive)
REMARK    1  A    between atoms: C_1  and  C_2
REMARK    2  A    between atoms: C_2  and  C_4
REMARK    3  A    between atoms: C_2  and  N_11
REMARK    4  A    between atoms: C_12  and  C_14
REMARK                            x       y       z     vdW  Elec       q    Type
REMARK                         _______ _______ _______ _____ _____    ______ ____
ROOT
ATOM      1  N   UNL     1       0.712  -0.475   1.193  0.00  0.00    -0.305 N 
ATOM      2  C   UNL     1       2.054  -0.600   1.174  0.00  0.00    +0.251 C 
ATOM      3  O   UNL     1       2.669  -0.397   0.144  0.00  0.00    -0.270 OA
ATOM      4  H   UNL     1       0.214  -0.708   1.992  0.00  0.00    +0.150 HD
ENDROOT
BRANCH   2   5
ATOM      5  C   UNL     1       2.772  -0.980   2.395  0.00  0.00    +0.119 A 
ATOM      6  C   UNL     1       4.174  -0.999   2.426  0.00  0.00    +0.131 A 
ATOM      7  N   UNL     1       4.800  -1.343   3.532  0.00  0.00    -0.237 NA
ATOM      8  C   UNL     1       4.134  -1.679   4.640  0.00  0.00    +0.140 A 
ATOM      9  C   UNL     1       4.854  -2.037   5.792  0.00  0.00    +0.047 A 
ATOM     10  C   UNL     1       4.180  -2.382   6.927  0.00  0.00    +0.005 A 
ATOM     11  C   UNL     1       2.779  -2.373   6.927  0.00  0.00    +0.018 A 
ATOM     12  C   UNL     1       2.103  -2.025   5.808  0.00  0.00    +0.096 A 
ATOM     13  N   UNL     1       2.768  -1.679   4.671  0.00  0.00    -0.268 N 
ATOM     14  C   UNL     1       2.067  -1.331   3.571  0.00  0.00    +0.270 A 
ATOM     15  O   UNL     1       0.848  -1.324   3.589  0.00  0.00    -0.266 OA
ENDBRANCH   2   5
BRANCH   1  17
ATOM     16  C   UNL     1       0.001   1.544   0.009  0.00  0.00    +0.033 C 
ATOM     17  C   UNL     1       0.005   0.014   0.006  0.00  0.00    +0.100 C 
BRANCH  17  18
ATOM     18  C   UNL     1      -1.414  -0.492   0.023  0.00  0.00    -0.027 A 
ATOM     19  C   UNL     1      -2.122  -0.525   1.210  0.00  0.00    +0.007 A 
ATOM     20  C   UNL     1      -3.424  -0.989   1.227  0.00  0.00    +0.020 A 
ATOM     21  C   UNL     1      -4.019  -1.421   0.055  0.00  0.00    +0.041 A 
ATOM     22  C   UNL     1      -3.310  -1.388  -1.133  0.00  0.00    +0.020 A 
ATOM     23  C   UNL     1      -2.010  -0.918  -1.149  0.00  0.00    +0.007 A 
ATOM     24 CL   UNL     1      -5.654  -2.004   0.075  0.00  0.00    -0.084 Cl
ENDBRANCH  17  18
ENDBRANCH   1  17
TORSDOF 3
