REMARK  Name = ZINC62466988
REMARK  7 active torsions:
REMARK  status: ('A' for Active; 'I' for Inactive)
REMARK    1  A    between atoms: C_1  and  C_2
REMARK    2  A    between atoms: C_2  and  C_3
REMARK    3  A    between atoms: C_3  and  C_4
REMARK    4  A    between atoms: C_3  and  C_6
REMARK    5  A    between atoms: C_4  and  C_5
REMARK    6  A    between atoms: C_7  and  C_16
REMARK    7  A    between atoms: C_12  and  C_15
REMARK                            x       y       z     vdW  Elec       q    Type
REMARK                         _______ _______ _______ _____ _____    ______ ____
ROOT
ATOM      1  C   UNL     1      -1.381  -2.100   0.241  0.00  0.00    +0.052 A 
ATOM      2  C   UNL     1      -1.993  -2.742   1.310  0.00  0.00    +0.156 A 
ATOM      3  N   UNL     1      -1.725  -4.093   1.159  0.00  0.00    -0.295 N 
ATOM      4  C   UNL     1      -2.067  -5.182   1.895  0.00  0.00    +0.093 A 
ATOM      5  C   UNL     1      -1.668  -6.420   1.521  0.00  0.00    +0.018 A 
ATOM      6  C   UNL     1      -0.896  -6.590   0.365  0.00  0.00    +0.008 A 
ATOM      7  C   UNL     1      -0.549  -5.501  -0.379  0.00  0.00    -0.009 A 
ATOM      8  C   UNL     1      -0.974  -4.224   0.027  0.00  0.00    +0.119 A 
ATOM      9  N   UNL     1      -0.788  -3.016  -0.504  0.00  0.00    -0.342 N 
ATOM     10  C   UNL     1       0.282  -5.665  -1.626  0.00  0.00    +0.047 C 
ATOM     11  H   UNL     1      -0.289  -2.835  -1.317  0.00  0.00    +0.167 HD
ENDROOT
BRANCH   2  12
ATOM     12  C   UNL     1      -2.740  -2.139   2.344  0.00  0.00    +0.405 C 
ATOM     13  O   UNL     1      -3.250  -2.860   3.269  0.00  0.00    -0.239 OA
ATOM     14  O   UNL     1      -2.907  -0.871   2.356  0.00  0.00    -0.239 OA
ENDBRANCH   2  12
BRANCH   1  15
ATOM     15  C   UNL     1      -1.395  -0.617  -0.024  0.00  0.00    +0.037 C 
BRANCH  15  17
ATOM     16  C   UNL     1       0.648  -0.226   1.359  0.00  0.00    +0.004 C 
ATOM     17  C   UNL     1       0.040  -0.087  -0.038  0.00  0.00    +0.006 C 
ENDBRANCH  15  17
BRANCH  15  18
ATOM     18  C   UNL     1      -2.050  -0.348  -1.381  0.00  0.00    +0.006 C 
ATOM     19  C   UNL     1      -3.522  -0.765  -1.327  0.00  0.00    +0.004 C 
ENDBRANCH  15  18
ENDBRANCH   1  15
TORSDOF 4
