REMARK  Name = ZINC11568476
REMARK  3 active torsions:
REMARK  status: ('A' for Active; 'I' for Inactive)
REMARK    1  A    between atoms: C_1  and  C_2
REMARK    2  A    between atoms: C_4  and  N_21
REMARK    3  A    between atoms: C_10  and  C_13
REMARK                            x       y       z     vdW  Elec       q    Type
REMARK                         _______ _______ _______ _____ _____    ______ ____
ROOT
ATOM      1  C   UNL     1       5.789   4.569   0.663  0.00  0.00    +0.067 C 
ATOM      2  C   UNL     1       4.327   4.573   0.297  0.00  0.00    +0.062 A 
ATOM      3  C   UNL     1       3.633   5.640  -0.282  0.00  0.00    +0.068 A 
ATOM      4  C   UNL     1       2.340   5.252  -0.456  0.00  0.00    +0.122 A 
ATOM      5  N   UNL     1       2.232   3.974   0.003  0.00  0.00    -0.199 N 
ATOM      6  N   UNL     1       3.492   3.581   0.473  0.00  0.00    -0.169 NA
ATOM      7  C   UNL     1       1.072   3.197   0.009  0.00  0.00    +0.178 A 
ATOM      8  C   UNL     1       1.164   1.805   0.001  0.00  0.00    +0.052 A 
ATOM      9  C   UNL     1      -0.013   1.076   0.008  0.00  0.00    +0.034 A 
ATOM     10  C   UNL     1      -1.221   1.780   0.017  0.00  0.00    +0.095 A 
ATOM     11  N   UNL     1      -1.210   3.107   0.030  0.00  0.00    -0.147 NA
ATOM     12  N   UNL     1      -0.117   3.780   0.024  0.00  0.00    -0.129 NA
ENDROOT
BRANCH  10  13
ATOM     13  C   UNL     1      -2.510   1.047   0.019  0.00  0.00    +0.022 A 
ATOM     14  C   UNL     1      -2.522  -0.347   0.006  0.00  0.00    +0.031 A 
ATOM     15  C   UNL     1      -3.725  -1.025   0.012  0.00  0.00    +0.042 A 
ATOM     16  C   UNL     1      -4.918  -0.322   0.022  0.00  0.00    +0.021 A 
ATOM     17  C   UNL     1      -4.912   1.060   0.030  0.00  0.00    +0.022 A 
ATOM     18  C   UNL     1      -3.715   1.749   0.029  0.00  0.00    +0.050 A 
ATOM     19 CL   UNL     1      -3.709   3.485   0.039  0.00  0.00    -0.083 Cl
ATOM     20 CL   UNL     1      -3.741  -2.760   0.002  0.00  0.00    -0.084 Cl
ENDBRANCH  10  13
BRANCH   4  21
ATOM     21  N   UNL     1       1.317   6.019  -1.004  0.00  0.00    -0.343 N 
ATOM     22  H   UNL     1       0.424   5.649  -1.086  0.00  0.00    +0.144 HD
ATOM     23  H   UNL     1       1.496   6.924  -1.303  0.00  0.00    +0.144 HD
ENDBRANCH   4  21
TORSDOF 2
