REMARK  Name = ZINC39448721
REMARK  6 active torsions:
REMARK  status: ('A' for Active; 'I' for Inactive)
REMARK    1  A    between atoms: C_4  and  C_7
REMARK    2  A    between atoms: C_7  and  C_10
REMARK    3  A    between atoms: N_8  and  O_9
REMARK    4  A    between atoms: N_11  and  O_12
REMARK    5  A    between atoms: N_13  and  C_14
REMARK    6  A    between atoms: C_15  and  C_30
REMARK                            x       y       z     vdW  Elec       q    Type
REMARK                         _______ _______ _______ _____ _____    ______ ____
ROOT
ATOM      1  C   UNL     1       5.083  -4.266   0.347  0.00  0.00    +0.089 A 
ATOM      2  C   UNL     1       6.203  -5.072   0.481  0.00  0.00    +0.084 A 
ATOM      3  C   UNL     1       5.986  -6.508   0.539  0.00  0.00    -0.015 A 
ATOM      4  C   UNL     1       4.688  -6.872   0.455  0.00  0.00    +0.013 A 
ATOM      5  S   UNL     1       3.800  -5.350   0.307  0.00  0.00    -0.075 S 
ATOM      6  C   UNL     1       4.146  -8.269   0.491  0.00  0.00    +0.149 C 
ATOM      7  N   UNL     1       5.300  -9.184   0.395  0.00  0.00    -0.310 N 
ATOM      8  C   UNL     1       6.499  -8.855   1.181  0.00  0.00    +0.111 C 
ATOM      9  C   UNL     1       7.096  -7.539   0.678  0.00  0.00    +0.056 C 
ATOM     10  C   UNL     1       5.255 -10.317  -0.409  0.00  0.00    +0.125 A 
ATOM     11  C   UNL     1       4.192 -10.497  -1.287  0.00  0.00    +0.044 A 
ATOM     12  C   UNL     1       4.158 -11.629  -2.082  0.00  0.00    +0.008 A 
ATOM     13  C   UNL     1       5.193 -12.547  -1.973  0.00  0.00    +0.059 A 
ATOM     14  C   UNL     1       6.220 -12.306  -1.078  0.00  0.00    +0.215 A 
ATOM     15  N   UNL     1       6.228 -11.213  -0.336  0.00  0.00    -0.204 NA
ATOM     16  F   UNL     1       7.231 -13.196  -0.967  0.00  0.00    -0.184 F 
ENDROOT
BRANCH   1  19
ATOM     17  C   UNL     1       3.811  -2.241   0.143  0.00  0.00    +0.192 C 
ATOM     18  N   UNL     1       2.712  -2.935   0.096  0.00  0.00    -0.069 NA
ATOM     19  N   UNL     1       5.032  -2.884   0.270  0.00  0.00    -0.289 N 
ATOM     20  H   UNL     1       5.852  -2.366   0.305  0.00  0.00    +0.154 HD
BRANCH  17  21
ATOM     21  C   UNL     1       3.757  -0.764   0.060  0.00  0.00    +0.153 C 
ATOM     22  N   UNL     1       4.860  -0.075  -0.003  0.00  0.00    -0.083 NA
BRANCH  21  26
ATOM     23  C   UNL     1       0.003   1.228   0.029  0.00  0.00    +0.000 A 
ATOM     24  C   UNL     1       0.591   0.886   1.233  0.00  0.00    +0.001 A 
ATOM     25  C   UNL     1       1.809   0.239   1.250  0.00  0.00    +0.010 A 
ATOM     26  C   UNL     1       2.448  -0.070   0.049  0.00  0.00    +0.007 A 
ATOM     27  C   UNL     1       1.850   0.277  -1.162  0.00  0.00    +0.010 A 
ATOM     28  C   UNL     1       0.631   0.924  -1.165  0.00  0.00    +0.001 A 
ENDBRANCH  21  26
BRANCH  22  29
ATOM     29  O   UNL     1       4.814   1.340   0.026  0.00  0.00    -0.409 OA
ATOM     30  H   UNL     1       5.681   1.763  -0.025  0.00  0.00    +0.328 HD
ENDBRANCH  22  29
ENDBRANCH  17  21
BRANCH  18  31
ATOM     31  O   UNL     1       1.458  -2.277   0.076  0.00  0.00    -0.408 OA
ATOM     32  H   UNL     1       0.700  -2.874   0.118  0.00  0.00    +0.328 HD
ENDBRANCH  18  31
ENDBRANCH   1  19
BRANCH   2  33
ATOM     33  C   UNL     1       7.519  -4.513   0.558  0.00  0.00    +0.102 C 
ATOM     34  N   UNL     1       8.562  -4.069   0.620  0.00  0.00    -0.191 NA
ENDBRANCH   2  33
TORSDOF 6
