REMARK  Name = ZINC35636262
REMARK  8 active torsions:
REMARK  status: ('A' for Active; 'I' for Inactive)
REMARK    1  A    between atoms: C_1  and  C_2
REMARK    2  A    between atoms: C_6  and  C_8
REMARK    3  A    between atoms: N_13  and  C_16
REMARK    4  A    between atoms: C_16  and  C_18
REMARK    5  A    between atoms: C_16  and  C_19
REMARK    6  A    between atoms: N_21  and  C_22
REMARK    7  A    between atoms: C_22  and  C_23
REMARK    8  A    between atoms: N_29  and  C_33
REMARK                            x       y       z     vdW  Elec       q    Type
REMARK                         _______ _______ _______ _____ _____    ______ ____
ROOT
ATOM      1  C   UNL     1       0.054  -2.845   2.489  0.00  0.00    +0.142 C 
ATOM      2  C   UNL     1       1.493  -3.200   2.804  0.00  0.00    +0.058 C 
ATOM      3  C   UNL     1       1.797  -4.505   2.956  0.00  0.00    +0.042 C 
ATOM      4  C   UNL     1       3.277  -4.564   3.258  0.00  0.00    +0.160 C 
ATOM      5  N   UNL     1       3.721  -3.163   3.250  0.00  0.00    -0.281 N 
ATOM      6  C   UNL     1       2.643  -2.405   2.980  0.00  0.00    +0.247 C 
ATOM      7  O   UNL     1       2.659  -1.190   2.898  0.00  0.00    -0.270 OA
ATOM      8  N   UNL     1       0.842  -5.474   2.831  0.00  0.00    -0.260 N 
ATOM      9  C   UNL     1      -0.443  -5.216   2.554  0.00  0.00    +0.307 C 
ATOM     10  O   UNL     1      -1.222  -6.145   2.463  0.00  0.00    -0.252 OA
ATOM     11  N   UNL     1      -0.899  -3.962   2.373  0.00  0.00    -0.288 N 
ATOM     12  C   UNL     1       1.246  -6.871   3.009  0.00  0.00    +0.139 C 
ATOM     13  H   UNL     1      -1.834  -3.798   2.173  0.00  0.00    +0.151 HD
ENDROOT
BRANCH   1  19
ATOM     14  C   UNL     1      -0.018   1.503   0.010  0.00  0.00    +0.044 C 
ATOM     15  C   UNL     1       0.002  -0.004   0.002  0.00  0.00    -0.050 A 
ATOM     16  C   UNL     1       0.006  -0.689  -1.199  0.00  0.00    +0.003 A 
ATOM     17  C   UNL     1       0.025  -2.071  -1.207  0.00  0.00    +0.001 A 
ATOM     18  C   UNL     1       0.040  -2.768  -0.013  0.00  0.00    +0.006 A 
ATOM     19  C   UNL     1       0.037  -2.084   1.188  0.00  0.00    -0.022 A 
ATOM     20  C   UNL     1       0.023  -0.702   1.195  0.00  0.00    +0.009 A 
ENDBRANCH   1  19
BRANCH   5  21
ATOM     21  C   UNL     1       5.084  -2.681   3.491  0.00  0.00    +0.159 C 
ATOM     22  C   UNL     1       5.088  -1.749   4.704  0.00  0.00    +0.038 C 
BRANCH  21  23
ATOM     23  C   UNL     1       5.573  -1.930   2.279  0.00  0.00    +0.233 C 
ATOM     24  O   UNL     1       4.854  -1.810   1.310  0.00  0.00    -0.274 OA
ATOM     25  N   UNL     1       6.809  -1.393   2.273  0.00  0.00    -0.311 N 
ATOM     26  H   UNL     1       7.384  -1.490   3.048  0.00  0.00    +0.149 HD
BRANCH  25  27
ATOM     27  C   UNL     1       7.285  -0.664   1.095  0.00  0.00    +0.135 C 
BRANCH  27  28
ATOM     28  C   UNL     1       8.708  -0.161   1.346  0.00  0.00    +0.135 C 
ATOM     29  C   UNL     1       9.172   0.711   0.160  0.00  0.00    +0.035 C 
ATOM     30  C   UNL     1      10.659   0.291   0.005  0.00  0.00    +0.031 C 
ATOM     31  C   UNL     1      10.584  -1.207   0.395  0.00  0.00    +0.160 C 
ATOM     32  O   UNL     1       9.605  -1.272   1.446  0.00  0.00    -0.375 OA
ENDBRANCH  27  28
ENDBRANCH  25  27
ENDBRANCH  21  23
ENDBRANCH   5  21
TORSDOF 5
