REMARK  Name = ZINC36610244
REMARK  11 active torsions:
REMARK  status: ('A' for Active; 'I' for Inactive)
REMARK    1  A    between atoms: C_1  and  O_2
REMARK    2  A    between atoms: O_2  and  C_3
REMARK    3  A    between atoms: C_5  and  C_10
REMARK    4  A    between atoms: C_8  and  O_9
REMARK    5  A    between atoms: C_10  and  C_12
REMARK    6  A    between atoms: C_10  and  N_21
REMARK    7  A    between atoms: N_14  and  C_15
REMARK    8  A    between atoms: N_21  and  C_22
REMARK    9  A    between atoms: C_28  and  C_30
REMARK   10  A    between atoms: C_31  and  O_37
REMARK   11  A    between atoms: C_35  and  O_36
REMARK                            x       y       z     vdW  Elec       q    Type
REMARK                         _______ _______ _______ _____ _____    ______ ____
ROOT
ATOM      1  C   UNL     1       2.375  -0.320   4.318  0.00  0.00    +0.198 C 
ENDROOT
BRANCH   1   4
ATOM      2  C   UNL     1       0.849  -1.931   1.260  0.00  0.00    +0.162 A 
ATOM      3  C   UNL     1       1.335  -0.976   2.139  0.00  0.00    +0.055 A 
ATOM      4  C   UNL     1       1.847  -1.360   3.364  0.00  0.00    -0.014 A 
ATOM      5  C   UNL     1       1.878  -2.697   3.715  0.00  0.00    +0.010 A 
ATOM      6  C   UNL     1       1.396  -3.655   2.843  0.00  0.00    +0.049 A 
ATOM      7  C   UNL     1       0.875  -3.276   1.617  0.00  0.00    +0.158 A 
BRANCH   2   9
ATOM      8  C   UNL     1       0.350  -0.157  -0.243  0.00  0.00    +0.277 C 
ATOM      9  O   UNL     1       0.344  -1.555   0.055  0.00  0.00    -0.491 OA
ENDBRANCH   2   9
BRANCH   7  10
ATOM     10  O   UNL     1       0.395  -4.217   0.760  0.00  0.00    -0.503 OA
ATOM     11  H   UNL     1       1.058  -4.570   0.151  0.00  0.00    +0.292 HD
ENDBRANCH   7  10
ENDBRANCH   1   4
BRANCH   1  12
ATOM     12  C   UNL     1       1.581  -0.364   5.598  0.00  0.00    +0.239 C 
ATOM     13  O   UNL     1       2.139  -0.601   6.649  0.00  0.00    -0.273 OA
ATOM     14  N   UNL     1       0.252  -0.141   5.576  0.00  0.00    -0.311 N 
ATOM     15  H   UNL     1      -0.194   0.048   4.735  0.00  0.00    +0.149 HD
BRANCH  14  16
ATOM     16  C   UNL     1      -0.519  -0.185   6.821  0.00  0.00    +0.073 C 
ATOM     17  C   UNL     1      -0.915  -1.631   7.125  0.00  0.00    +0.022 C 
ATOM     18  C   UNL     1      -1.720  -1.676   8.425  0.00  0.00    +0.002 C 
ATOM     19  C   UNL     1      -2.982  -0.824   8.274  0.00  0.00    +0.000 C 
ATOM     20  C   UNL     1      -2.586   0.623   7.969  0.00  0.00    +0.002 C 
ATOM     21  C   UNL     1      -1.780   0.668   6.669  0.00  0.00    +0.022 C 
ENDBRANCH  14  16
ENDBRANCH   1  12
BRANCH   1  22
ATOM     22  N   UNL     1       3.785  -0.592   4.607  0.00  0.00    -0.251 N 
ATOM     23  C   UNL     1       4.497   0.270   5.359  0.00  0.00    +0.259 C 
ATOM     24  O   UNL     1       3.994   1.314   5.729  0.00  0.00    -0.269 OA
BRANCH  22  25
ATOM     25  C   UNL     1       4.391  -1.747   4.104  0.00  0.00    +0.038 A 
ATOM     26  C   UNL     1       4.870  -1.770   2.800  0.00  0.00    +0.023 A 
ATOM     27  C   UNL     1       5.469  -2.912   2.305  0.00  0.00    +0.002 A 
ATOM     28  C   UNL     1       5.591  -4.032   3.106  0.00  0.00    +0.000 A 
ATOM     29  C   UNL     1       5.115  -4.014   4.404  0.00  0.00    +0.002 A 
ATOM     30  C   UNL     1       4.521  -2.873   4.907  0.00  0.00    +0.023 A 
ENDBRANCH  22  25
BRANCH  23  31
ATOM     31  C   UNL     1       5.884  -0.052   5.733  0.00  0.00    +0.120 A 
ATOM     32  C   UNL     1       6.951   0.389   4.936  0.00  0.00    +0.133 A 
ATOM     33  C   UNL     1       8.252   0.081   5.298  0.00  0.00    +0.046 A 
ATOM     34  C   UNL     1       8.502  -0.658   6.439  0.00  0.00    +0.007 A 
ATOM     35  C   UNL     1       7.458  -1.098   7.232  0.00  0.00    +0.046 A 
ATOM     36  C   UNL     1       6.149  -0.797   6.892  0.00  0.00    +0.133 A 
BRANCH  36  37
ATOM     37  O   UNL     1       5.127  -1.225   7.675  0.00  0.00    -0.506 OA
ATOM     38  H   UNL     1       4.779  -2.092   7.428  0.00  0.00    +0.292 HD
ENDBRANCH  36  37
BRANCH  32  39
ATOM     39  O   UNL     1       6.709   1.114   3.815  0.00  0.00    -0.506 OA
ATOM     40  H   UNL     1       6.684   2.069   3.963  0.00  0.00    +0.292 HD
ENDBRANCH  32  39
ENDBRANCH  23  31
ENDBRANCH   1  22
TORSDOF 10
