REMARK  Name = ZINC67298412
REMARK  4 active torsions:
REMARK  status: ('A' for Active; 'I' for Inactive)
REMARK    1  A    between atoms: C_1  and  C_2
REMARK    2  A    between atoms: C_5  and  N_9
REMARK    3  A    between atoms: C_11  and  C_21
REMARK    4  A    between atoms: C_16  and  O_20
REMARK                            x       y       z     vdW  Elec       q    Type
REMARK                         _______ _______ _______ _____ _____    ______ ____
ROOT
ATOM      1  N   UNL     1       0.062  -4.144  -0.030  0.00  0.00    -0.325 N 
ATOM      2  C   UNL     1       0.880  -4.794   0.769  0.00  0.00    +0.212 A 
ATOM      3  C   UNL     1       0.848  -6.267   0.861  0.00  0.00    +0.097 A 
ATOM      4  C   UNL     1       2.013  -6.907   1.261  0.00  0.00    +0.030 A 
ATOM      5  C   UNL     1       3.139  -6.107   1.584  0.00  0.00    +0.018 A 
ATOM      6  C   UNL     1       4.392  -6.701   1.798  0.00  0.00    +0.015 A 
ATOM      7  C   UNL     1       5.477  -5.919   2.068  0.00  0.00    +0.046 A 
ATOM      8  C   UNL     1       5.349  -4.533   2.139  0.00  0.00    +0.120 A 
ATOM      9  C   UNL     1       4.115  -3.930   1.950  0.00  0.00    +0.092 A 
ATOM     10  C   UNL     1       3.002  -4.709   1.683  0.00  0.00    +0.141 A 
ATOM     11  O   UNL     1       1.786  -4.134   1.535  0.00  0.00    -0.438 OA
ATOM     12  H   UNL     1      -0.517  -4.634  -0.634  0.00  0.00    +0.169 HD
ENDROOT
BRANCH   1  17
ATOM     13  C   UNL     1      -0.074   1.499   0.049  0.00  0.00    +0.045 C 
ATOM     14  C   UNL     1      -0.038  -0.007   0.028  0.00  0.00    -0.032 A 
ATOM     15  C   UNL     1      -0.015  -0.679  -1.181  0.00  0.00    +0.007 A 
ATOM     16  C   UNL     1       0.018  -2.057  -1.208  0.00  0.00    +0.026 A 
ATOM     17  C   UNL     1       0.029  -2.777  -0.011  0.00  0.00    +0.043 A 
ATOM     18  C   UNL     1       0.007  -2.093   1.207  0.00  0.00    +0.046 A 
ATOM     19  C   UNL     1      -0.021  -0.713   1.220  0.00  0.00    +0.046 A 
ATOM     20 CL   UNL     1      -0.043   0.140   2.732  0.00  0.00    -0.083 Cl
ENDBRANCH   1  17
BRANCH   3  21
ATOM     21  C   UNL     1      -0.371  -7.027   0.540  0.00  0.00    +0.247 C 
ATOM     22  O   UNL     1      -1.351  -6.450   0.109  0.00  0.00    -0.270 OA
ATOM     23  N   UNL     1      -0.401  -8.361   0.725  0.00  0.00    -0.325 N 
ATOM     24  H   UNL     1       0.353  -8.811   1.137  0.00  0.00    +0.145 HD
ATOM     25  H   UNL     1      -1.176  -8.873   0.445  0.00  0.00    +0.145 HD
ENDBRANCH   3  21
BRANCH   8  26
ATOM     26  O   UNL     1       6.441  -3.768   2.396  0.00  0.00    -0.507 OA
ATOM     27  H   UNL     1       6.919  -3.487   1.604  0.00  0.00    +0.292 HD
ENDBRANCH   8  26
TORSDOF 3
