REMARK  Name = ZINC23367807
REMARK  7 active torsions:
REMARK  status: ('A' for Active; 'I' for Inactive)
REMARK    1  A    between atoms: C_1  and  N_2
REMARK    2  A    between atoms: N_2  and  C_3
REMARK    3  A    between atoms: N_2  and  C_6
REMARK    4  A    between atoms: C_3  and  C_4
REMARK    5  A    between atoms: C_4  and  O_5
REMARK    6  A    between atoms: C_15  and  O_17
REMARK    7  A    between atoms: C_24  and  C_29
REMARK                            x       y       z     vdW  Elec       q    Type
REMARK                         _______ _______ _______ _____ _____    ______ ____
ROOT
ATOM      1  C   UNL     1       0.510   5.027   0.358  0.00  0.00    -0.008 C 
ATOM      2  C   UNL     1      -0.148   3.668   0.468  0.00  0.00    -0.055 A 
ATOM      3  C   UNL     1      -1.476   3.300   0.332  0.00  0.00    +0.002 A 
ATOM      4  C   UNL     1      -1.850   1.978   0.472  0.00  0.00    +0.000 A 
ATOM      5  C   UNL     1      -0.897   1.019   0.760  0.00  0.00    +0.000 A 
ATOM      6  C   UNL     1       0.428   1.383   0.897  0.00  0.00    +0.004 A 
ATOM      7  C   UNL     1       0.807   2.708   0.752  0.00  0.00    -0.037 A 
ATOM      8  C   UNL     1       2.165   3.359   0.850  0.00  0.00    +0.023 C 
ATOM      9  C   UNL     1       2.015   4.734   0.176  0.00  0.00    +0.116 C 
ATOM     10  C   UNL     1       3.210   2.526   0.112  0.00  0.00    +0.033 C 
ATOM     11  C   UNL     1       4.581   3.193   0.254  0.00  0.00    +0.107 C 
ATOM     12  N   UNL     1       4.921   3.316   1.678  0.00  0.00    -0.313 N 
ATOM     13  C   UNL     1       3.957   4.170   2.384  0.00  0.00    +0.107 C 
ATOM     14  C   UNL     1       2.566   3.536   2.313  0.00  0.00    +0.033 C 
ATOM     15  C   UNL     1       6.213   3.785   1.841  0.00  0.00    +0.157 A 
ATOM     16  C   UNL     1       7.207   2.947   2.375  0.00  0.00    +0.180 A 
ATOM     17  N   UNL     1       8.446   3.408   2.522  0.00  0.00    -0.240 NA
ATOM     18  C   UNL     1       8.734   4.647   2.178  0.00  0.00    +0.132 A 
ATOM     19  C   UNL     1       7.752   5.475   1.656  0.00  0.00    +0.132 A 
ATOM     20  N   UNL     1       6.518   5.031   1.499  0.00  0.00    -0.236 NA
ENDROOT
BRANCH   1  22
ATOM     21  C   UNL     1       0.873   7.144   1.475  0.00  0.00    -0.095 C 
ATOM     22  N   UNL     1       0.286   5.802   1.586  0.00  0.00    +0.386 N 
ATOM     23  H   UNL     1       0.790   5.280   2.412  0.00  0.00    -0.081 HD
BRANCH  22  24
ATOM     24  C   UNL     1      -1.145   5.879   1.907  0.00  0.00    -0.050 C 
BRANCH  24  25
ATOM     25  C   UNL     1      -1.319   6.319   3.362  0.00  0.00    +0.137 C 
BRANCH  25  26
ATOM     26  O   UNL     1      -0.859   7.663   3.511  0.00  0.00    -0.397 OA
ATOM     27  H   UNL     1      -0.905   8.155   4.494  0.00  0.00    +0.209 HD
ENDBRANCH  25  26
ENDBRANCH  24  25
ENDBRANCH  22  24
ENDBRANCH   1  22
BRANCH   9  28
ATOM     28  O   UNL     1       2.355   4.661  -1.210  0.00  0.00    -0.392 OA
ATOM     29  H   UNL     1       3.393   4.458  -1.512  0.00  0.00    +0.210 HD
ENDBRANCH   9  28
BRANCH  16  30
ATOM     30  C   UNL     1       6.889   1.603   2.753  0.00  0.00    +0.123 C 
ATOM     31  N   UNL     1       6.636   0.537   3.054  0.00  0.00    -0.189 NA
ENDBRANCH  16  30
TORSDOF 6
