REMARK  Name = ZINC00058312
REMARK  4 active torsions:
REMARK  status: ('A' for Active; 'I' for Inactive)
REMARK    1  A    between atoms: C_6  and  N_7
REMARK    2  A    between atoms: C_9  and  N_23
REMARK    3  A    between atoms: C_10  and  C_21
REMARK    4  A    between atoms: C_11  and  C_13
REMARK                            x       y       z     vdW  Elec       q    Type
REMARK                         _______ _______ _______ _____ _____    ______ ____
ROOT
ATOM      1  C   UNL     1       3.652   1.468   0.812  0.00  0.00    +0.023 A 
ATOM      2  C   UNL     1       2.350   1.007   0.808  0.00  0.00    +0.010 A 
ATOM      3  C   UNL     1       1.401   1.604  -0.003  0.00  0.00    +0.008 A 
ATOM      4  C   UNL     1       1.755   2.670  -0.816  0.00  0.00    +0.136 A 
ATOM      5  C   UNL     1       3.062   3.136  -0.814  0.00  0.00    +0.069 A 
ATOM      6  C   UNL     1       4.012   2.536   0.000  0.00  0.00    +0.028 A 
ATOM      7  O   UNL     1       0.838   3.268  -1.617  0.00  0.00    -0.441 OA
ATOM      8  C   UNL     1      -0.298   2.624  -1.931  0.00  0.00    +0.199 C 
ATOM      9  C   UNL     1      -0.756   1.580  -1.201  0.00  0.00    +0.098 C 
ATOM     10  C   UNL     1      -0.013   1.086   0.008  0.00  0.00    +0.099 C 
ENDROOT
BRANCH  10  11
ATOM     11  C   UNL     1      -0.712   1.569   1.253  0.00  0.00    -0.016 A 
ATOM     12  C   UNL     1      -0.850   2.924   1.486  0.00  0.00    +0.007 A 
ATOM     13  C   UNL     1      -1.496   3.368   2.624  0.00  0.00    +0.020 A 
ATOM     14  C   UNL     1      -1.995   2.455   3.537  0.00  0.00    +0.042 A 
ATOM     15  C   UNL     1      -1.853   1.099   3.307  0.00  0.00    +0.040 A 
ATOM     16  C   UNL     1      -1.211   0.655   2.164  0.00  0.00    +0.046 A 
ATOM     17 CL   UNL     1      -1.031  -1.047   1.875  0.00  0.00    -0.083 Cl
ATOM     18 CL   UNL     1      -2.801   3.013   4.970  0.00  0.00    -0.083 Cl
ENDBRANCH  10  11
BRANCH   6  19
ATOM     19  N   UNL     1       5.328   3.004   0.003  0.00  0.00    -0.358 N 
ATOM     20  H   UNL     1       5.579   3.749  -0.565  0.00  0.00    +0.142 HD
ATOM     21  H   UNL     1       5.991   2.583   0.572  0.00  0.00    +0.142 HD
ENDBRANCH   6  19
BRANCH   8  22
ATOM     22  N   UNL     1      -1.016   3.037  -3.025  0.00  0.00    -0.328 N 
ATOM     23  H   UNL     1      -0.701   3.784  -3.559  0.00  0.00    +0.145 HD
ATOM     24  H   UNL     1      -1.839   2.583  -3.265  0.00  0.00    +0.145 HD
ENDBRANCH   8  22
BRANCH   9  25
ATOM     25  C   UNL     1      -1.974   0.934  -1.587  0.00  0.00    +0.101 C 
ATOM     26  N   UNL     1      -2.941   0.422  -1.895  0.00  0.00    -0.191 NA
ENDBRANCH   9  25
TORSDOF 4
