REMARK  Name = ZINC62539100
REMARK  3 active torsions:
REMARK  status: ('A' for Active; 'I' for Inactive)
REMARK    1  A    between atoms: C_1  and  C_2
REMARK    2  A    between atoms: C_2  and  C_3
REMARK    3  A    between atoms: C_12  and  N_15
REMARK                            x       y       z     vdW  Elec       q    Type
REMARK                         _______ _______ _______ _____ _____    ______ ____
ROOT
ATOM      1  C   UNL     1      -1.433  -0.534   0.013  0.00  0.00    +0.259 C 
ATOM      2  C   UNL     1      -1.415  -2.035  -0.121  0.00  0.00    +0.258 C 
ATOM      3  O   UNL     1      -1.502  -2.550  -1.216  0.00  0.00    -0.271 OA
ATOM      4  N   UNL     1      -1.302  -2.804   0.982  0.00  0.00    -0.278 N 
ATOM      5  C   UNL     1      -1.329  -2.196   2.246  0.00  0.00    +0.096 A 
ATOM      6  C   UNL     1      -0.990  -2.917   3.382  0.00  0.00    +0.067 A 
ATOM      7  C   UNL     1      -1.008  -2.303   4.622  0.00  0.00    +0.044 A 
ATOM      8  C   UNL     1      -1.364  -0.971   4.733  0.00  0.00    +0.067 A 
ATOM      9  C   UNL     1      -1.710  -0.244   3.601  0.00  0.00    +0.087 A 
ATOM     10  C   UNL     1      -1.699  -0.860   2.355  0.00  0.00    +0.166 A 
ATOM     11  O   UNL     1      -2.066  -0.169   1.242  0.00  0.00    -0.476 OA
ATOM     12 CL   UNL     1      -1.378  -0.206   6.292  0.00  0.00    -0.081 Cl
ATOM     13 CL   UNL     1      -0.542  -4.589   3.248  0.00  0.00    -0.081 Cl
ATOM     14  H   UNL     1      -1.203  -3.766   0.902  0.00  0.00    +0.155 HD
ENDROOT
BRANCH   9  15
ATOM     15  N   UNL     1      -2.070   1.105   3.715  0.00  0.00    -0.354 N 
ATOM     16  H   UNL     1      -2.077   1.534   4.585  0.00  0.00    +0.142 HD
ATOM     17  H   UNL     1      -2.311   1.612   2.924  0.00  0.00    +0.142 HD
ENDBRANCH   9  15
BRANCH   1  19
ATOM     18  C   UNL     1      -0.019   1.526   0.010  0.00  0.00    +0.008 C 
ATOM     19  C   UNL     1       0.002  -0.004   0.002  0.00  0.00    +0.051 C 
ENDBRANCH   1  19
TORSDOF 2
