REMARK  Name = ZINC44791591
REMARK  6 active torsions:
REMARK  status: ('A' for Active; 'I' for Inactive)
REMARK    1  A    between atoms: C_1  and  C_2
REMARK    2  A    between atoms: C_2  and  O_3
REMARK    3  A    between atoms: O_3  and  C_4
REMARK    4  A    between atoms: C_11  and  C_13
REMARK    5  A    between atoms: C_13  and  C_18
REMARK    6  A    between atoms: N_19  and  O_20
REMARK                            x       y       z     vdW  Elec       q    Type
REMARK                         _______ _______ _______ _____ _____    ______ ____
ROOT
ATOM      1  C   UNL     1      -3.280  -6.061   1.545  0.00  0.00    +0.105 C 
ATOM      2  C   UNL     1      -3.479  -6.708   2.927  0.00  0.00    +0.024 C 
ATOM      3  C   UNL     1      -2.369  -7.769   3.080  0.00  0.00    +0.001 C 
ATOM      4  C   UNL     1      -1.254  -7.295   2.115  0.00  0.00    +0.001 C 
ATOM      5  C   UNL     1      -2.057  -6.751   0.907  0.00  0.00    +0.024 C 
ENDROOT
BRANCH   1  12
ATOM      6  C   UNL     1      -1.499  -1.906  -0.026  0.00  0.00    +0.136 C 
ATOM      7  C   UNL     1      -1.590  -2.399  -1.472  0.00  0.00    +0.035 C 
ATOM      8  C   UNL     1      -1.650  -3.928  -1.488  0.00  0.00    +0.021 C 
ATOM      9  C   UNL     1      -2.902  -4.394  -0.738  0.00  0.00    +0.108 C 
ATOM     10  N   UNL     1      -2.894  -3.805   0.608  0.00  0.00    -0.298 N 
ATOM     11  C   UNL     1      -2.749  -2.349   0.741  0.00  0.00    +0.139 C 
ATOM     12  C   UNL     1      -3.018  -4.585   1.700  0.00  0.00    +0.229 C 
ATOM     13  O   UNL     1      -2.919  -4.099   2.806  0.00  0.00    -0.275 OA
BRANCH   6  14
ATOM     14  O   UNL     1      -1.412  -0.479  -0.013  0.00  0.00    -0.375 OA
BRANCH  14  16
ATOM     15  C   UNL     1      -0.103   1.552  -0.043  0.00  0.00    +0.034 C 
ATOM     16  C   UNL     1      -0.075   0.022  -0.062  0.00  0.00    +0.157 C 
ENDBRANCH  14  16
ENDBRANCH   6  14
ENDBRANCH   1  12
BRANCH   1  17
ATOM     17  C   UNL     1      -4.502  -6.282   0.691  0.00  0.00    +0.147 C 
ATOM     18  N   UNL     1      -4.431  -7.038  -0.354  0.00  0.00    -0.076 NA
ATOM     19  N   UNL     1      -5.693  -5.676   1.023  0.00  0.00    -0.343 N 
ATOM     20  H   UNL     1      -5.766  -5.168   1.846  0.00  0.00    +0.144 HD
ATOM     21  H   UNL     1      -6.460  -5.758   0.435  0.00  0.00    +0.144 HD
BRANCH  18  22
ATOM     22  O   UNL     1      -5.579  -7.245  -1.157  0.00  0.00    -0.408 OA
ATOM     23  H   UNL     1      -5.428  -7.826  -1.915  0.00  0.00    +0.328 HD
ENDBRANCH  18  22
ENDBRANCH   1  17
TORSDOF 5
