REMARK  Name = ZINC20729800
REMARK  6 active torsions:
REMARK  status: ('A' for Active; 'I' for Inactive)
REMARK    1  A    between atoms: C_1  and  C_2
REMARK    2  A    between atoms: C_2  and  C_3
REMARK    3  A    between atoms: C_2  and  O_4
REMARK    4  A    between atoms: O_4  and  C_5
REMARK    5  A    between atoms: C_9  and  C_11
REMARK    6  A    between atoms: C_20  and  O_23
REMARK                            x       y       z     vdW  Elec       q    Type
REMARK                         _______ _______ _______ _____ _____    ______ ____
ROOT
ATOM      1  C   UNL     1      -4.404  -4.127  -1.111  0.00  0.00    +0.112 C 
ATOM      2  C   UNL     1      -4.426  -5.375  -0.281  0.00  0.00    +0.033 A 
ATOM      3  C   UNL     1      -3.564  -5.579   0.754  0.00  0.00    +0.112 A 
ATOM      4  N   UNL     1      -3.841  -6.776   1.303  0.00  0.00    -0.282 N 
ATOM      5  H   UNL     1      -3.383  -7.176   2.058  0.00  0.00    +0.188 HD
ATOM      6  N   UNL     1      -4.901  -7.340   0.594  0.00  0.00    -0.154 NA
ATOM      7  C   UNL     1      -5.260  -6.497  -0.376  0.00  0.00    +0.182 A 
ATOM      8  N   UNL     1      -6.260  -6.800  -1.234  0.00  0.00    -0.195 NA
ATOM      9  C   UNL     1      -6.812  -6.245  -2.209  0.00  0.00    +0.199 C 
ATOM     10  C   UNL     1      -6.586  -4.910  -2.799  0.00  0.00    +0.165 C 
ATOM     11  S   UNL     1      -4.856  -4.426  -2.823  0.00  0.00    -0.138 S 
ENDROOT
BRANCH   1  16
ATOM     12  C   UNL     1      -1.538  -1.739  -0.505  0.00  0.00    +0.121 A 
ATOM     13  C   UNL     1      -0.465  -2.469  -0.997  0.00  0.00    +0.045 A 
ATOM     14  C   UNL     1      -0.671  -3.729  -1.522  0.00  0.00    +0.004 A 
ATOM     15  C   UNL     1      -1.945  -4.265  -1.558  0.00  0.00    +0.005 A 
ATOM     16  C   UNL     1      -3.016  -3.541  -1.069  0.00  0.00    -0.026 A 
ATOM     17  C   UNL     1      -2.815  -2.281  -0.538  0.00  0.00    +0.050 A 
BRANCH  12  18
ATOM     18  O   UNL     1      -1.339  -0.499   0.012  0.00  0.00    -0.489 OA
BRANCH  18  20
ATOM     19  C   UNL     1      -1.982   1.168   1.640  0.00  0.00    +0.051 C 
ATOM     20  C   UNL     1      -2.466   0.143   0.612  0.00  0.00    +0.167 C 
ATOM     21  C   UNL     1      -3.283   0.853  -0.469  0.00  0.00    +0.051 C 
ENDBRANCH  18  20
ENDBRANCH  12  18
ENDBRANCH   1  16
BRANCH   9  22
ATOM     22  O   UNL     1      -7.764  -6.981  -2.818  0.00  0.00    -0.495 OA
ATOM     23  H   UNL     1      -7.901  -7.853  -2.421  0.00  0.00    +0.293 HD
ENDBRANCH   9  22
TORSDOF 4
