REMARK  Name = ZINC40933053
REMARK  8 active torsions:
REMARK  status: ('A' for Active; 'I' for Inactive)
REMARK    1  A    between atoms: C_1  and  C_2
REMARK    2  A    between atoms: C_2  and  N_3
REMARK    3  A    between atoms: C_4  and  C_18
REMARK    4  A    between atoms: C_5  and  N_17
REMARK    5  A    between atoms: N_8  and  C_9
REMARK    6  A    between atoms: C_18  and  C_19
REMARK    7  A    between atoms: C_18  and  C_20
REMARK    8  A    between atoms: C_18  and  C_21
REMARK                            x       y       z     vdW  Elec       q    Type
REMARK                         _______ _______ _______ _____ _____    ______ ____
ROOT
ATOM      1  N   UNL     1      -1.911  -1.791  -0.207  0.00  0.00    -0.283 N 
ATOM      2  C   UNL     1      -2.506  -1.568  -1.423  0.00  0.00    +0.067 A 
ATOM      3  C   UNL     1      -3.819  -1.865  -1.321  0.00  0.00    +0.113 A 
ATOM      4  C   UNL     1      -4.060  -2.304   0.055  0.00  0.00    +0.289 A 
ATOM      5  O   UNL     1      -5.125  -2.655   0.528  0.00  0.00    -0.264 OA
ATOM      6  N   UNL     1      -2.875  -2.250   0.698  0.00  0.00    -0.243 N 
ENDROOT
BRANCH   6   7
ATOM      7  C   UNL     1      -2.639  -2.606   2.099  0.00  0.00    +0.132 C 
ATOM      8  C   UNL     1      -1.518  -3.656   2.178  0.00  0.00    +0.051 C 
ATOM      9  C   UNL     1      -1.076  -3.782   3.664  0.00  0.00    +0.168 C 
ATOM     10  S   UNL     1      -1.099  -2.011   4.173  0.00  0.00    -0.029 S 
ATOM     11  O   UNL     1       0.196  -1.458   3.982  0.00  0.00    -0.174 OA
ATOM     12  O   UNL     1      -1.724  -1.905   5.445  0.00  0.00    -0.174 OA
ATOM     13  C   UNL     1      -2.231  -1.340   2.890  0.00  0.00    +0.192 C 
ENDBRANCH   6   7
BRANCH   2  14
ATOM     14  C   UNL     1      -1.811  -1.073  -2.665  0.00  0.00    +0.006 C 
ATOM     15  C   UNL     1      -2.778  -1.133  -3.849  0.00  0.00    +0.017 C 
ATOM     16  C   UNL     1      -1.353   0.371  -2.453  0.00  0.00    +0.017 C 
ATOM     17  C   UNL     1      -0.596  -1.956  -2.955  0.00  0.00    +0.017 C 
ENDBRANCH   2  14
BRANCH   3  18
ATOM     18  N   UNL     1      -4.782  -1.769  -2.348  0.00  0.00    -0.352 N 
ATOM     19  H   UNL     1      -4.566  -1.305  -3.172  0.00  0.00    +0.143 HD
ATOM     20  H   UNL     1      -5.658  -2.168  -2.231  0.00  0.00    +0.143 HD
ENDBRANCH   3  18
BRANCH   1  22
ATOM     21  C   UNL     1       0.303  -2.822  -0.334  0.00  0.00    +0.029 C 
ATOM     22  C   UNL     1      -0.491  -1.587   0.095  0.00  0.00    +0.138 C 
ENDBRANCH   1  22
TORSDOF 4
