REMARK  Name = ZINC38995058
REMARK  9 active torsions:
REMARK  status: ('A' for Active; 'I' for Inactive)
REMARK    1  A    between atoms: C_1  and  C_2
REMARK    2  A    between atoms: C_5  and  N_9
REMARK    3  A    between atoms: C_6  and  C_8
REMARK    4  A    between atoms: C_10  and  C_12
REMARK    5  A    between atoms: C_12  and  S_13
REMARK    6  A    between atoms: S_13  and  C_14
REMARK    7  A    between atoms: C_18  and  C_22
REMARK    8  A    between atoms: N_20  and  N_21
REMARK    9  A    between atoms: C_25  and  C_28
REMARK                            x       y       z     vdW  Elec       q    Type
REMARK                         _______ _______ _______ _____ _____    ______ ____
ROOT
ATOM      1  C   UNL     1       0.600  -8.684  -2.337  0.00  0.00    +0.214 C 
ATOM      2  N   UNL     1       1.887  -8.931  -1.636  0.00  0.00    -0.228 NA
ATOM      3  N   UNL     1       1.651 -10.211  -0.950  0.00  0.00    -0.234 NA
ATOM      4  C   UNL     1       0.242 -10.136  -0.501  0.00  0.00    +0.185 C 
ATOM      5  N   UNL     1      -0.432  -9.164  -1.389  0.00  0.00    -0.197 NA
ATOM      6  H   UNL     1       2.084  -8.196  -0.973  0.00  0.00    +0.143 HD
ATOM      7  H   UNL     1       1.790 -10.989  -1.577  0.00  0.00    +0.143 HD
ENDROOT
BRANCH   4   8
ATOM      8  C   UNL     1      -0.422 -11.509  -0.628  0.00  0.00    +0.187 C 
ATOM      9  C   UNL     1       0.239 -12.512   0.300  0.00  0.00    +0.034 C 
ATOM     10  C   UNL     1       0.729 -13.449  -0.535  0.00  0.00    +0.091 C 
ATOM     11  N   UNL     1       0.445 -13.130  -1.825  0.00  0.00    -0.154 NA
ATOM     12  N   UNL     1      -0.189 -12.078  -1.965  0.00  0.00    -0.176 NA
BRANCH  10  13
ATOM     13  C   UNL     1       1.475 -14.658  -0.106  0.00  0.00    +0.002 A 
ATOM     14  C   UNL     1       1.708 -14.892   1.248  0.00  0.00    +0.011 A 
ATOM     15  C   UNL     1       2.402 -16.018   1.642  0.00  0.00    +0.020 A 
ATOM     16  C   UNL     1       2.867 -16.913   0.694  0.00  0.00    +0.041 A 
ATOM     17  C   UNL     1       2.639 -16.685  -0.652  0.00  0.00    +0.020 A 
ATOM     18  C   UNL     1       1.940 -15.566  -1.056  0.00  0.00    +0.011 A 
ATOM     19 CL   UNL     1       3.741 -18.327   1.196  0.00  0.00    -0.084 Cl
ENDBRANCH  10  13
ENDBRANCH   4   8
BRANCH   5  20
ATOM     20  N   UNL     1      -0.991  -8.060  -0.624  0.00  0.00    -0.264 NA
ATOM     21  H   UNL     1      -1.507  -7.431  -1.221  0.00  0.00    +0.137 HD
ATOM     22  H   UNL     1      -1.569  -8.399   0.130  0.00  0.00    +0.137 HD
ENDBRANCH   5  20
BRANCH   1  23
ATOM     23  S   UNL     1       0.386  -6.913  -2.666  0.00  0.00    -0.115 S 
BRANCH  23  24
ATOM     24  C   UNL     1       1.388  -6.618  -4.149  0.00  0.00    +0.168 C 
BRANCH  24  26
ATOM     25  N   UNL     1       2.081  -4.687  -5.531  0.00  0.00    -0.285 N 
ATOM     26  C   UNL     1       1.396  -5.144  -4.464  0.00  0.00    +0.227 C 
ATOM     27  O   UNL     1       0.786  -4.369  -3.758  0.00  0.00    -0.275 OA
ATOM     28  H   UNL     1       2.512  -5.312  -6.135  0.00  0.00    +0.155 HD
BRANCH  25  33
ATOM     29  C   UNL     1       2.450   0.893  -6.487  0.00  0.00    +0.044 C 
ATOM     30  C   UNL     1       2.352  -0.590  -6.233  0.00  0.00    -0.050 A 
ATOM     31  C   UNL     1       1.208  -1.118  -5.662  0.00  0.00    +0.005 A 
ATOM     32  C   UNL     1       1.115  -2.476  -5.428  0.00  0.00    +0.024 A 
ATOM     33  C   UNL     1       2.172  -3.311  -5.767  0.00  0.00    +0.036 A 
ATOM     34  C   UNL     1       3.318  -2.778  -6.341  0.00  0.00    -0.029 A 
ATOM     35  C   UNL     1       3.403  -1.419  -6.577  0.00  0.00    +0.008 A 
ATOM     36  C   UNL     1       4.467  -3.680  -6.711  0.00  0.00    +0.045 C 
ENDBRANCH  25  33
ENDBRANCH  24  26
ENDBRANCH  23  24
ENDBRANCH   1  23
TORSDOF 7
