REMARK  Name = ZINC22114250
REMARK  4 active torsions:
REMARK  status: ('A' for Active; 'I' for Inactive)
REMARK    1  A    between atoms: C_1  and  N_2
REMARK    2  A    between atoms: N_2  and  CA_3
REMARK    3  A    between atoms: CA_3  and  C_5
REMARK    4  A    between atoms: CA_3  and  C_12
REMARK                            x       y       z     vdW  Elec       q    Type
REMARK                         _______ _______ _______ _____ _____    ______ ____
ROOT
ATOM      1  CA  UNL     1      -0.740   3.027   1.259  0.00  0.00    +0.074 C 
ENDROOT
BRANCH   1   2
ATOM      2  C   UNL     1      -0.863   3.486   2.689  0.00  0.00    -0.051 A 
ATOM      3  C   UNL     1      -1.691   2.807   3.563  0.00  0.00    +0.004 A 
ATOM      4  C   UNL     1      -1.800   3.224   4.877  0.00  0.00    +0.020 A 
ATOM      5  C   UNL     1      -1.088   4.327   5.314  0.00  0.00    +0.041 A 
ATOM      6  C   UNL     1      -0.264   5.009   4.437  0.00  0.00    +0.020 A 
ATOM      7  C   UNL     1      -0.151   4.588   3.125  0.00  0.00    +0.004 A 
ATOM      8 CL   UNL     1      -1.230   4.855   6.961  0.00  0.00    -0.084 Cl
ENDBRANCH   1   2
BRANCH   1  10
ATOM      9  C   UNL     1      -0.013   1.086   0.008  0.00  0.00    -0.099 C 
ATOM     10  N   UNL     1      -0.700   1.560   1.217  0.00  0.00    +0.389 N 
ATOM     11  H1  UNL     1      -1.732   1.179   1.224  0.00  0.00    -0.085 HD
ATOM     12  H2  UNL     1      -0.168   1.195   2.108  0.00  0.00    -0.085 HD
ENDBRANCH   1  10
BRANCH   1  13
ATOM     13  C   UNL     1      -1.924   3.521   0.469  0.00  0.00    +0.347 C 
ATOM     14  O   UNL     1      -2.661   2.731  -0.073  0.00  0.00    -0.248 OA
ATOM     15  OXT UNL     1      -2.162   4.838   0.369  0.00  0.00    -0.248 OA
ENDBRANCH   1  13
TORSDOF 3
