REMARK  Name = ZINC63888431
REMARK  10 active torsions:
REMARK  status: ('A' for Active; 'I' for Inactive)
REMARK    1  A    between atoms: C_1  and  C_2
REMARK    2  A    between atoms: C_5  and  C_24
REMARK    3  A    between atoms: C_7  and  N_8
REMARK    4  A    between atoms: N_8  and  C_9
REMARK    5  A    between atoms: C_9  and  C_10
REMARK    6  A    between atoms: N_12  and  C_13
REMARK    7  A    between atoms: C_16  and  O_21
REMARK    8  A    between atoms: C_18  and  O_19
REMARK    9  A    between atoms: O_19  and  C_20
REMARK   10  A    between atoms: O_21  and  C_22
REMARK                            x       y       z     vdW  Elec       q    Type
REMARK                         _______ _______ _______ _____ _____    ______ ____
ROOT
ATOM      1  C   UNL     1       0.027  -0.745   3.682  0.00  0.00    +0.198 C 
ENDROOT
BRANCH   1   2
ATOM      2  C   UNL     1       0.037   0.230   4.831  0.00  0.00    +0.234 C 
ATOM      3  O   UNL     1       0.022   1.423   4.614  0.00  0.00    -0.274 OA
ATOM      4  N   UNL     1       0.063  -0.224   6.099  0.00  0.00    -0.281 N 
ATOM      5  H   UNL     1       0.009  -1.177   6.275  0.00  0.00    +0.155 HD
BRANCH   4   6
ATOM      6  C   UNL     1       0.166   0.681   7.167  0.00  0.00    +0.077 A 
ATOM      7  C   UNL     1      -0.442   1.924   7.084  0.00  0.00    +0.050 A 
ATOM      8  C   UNL     1      -0.340   2.816   8.135  0.00  0.00    +0.084 A 
ATOM      9  C   UNL     1       0.372   2.469   9.275  0.00  0.00    +0.142 A 
ATOM     10  C   UNL     1       0.982   1.227   9.362  0.00  0.00    +0.094 A 
ATOM     11  C   UNL     1       0.876   0.329   8.312  0.00  0.00    +0.145 A 
ATOM     12 CL   UNL     1      -1.101   4.373   8.029  0.00  0.00    -0.080 Cl
BRANCH  11  13
ATOM     13  O   UNL     1       1.469  -0.892   8.398  0.00  0.00    -0.493 OA
ATOM     14  C   UNL     1       2.180  -1.185   9.602  0.00  0.00    +0.277 C 
ENDBRANCH  11  13
BRANCH   9  15
ATOM     15  O   UNL     1       0.472   3.348  10.308  0.00  0.00    -0.494 OA
ATOM     16  C   UNL     1       1.219   2.925  11.450  0.00  0.00    +0.277 C 
ENDBRANCH   9  15
ENDBRANCH   4   6
ENDBRANCH   1   2
BRANCH   1  17
ATOM     17  N   UNL     1      -0.001  -0.007   2.416  0.00  0.00    -0.335 N 
ATOM     18  H   UNL     1      -0.010   0.963   2.420  0.00  0.00    +0.147 HD
BRANCH  17  25
ATOM     19  C   UNL     1      -0.055   1.505   0.012  0.00  0.00    +0.045 C 
ATOM     20  C   UNL     1      -0.041  -0.002   0.003  0.00  0.00    -0.030 A 
ATOM     21  C   UNL     1      -0.049  -0.684  -1.200  0.00  0.00    +0.006 A 
ATOM     22  C   UNL     1      -0.036  -2.063  -1.216  0.00  0.00    +0.013 A 
ATOM     23  C   UNL     1      -0.015  -2.776  -0.015  0.00  0.00    +0.038 A 
ATOM     24  C   UNL     1      -0.007  -2.088   1.198  0.00  0.00    +0.036 A 
ATOM     25  C   UNL     1      -0.015  -0.701   1.203  0.00  0.00    +0.031 A 
BRANCH  23  26
ATOM     26  C   UNL     1      -0.002  -4.254  -0.030  0.00  0.00    +0.242 C 
ATOM     27  O   UNL     1       0.017  -4.872   1.016  0.00  0.00    -0.270 OA
ATOM     28  N   UNL     1      -0.010  -4.917  -1.204  0.00  0.00    -0.325 N 
ATOM     29  H   UNL     1      -0.024  -4.423  -2.039  0.00  0.00    +0.145 HD
ATOM     30  H   UNL     1      -0.001  -5.886  -1.214  0.00  0.00    +0.145 HD
ENDBRANCH  23  26
ENDBRANCH  17  25
ENDBRANCH   1  17
TORSDOF 7
