REMARK  Name = ZINC51118065
REMARK  6 active torsions:
REMARK  status: ('A' for Active; 'I' for Inactive)
REMARK    1  A    between atoms: C_1  and  C_2
REMARK    2  A    between atoms: C_2  and  C_4
REMARK    3  A    between atoms: C_2  and  N_11
REMARK    4  A    between atoms: C_12  and  C_14
REMARK    5  A    between atoms: C_18  and  N_20
REMARK    6  A    between atoms: N_20  and  N_21
REMARK                            x       y       z     vdW  Elec       q    Type
REMARK                         _______ _______ _______ _____ _____    ______ ____
ROOT
ATOM      1  N   UNL     1       0.764  -0.485  -1.153  0.00  0.00    -0.303 N 
ATOM      2  C   UNL     1       2.096  -0.663  -1.055  0.00  0.00    +0.263 C 
ATOM      3  O   UNL     1       2.666  -0.424  -0.008  0.00  0.00    -0.269 OA
ATOM      4  H   UNL     1       0.310  -0.676  -1.989  0.00  0.00    +0.150 HD
ENDROOT
BRANCH   2   5
ATOM      5  C   UNL     1       2.867  -1.149  -2.223  0.00  0.00    +0.127 A 
ATOM      6  C   UNL     1       4.241  -1.336  -2.112  0.00  0.00    +0.033 A 
ATOM      7  C   UNL     1       4.954  -1.792  -3.212  0.00  0.00    +0.006 A 
ATOM      8  C   UNL     1       4.268  -2.046  -4.386  0.00  0.00    +0.045 A 
ATOM      9  C   UNL     1       2.890  -1.838  -4.429  0.00  0.00    +0.133 A 
ATOM     10  N   UNL     1       2.238  -1.409  -3.364  0.00  0.00    -0.226 NA
BRANCH   9  11
ATOM     11  N   UNL     1       2.193  -2.091  -5.605  0.00  0.00    -0.268 N 
ATOM     12  H   UNL     1       2.666  -2.411  -6.390  0.00  0.00    +0.167 HD
BRANCH  11  13
ATOM     13  N   UNL     1       0.843  -1.890  -5.656  0.00  0.00    -0.255 NA
ATOM     14  H   UNL     1       0.609  -0.944  -5.396  0.00  0.00    +0.140 HD
ATOM     15  H   UNL     1       0.478  -2.115  -6.569  0.00  0.00    +0.140 HD
ENDBRANCH  11  13
ENDBRANCH   9  11
ENDBRANCH   2   5
BRANCH   1  17
ATOM     16  C   UNL     1       0.009   1.526   0.016  0.00  0.00    +0.033 C 
ATOM     17  C   UNL     1       0.002  -0.004   0.002  0.00  0.00    +0.102 C 
BRANCH  17  18
ATOM     18  C   UNL     1      -1.418  -0.499  -0.092  0.00  0.00    -0.009 A 
ATOM     19  C   UNL     1      -1.976  -0.770  -1.327  0.00  0.00    +0.007 A 
ATOM     20  C   UNL     1      -3.279  -1.224  -1.413  0.00  0.00    +0.000 A 
ATOM     21  C   UNL     1      -4.025  -1.407  -0.264  0.00  0.00    +0.001 A 
ATOM     22  C   UNL     1      -3.468  -1.137   0.972  0.00  0.00    +0.020 A 
ATOM     23  C   UNL     1      -2.162  -0.688   1.059  0.00  0.00    +0.046 A 
ATOM     24 CL   UNL     1      -1.461  -0.354   2.611  0.00  0.00    -0.083 Cl
ENDBRANCH  17  18
ENDBRANCH   1  17
TORSDOF 5
