REMARK  Name = ZINC08963260
REMARK  7 active torsions:
REMARK  status: ('A' for Active; 'I' for Inactive)
REMARK    1  A    between atoms: C_1  and  N_2
REMARK    2  A    between atoms: C_9  and  C_11
REMARK    3  A    between atoms: C_11  and  C_13
REMARK    4  A    between atoms: C_11  and  N_55
REMARK    5  A    between atoms: C_13  and  N_14
REMARK    6  A    between atoms: C_15  and  C_17
REMARK    7  A    between atoms: C_19  and  N_24
REMARK                            x       y       z     vdW  Elec       q    Type
REMARK                         _______ _______ _______ _____ _____    ______ ____
ROOT
ATOM      1  C   UNL     1      -3.382   6.137  -1.056  0.00  0.00    -0.020 C 
ENDROOT
BRANCH   1  10
ATOM      2  C   UNL     1       2.267   4.316   1.519  0.00  0.00    +0.129 C 
ATOM      3  N   UNL     1       1.196   3.471   0.975  0.00  0.00    -0.332 N 
ATOM      4  C   UNL     1       1.655   2.742  -0.227  0.00  0.00    +0.109 C 
ATOM      5  C   UNL     1       0.361   2.610  -1.063  0.00  0.00    +0.056 C 
ATOM      6  C   UNL     1      -0.471   3.783  -0.583  0.00  0.00    -0.025 A 
ATOM      7  C   UNL     1       0.081   4.240   0.608  0.00  0.00    +0.033 A 
ATOM      8  C   UNL     1      -0.504   5.329   1.251  0.00  0.00    +0.023 A 
ATOM      9  C   UNL     1      -1.619   5.937   0.711  0.00  0.00    +0.004 A 
ATOM     10  C   UNL     1      -2.163   5.471  -0.471  0.00  0.00    -0.059 A 
ATOM     11  C   UNL     1      -1.586   4.393  -1.118  0.00  0.00    +0.007 A 
ENDBRANCH   1  10
BRANCH   1  16
ATOM     12  C   UNL     1      -5.674   6.810  -0.586  0.00  0.00    -0.078 C 
ATOM     13  C   UNL     1      -6.745   6.383   0.449  0.00  0.00    -0.020 C 
ATOM     14  C   UNL     1      -6.270   4.975   0.876  0.00  0.00    -0.020 C 
ATOM     15  C   UNL     1      -4.769   4.937   0.538  0.00  0.00    -0.078 C 
ATOM     16  N   UNL     1      -4.440   6.255  -0.008  0.00  0.00    +0.385 N 
ATOM     17  H   UNL     1      -4.104   6.867   0.744  0.00  0.00    -0.081 HD
ENDBRANCH   1  16
BRANCH   1  18
ATOM     18  C   UNL     1      -3.006   7.529  -1.569  0.00  0.00    +0.094 C 
BRANCH  18  19
ATOM     19  N   UNL     1      -4.124   8.085  -2.335  0.00  0.00    -0.313 N 
ATOM     20  C   UNL     1      -4.077   9.361  -2.767  0.00  0.00    +0.246 C 
ATOM     21  O   UNL     1      -3.106  10.050  -2.521  0.00  0.00    -0.270 OA
ATOM     22  H   UNL     1      -4.899   7.535  -2.531  0.00  0.00    +0.149 HD
BRANCH  20  23
ATOM     23  C   UNL     1      -5.205   9.922  -3.539  0.00  0.00    +0.057 A 
ATOM     24  C   UNL     1      -6.319   9.131  -3.828  0.00  0.00    +0.047 A 
ATOM     25  C   UNL     1      -7.370   9.662  -4.546  0.00  0.00    +0.127 A 
ATOM     26  C   UNL     1      -7.319  10.973  -4.988  0.00  0.00    +0.034 A 
ATOM     27  C   UNL     1      -6.217  11.761  -4.710  0.00  0.00    +0.023 A 
ATOM     28  C   UNL     1      -5.159  11.244  -3.988  0.00  0.00    +0.053 A 
ATOM     29 CL   UNL     1      -3.776  12.234  -3.640  0.00  0.00    -0.083 Cl
BRANCH  25  30
ATOM     30  N   UNL     1      -8.554   8.827  -4.848  0.00  0.00    +0.056 N 
ATOM     31  O   UNL     1      -9.481   9.293  -5.486  0.00  0.00    -0.126 OA
ATOM     32  O   UNL     1      -8.600   7.673  -4.460  0.00  0.00    -0.126 OA
ENDBRANCH  25  30
ENDBRANCH  20  23
ENDBRANCH  18  19
ENDBRANCH   1  18
TORSDOF 6
