REMARK  Name = ZINC59897081
REMARK  5 active torsions:
REMARK  status: ('A' for Active; 'I' for Inactive)
REMARK    1  A    between atoms: C_3  and  N_27
REMARK    2  A    between atoms: C_4  and  N_24
REMARK    3  A    between atoms: C_6  and  C_7
REMARK    4  A    between atoms: C_17  and  O_19
REMARK    5  A    between atoms: O_19  and  C_20
REMARK                            x       y       z     vdW  Elec       q    Type
REMARK                         _______ _______ _______ _____ _____    ______ ____
ROOT
ATOM      1  C   UNL     1      -1.421  -0.777  -0.030  0.00  0.00    +0.251 C 
ATOM      2  O   UNL     1      -0.423  -0.103  -0.202  0.00  0.00    -0.270 OA
ATOM      3  N   UNL     1      -2.620  -0.181   0.117  0.00  0.00    -0.267 N 
ATOM      4  C   UNL     1      -3.849  -0.983   0.189  0.00  0.00    +0.114 C 
ATOM      5  C   UNL     1      -4.899  -0.312  -0.707  0.00  0.00    +0.024 C 
ATOM      6  C   UNL     1      -5.212   1.076  -0.147  0.00  0.00    +0.038 C 
ATOM      7  C   UNL     1      -3.942   1.852   0.079  0.00  0.00    -0.022 A 
ATOM      8  C   UNL     1      -2.716   1.216   0.209  0.00  0.00    +0.040 A 
ATOM      9  C   UNL     1      -1.562   1.959   0.427  0.00  0.00    +0.027 A 
ATOM     10  C   UNL     1      -1.631   3.335   0.518  0.00  0.00    +0.048 A 
ATOM     11  C   UNL     1      -2.855   3.974   0.391  0.00  0.00    +0.130 A 
ATOM     12  C   UNL     1      -4.008   3.233   0.164  0.00  0.00    +0.051 A 
ENDROOT
BRANCH   1  18
ATOM     13  C   UNL     1      -2.250  -2.992   0.746  0.00  0.00    +0.015 A 
ATOM     14  C   UNL     1      -2.152  -4.364   0.789  0.00  0.00    +0.026 A 
ATOM     15  C   UNL     1      -1.125  -5.011   0.107  0.00  0.00    +0.055 A 
ATOM     16  C   UNL     1      -0.194  -4.273  -0.619  0.00  0.00    +0.147 A 
ATOM     17  C   UNL     1      -0.286  -2.901  -0.665  0.00  0.00    +0.047 A 
ATOM     18  C   UNL     1      -1.318  -2.248   0.018  0.00  0.00    +0.040 A 
BRANCH  16  19
ATOM     19  N   UNL     1       0.897  -4.965  -1.341  0.00  0.00    +0.058 N 
ATOM     20  O   UNL     1       2.002  -4.475  -1.380  0.00  0.00    -0.126 OA
ATOM     21  O   UNL     1       0.684  -6.019  -1.893  0.00  0.00    -0.126 OA
ENDBRANCH  16  19
BRANCH  15  22
ATOM     22  N   UNL     1      -1.028  -6.398   0.152  0.00  0.00    -0.356 N 
ATOM     23  H   UNL     1      -1.636  -6.908   0.709  0.00  0.00    +0.142 HD
ATOM     24  H   UNL     1      -0.352  -6.854  -0.373  0.00  0.00    +0.142 HD
ENDBRANCH  15  22
ENDBRANCH   1  18
BRANCH  11  25
ATOM     25  O   UNL     1      -2.926   5.330   0.480  0.00  0.00    -0.406 OA
BRANCH  25  26
ATOM     26  C   UNL     1      -1.701   6.030   0.704  0.00  0.00    +0.575 C 
ATOM     27  F   UNL     1      -0.815   5.768  -0.347  0.00  0.00    -0.133 F 
ATOM     28  F   UNL     1      -1.955   7.404   0.767  0.00  0.00    -0.133 F 
ATOM     29  F   UNL     1      -1.134   5.604   1.909  0.00  0.00    -0.133 F 
ENDBRANCH  25  26
ENDBRANCH  11  25
TORSDOF 5
