REMARK  Name = ZINC39464558
REMARK  9 active torsions:
REMARK  status: ('A' for Active; 'I' for Inactive)
REMARK    1  A    between atoms: C_1  and  C_2
REMARK    2  A    between atoms: C_2  and  O_3
REMARK    3  A    between atoms: O_3  and  C_4
REMARK    4  A    between atoms: C_9  and  S_10
REMARK    5  A    between atoms: S_10  and  C_13
REMARK    6  A    between atoms: C_13  and  C_14
REMARK    7  A    between atoms: C_13  and  C_15
REMARK    8  A    between atoms: P_23  and  C_26
REMARK    9  A    between atoms: C_31  and  O_32
REMARK                            x       y       z     vdW  Elec       q    Type
REMARK                         _______ _______ _______ _____ _____    ______ ____
ROOT
ATOM      1  C   UNL     1      -1.920  -2.301   0.247  0.00  0.00    +0.146 A 
ATOM      2  C   UNL     1      -0.991  -3.328   0.292  0.00  0.00    +0.053 A 
ATOM      3  C   UNL     1      -1.398  -4.647   0.160  0.00  0.00    -0.020 A 
ATOM      4  C   UNL     1      -2.734  -4.935  -0.018  0.00  0.00    -0.039 A 
ATOM      5  C   UNL     1      -3.666  -3.909  -0.063  0.00  0.00    +0.034 A 
ATOM      6  C   UNL     1      -3.264  -2.595   0.073  0.00  0.00    +0.130 A 
ATOM      7  C   UNL     1      -3.220  -6.354  -0.169  0.00  0.00    +0.052 C 
ATOM      8  C   UNL     1      -2.159  -7.319   0.360  0.00  0.00    +0.108 C 
ATOM      9  N   UNL     1      -0.871  -7.000  -0.273  0.00  0.00    -0.225 NA
ATOM     10  C   UNL     1      -0.348  -5.725   0.218  0.00  0.00    +0.130 C 
ATOM     11  C   UNL     1       0.871  -5.280  -0.596  0.00  0.00    +0.194 C 
ATOM     12  O   UNL     1       1.915  -6.262  -0.439  0.00  0.00    -0.311 OA
ATOM     13  P   UNL     1       1.542  -7.827  -0.676  0.00  0.00    +0.318 P 
ATOM     14  O   UNL     1       2.505  -8.696   0.037  0.00  0.00    -0.266 OA
ATOM     15  N   UNL     1       0.024  -8.024  -0.051  0.00  0.00    -0.175 NA
ATOM     16  H   UNL     1      -0.224  -8.819   0.446  0.00  0.00    +0.151 HD
ENDROOT
BRANCH  13  17
ATOM     17  C   UNL     1       1.548  -8.211  -2.449  0.00  0.00    +0.094 A 
ATOM     18  C   UNL     1       0.392  -8.066  -3.192  0.00  0.00    +0.018 A 
ATOM     19  C   UNL     1       0.395  -8.358  -4.543  0.00  0.00    +0.001 A 
ATOM     20  C   UNL     1       1.555  -8.796  -5.155  0.00  0.00    +0.004 A 
ATOM     21  C   UNL     1       2.714  -8.943  -4.417  0.00  0.00    +0.046 A 
ATOM     22  C   UNL     1       2.714  -8.645  -3.062  0.00  0.00    +0.131 A 
BRANCH  22  23
ATOM     23  O   UNL     1       3.854  -8.783  -2.335  0.00  0.00    -0.506 OA
ATOM     24  H   UNL     1       3.967  -9.660  -1.944  0.00  0.00    +0.292 HD
ENDBRANCH  22  23
ENDBRANCH  13  17
BRANCH   6  25
ATOM     25  S   UNL     1      -4.454  -1.297   0.021  0.00  0.00    +0.003 S 
ATOM     26  O   UNL     1      -5.703  -1.956  -0.137  0.00  0.00    -0.169 OA
ATOM     27  O   UNL     1      -4.189  -0.514   1.177  0.00  0.00    -0.169 OA
BRANCH  25  28
ATOM     28  C   UNL     1      -4.051  -0.356  -1.477  0.00  0.00    +0.130 C 
ATOM     29  C   UNL     1      -4.172  -1.267  -2.700  0.00  0.00    +0.032 C 
ATOM     30  C   UNL     1      -5.022   0.818  -1.618  0.00  0.00    +0.032 C 
ENDBRANCH  25  28
ENDBRANCH   6  25
BRANCH   1  31
ATOM     31  O   UNL     1      -1.516  -1.010   0.378  0.00  0.00    -0.490 OA
BRANCH  31  33
ATOM     32  C   UNL     1       0.145   0.719   0.681  0.00  0.00    +0.048 C 
ATOM     33  C   UNL     1      -0.116  -0.783   0.553  0.00  0.00    +0.226 C 
ENDBRANCH  31  33
ENDBRANCH   1  31
TORSDOF 6
