REMARK  Name = ZINC49977356
REMARK  9 active torsions:
REMARK  status: ('A' for Active; 'I' for Inactive)
REMARK    1  A    between atoms: C_1  and  C_2
REMARK    2  A    between atoms: C_2  and  C_3
REMARK    3  A    between atoms: C_3  and  N_4
REMARK    4  A    between atoms: C_6  and  N_21
REMARK    5  A    between atoms: C_8  and  C_9
REMARK    6  A    between atoms: N_11  and  C_12
REMARK    7  A    between atoms: N_11  and  C_13
REMARK    8  A    between atoms: C_16  and  C_20
REMARK    9  A    between atoms: C_18  and  C_19
REMARK                            x       y       z     vdW  Elec       q    Type
REMARK                         _______ _______ _______ _____ _____    ______ ____
ROOT
ATOM      1  C   UNL     1       3.195  -2.261  -0.332  0.00  0.00    +0.267 C 
ATOM      2  O   UNL     1       3.891  -3.133  -0.819  0.00  0.00    -0.268 OA
ATOM      3  N   UNL     1       3.254  -1.004  -0.814  0.00  0.00    -0.269 N 
ATOM      4  C   UNL     1       2.427   0.049  -0.219  0.00  0.00    +0.138 C 
ENDROOT
BRANCH   3   5
ATOM      5  C   UNL     1       4.105  -0.704  -1.883  0.00  0.00    +0.039 A 
ATOM      6  C   UNL     1       3.645  -0.805  -3.189  0.00  0.00    +0.024 A 
ATOM      7  C   UNL     1       4.488  -0.507  -4.242  0.00  0.00    +0.005 A 
ATOM      8  C   UNL     1       5.789  -0.110  -3.996  0.00  0.00    -0.050 A 
ATOM      9  C   UNL     1       6.251  -0.009  -2.697  0.00  0.00    +0.008 A 
ATOM     10  C   UNL     1       5.411  -0.299  -1.639  0.00  0.00    -0.029 A 
ATOM     11  C   UNL     1       5.913  -0.182  -0.223  0.00  0.00    +0.045 C 
ATOM     12  C   UNL     1       6.707   0.214  -5.147  0.00  0.00    +0.044 C 
ENDBRANCH   3   5
BRANCH   1  17
ATOM     13  N   UNL     1       1.937  -3.838   1.201  0.00  0.00    -0.341 N 
ATOM     14  C   UNL     1       1.091  -3.720   2.260  0.00  0.00    +0.109 A 
ATOM     15  C   UNL     1       0.895  -2.400   2.517  0.00  0.00    +0.043 A 
ATOM     16  C   UNL     1       1.645  -1.667   1.587  0.00  0.00    +0.055 A 
ATOM     17  C   UNL     1       2.293  -2.578   0.779  0.00  0.00    +0.107 A 
BRANCH  15  18
ATOM     18  N   UNL     1       0.083  -1.865   3.535  0.00  0.00    -0.357 N 
ATOM     19  H   UNL     1      -0.400  -2.458   4.132  0.00  0.00    +0.142 HD
ATOM     20  H   UNL     1       0.007  -0.904   3.639  0.00  0.00    +0.142 HD
ENDBRANCH  15  18
BRANCH  13  21
ATOM     21  C   UNL     1       2.398  -5.098   0.613  0.00  0.00    +0.122 C 
BRANCH  21  23
ATOM     22  C   UNL     1       4.279  -6.741   0.538  0.00  0.00    +0.005 C 
ATOM     23  C   UNL     1       3.738  -5.493   1.238  0.00  0.00    +0.018 C 
ENDBRANCH  21  23
ENDBRANCH  13  21
ENDBRANCH   1  17
TORSDOF 5
