REMARK  Name = ZINC03830997
REMARK  15 active torsions:
REMARK  status: ('A' for Active; 'I' for Inactive)
REMARK    1  A    between atoms: C_1  and  C_2
REMARK    2  A    between atoms: C_2  and  C_3
REMARK    3  A    between atoms: C_3  and  C_4
REMARK    4  A    between atoms: C_7  and  C_12
REMARK    5  A    between atoms: N_9  and  C_11
REMARK    6  A    between atoms: N_14  and  C_15
REMARK    7  A    between atoms: C_15  and  C_17
REMARK    8  A    between atoms: C_15  and  C_33
REMARK    9  A    between atoms: C_19  and  O_32
REMARK   10  A    between atoms: C_21  and  O_31
REMARK   11  A    between atoms: C_23  and  O_30
REMARK   12  A    between atoms: C_25  and  S_28
REMARK   13  A    between atoms: S_28  and  C_29
REMARK   14  A    between atoms: C_33  and  C_35
REMARK   15  A    between atoms: C_33  and  O_36
REMARK                            x       y       z     vdW  Elec       q    Type
REMARK                         _______ _______ _______ _____ _____    ______ ____
ROOT
ATOM      1  C   UNL     1       1.443  -6.267  -1.275  0.00  0.00    +0.132 C 
ENDROOT
BRANCH   1   2
ATOM      2  C   UNL     1       2.286  -6.612  -2.504  0.00  0.00    +0.173 C 
ATOM      3  C   UNL     1       1.401  -7.282  -3.558  0.00  0.00    +0.176 C 
ATOM      4  C   UNL     1       2.264  -7.679  -4.761  0.00  0.00    +0.177 C 
ATOM      5  C   UNL     1       3.395  -8.595  -4.283  0.00  0.00    +0.184 C 
ATOM      6  C   UNL     1       4.203  -7.874  -3.201  0.00  0.00    +0.207 C 
ATOM      7  O   UNL     1       3.336  -7.506  -2.127  0.00  0.00    -0.356 OA
BRANCH   6   8
ATOM      8  S   UNL     1       5.501  -8.978  -2.579  0.00  0.00    -0.131 S 
ATOM      9  C   UNL     1       6.449  -7.939  -1.434  0.00  0.00    +0.087 C 
ENDBRANCH   6   8
BRANCH   5  10
ATOM     10  O   UNL     1       2.841  -9.798  -3.746  0.00  0.00    -0.386 OA
ATOM     11  H   UNL     1       3.502 -10.426  -3.424  0.00  0.00    +0.210 HD
ENDBRANCH   5  10
BRANCH   4  12
ATOM     12  O   UNL     1       1.460  -8.369  -5.719  0.00  0.00    -0.386 OA
ATOM     13  H   UNL     1       1.943  -8.650  -6.508  0.00  0.00    +0.210 HD
ENDBRANCH   4  12
BRANCH   3  14
ATOM     14  O   UNL     1       0.793  -8.449  -3.000  0.00  0.00    -0.387 OA
ATOM     15  H   UNL     1       0.217  -8.924  -3.614  0.00  0.00    +0.210 HD
ENDBRANCH   3  14
ENDBRANCH   1   2
BRANCH   1  18
ATOM     16  C   UNL     1      -0.735  -5.230  -0.931  0.00  0.00    +0.200 C 
ATOM     17  O   UNL     1      -0.896  -5.956   0.027  0.00  0.00    -0.278 OA
ATOM     18  N   UNL     1       0.403  -5.307  -1.650  0.00  0.00    -0.309 N 
ATOM     19  H   UNL     1       0.532  -4.727  -2.417  0.00  0.00    +0.149 HD
BRANCH  16  22
ATOM     20  C   UNL     1      -1.736  -2.329   0.167  0.00  0.00    -0.029 C 
ATOM     21  C   UNL     1      -1.250  -2.805  -1.227  0.00  0.00    -0.005 C 
ATOM     22  C   UNL     1      -1.805  -4.242  -1.317  0.00  0.00    +0.019 C 
ATOM     23  N   UNL     1      -2.938  -4.332  -0.378  0.00  0.00    +0.386 N 
ATOM     24  C   UNL     1      -3.121  -3.014   0.268  0.00  0.00    -0.075 C 
ATOM     25  C   UNL     1      -4.158  -4.699  -1.109  0.00  0.00    -0.095 C 
ATOM     26  H   UNL     1      -2.742  -5.030   0.325  0.00  0.00    -0.081 HD
BRANCH  20  27
ATOM     27  C   UNL     1      -1.873  -0.806   0.210  0.00  0.00    +0.001 C 
BRANCH  27  29
ATOM     28  C   UNL     1      -0.622   1.356   0.197  0.00  0.00    +0.004 C 
ATOM     29  C   UNL     1      -0.484  -0.167   0.155  0.00  0.00    -0.003 C 
ENDBRANCH  27  29
ENDBRANCH  20  27
ENDBRANCH  16  22
ENDBRANCH   1  18
BRANCH   1  30
ATOM     30  C   UNL     1       2.340  -5.653  -0.198  0.00  0.00    +0.134 C 
ATOM     31  C   UNL     1       2.880  -4.309  -0.690  0.00  0.00    +0.039 C 
BRANCH  30  32
ATOM     32  O   UNL     1       1.581  -5.453   0.997  0.00  0.00    -0.390 OA
ATOM     33  H   UNL     1       1.280  -6.272   1.413  0.00  0.00    +0.210 HD
ENDBRANCH  30  32
ENDBRANCH   1  30
TORSDOF 11
