REMARK  Name = ZINC20673346
REMARK  5 active torsions:
REMARK  status: ('A' for Active; 'I' for Inactive)
REMARK    1  A    between atoms: C_1  and  C_2
REMARK    2  A    between atoms: C_2  and  N_3
REMARK    3  A    between atoms: C_13  and  C_29
REMARK    4  A    between atoms: N_19  and  C_22
REMARK    5  A    between atoms: C_22  and  C_23
REMARK                            x       y       z     vdW  Elec       q    Type
REMARK                         _______ _______ _______ _____ _____    ______ ____
ROOT
ATOM      1  N   UNL     1       0.713  -0.491   1.192  0.00  0.00    +0.382 N 
ATOM      2  C   UNL     1      -0.035  -0.109   2.397  0.00  0.00    -0.060 C 
ATOM      3  C   UNL     1       0.761  -0.515   3.641  0.00  0.00    +0.089 C 
ATOM      4  N   UNL     1       1.071  -1.950   3.549  0.00  0.00    -0.307 N 
ATOM      5  C   UNL     1       1.676  -2.450   2.304  0.00  0.00    +0.089 C 
ATOM      6  C   UNL     1       0.836  -1.952   1.123  0.00  0.00    -0.060 C 
ATOM      7  C   UNL     1       0.807  -2.792   4.586  0.00  0.00    +0.195 C 
ATOM      8  N   UNL     1       0.259  -2.322   5.695  0.00  0.00    -0.149 NA
ATOM      9  C   UNL     1      -0.004  -3.090   6.743  0.00  0.00    +0.258 C 
ATOM     10  O   UNL     1      -0.533  -2.602   7.722  0.00  0.00    -0.272 OA
ATOM     11  C   UNL     1       0.341  -4.558   6.744  0.00  0.00    +0.204 C 
ATOM     12  C   UNL     1       0.340  -5.068   5.299  0.00  0.00    +0.077 C 
ATOM     13  N   UNL     1       1.104  -4.122   4.478  0.00  0.00    -0.213 NA
ATOM     14  C   UNL     1      -1.096  -5.150   4.780  0.00  0.00    +0.011 C 
ATOM     15  C   UNL     1      -1.088  -5.726   3.362  0.00  0.00    -0.076 C 
ATOM     16  N   UNL     1      -0.486  -7.065   3.378  0.00  0.00    +0.382 N 
ATOM     17  C   UNL     1       0.916  -6.977   3.801  0.00  0.00    -0.076 C 
ATOM     18  C   UNL     1       0.989  -6.450   5.236  0.00  0.00    +0.011 C 
ATOM     19  H   UNL     1      -0.994  -7.653   4.023  0.00  0.00    -0.081 HD
ATOM     20  H   UNL     1       1.633  -0.078   1.225  0.00  0.00    -0.082 HD
ENDROOT
BRANCH   1  22
ATOM     21  C   UNL     1      -0.019   1.526   0.010  0.00  0.00    -0.017 C 
ATOM     22  C   UNL     1       0.002  -0.004   0.002  0.00  0.00    -0.082 C 
ENDBRANCH   1  22
BRANCH  11  23
ATOM     23  C   UNL     1       1.675  -4.751   7.336  0.00  0.00    +0.078 C 
ATOM     24  N   UNL     1       2.704  -4.899   7.793  0.00  0.00    -0.196 NA
ENDBRANCH  11  23
BRANCH  16  25
ATOM     25  C   UNL     1      -0.555  -7.647   2.031  0.00  0.00    -0.043 C 
BRANCH  25  26
ATOM     26  C   UNL     1      -0.051  -9.067   2.071  0.00  0.00    -0.064 A 
ATOM     27  C   UNL     1       1.291  -9.330   1.871  0.00  0.00    +0.002 A 
ATOM     28  C   UNL     1       1.754 -10.632   1.908  0.00  0.00    +0.000 A 
ATOM     29  C   UNL     1       0.874 -11.671   2.145  0.00  0.00    +0.000 A 
ATOM     30  C   UNL     1      -0.468 -11.409   2.346  0.00  0.00    +0.000 A 
ATOM     31  C   UNL     1      -0.930 -10.106   2.314  0.00  0.00    +0.002 A 
ENDBRANCH  25  26
ENDBRANCH  16  25
TORSDOF 4
