REMARK  Name = ZINC49550756
REMARK  8 active torsions:
REMARK  status: ('A' for Active; 'I' for Inactive)
REMARK    1  A    between atoms: C_1  and  C_2
REMARK    2  A    between atoms: C_2  and  C_4
REMARK    3  A    between atoms: C_2  and  O_21
REMARK    4  A    between atoms: C_9  and  N_10
REMARK    5  A    between atoms: C_14  and  C_17
REMARK    6  A    between atoms: C_14  and  C_18
REMARK    7  A    between atoms: C_18  and  C_19
REMARK    8  A    between atoms: C_18  and  C_20
REMARK                            x       y       z     vdW  Elec       q    Type
REMARK                         _______ _______ _______ _____ _____    ______ ____
ROOT
ATOM      1  N   UNL     1      -1.091  -0.247   2.445  0.00  0.00    -0.210 N 
ATOM      2  C   UNL     1      -2.093  -1.095   2.180  0.00  0.00    +0.227 C 
ATOM      3  O   UNL     1      -1.968  -2.280   1.955  0.00  0.00    -0.275 OA
ATOM      4  C   UNL     1      -3.404  -0.341   2.206  0.00  0.00    +0.113 C 
ATOM      5  C   UNL     1      -2.982   1.105   2.536  0.00  0.00    +0.056 C 
ATOM      6  C   UNL     1      -1.478   1.015   2.667  0.00  0.00    +0.233 C 
ATOM      7  O   UNL     1      -0.739   1.940   2.930  0.00  0.00    -0.274 OA
ATOM      8  C   UNL     1      -3.607   1.560   3.857  0.00  0.00    +0.021 C 
ENDROOT
BRANCH   1  14
ATOM      9  C   UNL     1       0.839  -0.968   3.709  0.00  0.00    +0.002 A 
ATOM     10  C   UNL     1       2.160  -1.369   3.752  0.00  0.00    +0.008 A 
ATOM     11  C   UNL     1       2.898  -1.449   2.586  0.00  0.00    +0.000 A 
ATOM     12  C   UNL     1       2.316  -1.127   1.373  0.00  0.00    +0.002 A 
ATOM     13  C   UNL     1       0.996  -0.726   1.324  0.00  0.00    +0.024 A 
ATOM     14  C   UNL     1       0.251  -0.649   2.493  0.00  0.00    +0.049 A 
BRANCH   9  16
ATOM     15  C   UNL     1      -0.734  -2.188   5.188  0.00  0.00    +0.043 C 
ATOM     16  C   UNL     1       0.035  -0.881   4.981  0.00  0.00    +0.143 C 
BRANCH  16  17
ATOM     17  O   UNL     1       0.915  -0.666   6.087  0.00  0.00    -0.387 OA
ATOM     18  H   UNL     1       0.465  -0.600   6.940  0.00  0.00    +0.210 HD
ENDBRANCH  16  17
ENDBRANCH   9  16
ENDBRANCH   1  14
BRANCH   5  19
ATOM     19  C   UNL     1      -3.373   2.053   1.400  0.00  0.00    -0.002 C 
ATOM     20  C   UNL     1      -3.001   3.487   1.781  0.00  0.00    +0.008 C 
ATOM     21  C   UNL     1      -2.627   1.655   0.125  0.00  0.00    +0.008 C 
ENDBRANCH   5  19
TORSDOF 4
