REMARK  Name = ZINC13502457
REMARK  11 active torsions:
REMARK  status: ('A' for Active; 'I' for Inactive)
REMARK    1  A    between atoms: C_1  and  O_2
REMARK    2  A    between atoms: O_2  and  C_3
REMARK    3  A    between atoms: C_3  and  C_4
REMARK    4  A    between atoms: C_4  and  N_5
REMARK    5  A    between atoms: N_5  and  C_6
REMARK    6  A    between atoms: C_6  and  C_8
REMARK    7  A    between atoms: C_6  and  C_15
REMARK    8  A    between atoms: N_17  and  C_18
REMARK    9  A    between atoms: C_18  and  C_19
REMARK   10  A    between atoms: C_24  and  C_26
REMARK   11  A    between atoms: C_26  and  N_27
REMARK                            x       y       z     vdW  Elec       q    Type
REMARK                         _______ _______ _______ _____ _____    ______ ____
ROOT
ATOM      1  C   UNL     1      -0.077  -0.053   0.012  0.00  0.00    +0.195 C 
ENDROOT
BRANCH   1   2
ATOM      2  C   UNL     1       0.059   0.950   1.130  0.00  0.00    +0.017 A 
ATOM      3  C   UNL     1      -0.862   0.965   2.160  0.00  0.00    +0.009 A 
ATOM      4  C   UNL     1      -0.738   1.883   3.185  0.00  0.00    +0.001 A 
ATOM      5  C   UNL     1       0.307   2.788   3.181  0.00  0.00    +0.003 A 
ATOM      6  C   UNL     1       1.229   2.775   2.152  0.00  0.00    +0.039 A 
ATOM      7  C   UNL     1       1.109   1.852   1.127  0.00  0.00    +0.129 A 
ATOM      8  F   UNL     1       2.013   1.834   0.123  0.00  0.00    -0.205 F 
ENDBRANCH   1   2
BRANCH   1   9
ATOM      9  C   UNL     1       0.910  -1.173   0.220  0.00  0.00    +0.239 C 
ATOM     10  O   UNL     1       0.515  -2.311   0.354  0.00  0.00    -0.273 OA
ATOM     11  N   UNL     1       2.231  -0.908   0.262  0.00  0.00    -0.306 N 
ATOM     12  H   UNL     1       2.546   0.004   0.158  0.00  0.00    +0.149 HD
BRANCH  11  13
ATOM     13  C   UNL     1       3.190  -1.996   0.463  0.00  0.00    +0.178 C 
BRANCH  13  14
ATOM     14  C   UNL     1       4.590  -1.438   0.470  0.00  0.00    +0.122 A 
ATOM     15  C   UNL     1       5.257  -1.002   1.554  0.00  0.00    +0.046 A 
ATOM     16  C   UNL     1       6.526  -0.567   1.105  0.00  0.00    +0.041 A 
ATOM     17  C   UNL     1       6.558  -0.763  -0.225  0.00  0.00    +0.195 A 
ATOM     18  O   UNL     1       5.384  -1.296  -0.603  0.00  0.00    -0.466 OA
ENDBRANCH  13  14
ENDBRANCH  11  13
ENDBRANCH   1   9
BRANCH   1  19
ATOM     19  N   UNL     1      -1.437  -0.596   0.006  0.00  0.00    -0.282 N 
ATOM     20  C   UNL     1      -1.851  -1.389   1.014  0.00  0.00    +0.238 C 
ATOM     21  O   UNL     1      -1.123  -1.595   1.961  0.00  0.00    -0.274 OA
BRANCH  19  22
ATOM     22  C   UNL     1      -2.348  -0.277  -1.097  0.00  0.00    +0.137 C 
BRANCH  22  23
ATOM     23  C   UNL     1      -2.091  -1.233  -2.263  0.00  0.00    +0.178 C 
BRANCH  23  25
ATOM     24  C   UNL     1      -2.236  -3.540  -2.897  0.00  0.00    +0.194 C 
ATOM     25  O   UNL     1      -2.439  -2.563  -1.874  0.00  0.00    -0.381 OA
ENDBRANCH  23  25
ENDBRANCH  22  23
ENDBRANCH  19  22
BRANCH  20  26
ATOM     26  C   UNL     1      -3.219  -2.020   0.963  0.00  0.00    +0.241 C 
BRANCH  26  27
ATOM     27  N   UNL     1      -3.429  -2.829   2.166  0.00  0.00    -0.235 N 
ATOM     28  C   UNL     1      -3.128  -4.161   2.324  0.00  0.00    +0.090 A 
ATOM     29  C   UNL     1      -2.562  -5.128   1.500  0.00  0.00    +0.029 A 
ATOM     30  C   UNL     1      -2.382  -6.399   1.970  0.00  0.00    +0.002 A 
ATOM     31  C   UNL     1      -2.755  -6.734   3.265  0.00  0.00    +0.002 A 
ATOM     32  C   UNL     1      -3.307  -5.802   4.095  0.00  0.00    +0.032 A 
ATOM     33  C   UNL     1      -3.501  -4.491   3.639  0.00  0.00    +0.113 A 
ATOM     34  N   UNL     1      -4.009  -3.381   4.211  0.00  0.00    -0.129 NA
ATOM     35  N   UNL     1      -3.981  -2.398   3.382  0.00  0.00    -0.064 NA
ENDBRANCH  26  27
ENDBRANCH  20  26
ENDBRANCH   1  19
TORSDOF 10
