REMARK  Name = ZINC58315653
REMARK  9 active torsions:
REMARK  status: ('A' for Active; 'I' for Inactive)
REMARK    1  A    between atoms: C_1  and  C_2
REMARK    2  A    between atoms: N_5  and  C_11
REMARK    3  A    between atoms: C_7  and  C_10
REMARK    4  A    between atoms: C_14  and  N_18
REMARK    5  A    between atoms: N_21  and  C_22
REMARK    6  A    between atoms: N_21  and  C_23
REMARK    7  A    between atoms: C_23  and  C_24
REMARK    8  A    between atoms: N_28  and  C_29
REMARK    9  A    between atoms: C_29  and  C_30
REMARK                            x       y       z     vdW  Elec       q    Type
REMARK                         _______ _______ _______ _____ _____    ______ ____
ROOT
ATOM      1  N   UNL     1      -4.407  -5.788  -3.105  0.00  0.00    -0.269 N 
ATOM      2  C   UNL     1      -5.399  -6.561  -2.621  0.00  0.00    +0.307 C 
ATOM      3  O   UNL     1      -5.737  -6.460  -1.458  0.00  0.00    -0.252 OA
ATOM      4  N   UNL     1      -6.017  -7.447  -3.427  0.00  0.00    -0.281 N 
ATOM      5  C   UNL     1      -5.610  -7.570  -4.829  0.00  0.00    +0.134 C 
ATOM      6  H   UNL     1      -4.182  -5.822  -4.048  0.00  0.00    +0.156 HD
ENDROOT
BRANCH   1  10
ATOM      7  C   UNL     1      -2.304  -3.247  -0.549  0.00  0.00    +0.066 A 
ATOM      8  C   UNL     1      -1.649  -3.873  -1.600  0.00  0.00    +0.028 A 
ATOM      9  C   UNL     1      -2.345  -4.715  -2.446  0.00  0.00    +0.025 A 
ATOM     10  C   UNL     1      -3.701  -4.934  -2.246  0.00  0.00    +0.038 A 
ATOM     11  C   UNL     1      -4.359  -4.309  -1.195  0.00  0.00    +0.063 A 
ATOM     12  C   UNL     1      -3.661  -3.472  -0.344  0.00  0.00    +0.146 A 
ATOM     13  F   UNL     1      -4.298  -2.868   0.682  0.00  0.00    -0.203 F 
BRANCH   7  17
ATOM     14  C   UNL     1       0.110   0.969   0.012  0.00  0.00    +0.039 C 
ATOM     15  C   UNL     1      -0.013  -0.553   0.111  0.00  0.00    +0.133 C 
ATOM     16  C   UNL     1      -1.490  -0.954   0.025  0.00  0.00    +0.136 C 
ATOM     17  N   UNL     1      -1.597  -2.394   0.308  0.00  0.00    -0.323 N 
ATOM     18  C   UNL     1      -0.941  -2.911   1.520  0.00  0.00    +0.136 C 
ATOM     19  C   UNL     1       0.509  -2.415   1.533  0.00  0.00    +0.133 C 
ATOM     20  O   UNL     1       0.524  -0.996   1.359  0.00  0.00    -0.371 OA
ATOM     21  C   UNL     1       1.286  -3.077   0.393  0.00  0.00    +0.039 C 
ENDBRANCH   7  17
ENDBRANCH   1  10
BRANCH   4  22
ATOM     22  C   UNL     1      -7.095  -8.288  -2.901  0.00  0.00    +0.183 C 
BRANCH  22  23
ATOM     23  C   UNL     1      -8.398  -7.533  -2.965  0.00  0.00    +0.127 A 
ATOM     24  N   UNL     1      -8.821  -6.671  -2.082  0.00  0.00    -0.239 NA
ATOM     25  C   UNL     1     -10.017  -6.197  -2.464  0.00  0.00    +0.130 A 
ATOM     26  C   UNL     1     -10.347  -6.789  -3.628  0.00  0.00    +0.107 A 
ATOM     27  N   UNL     1      -9.318  -7.633  -3.949  0.00  0.00    -0.324 N 
BRANCH  27  28
ATOM     28  C   UNL     1      -9.232  -8.486  -5.137  0.00  0.00    +0.236 C 
BRANCH  28  29
ATOM     29  C   UNL     1      -9.775  -9.877  -4.805  0.00  0.00    +0.407 C 
ATOM     30  F   UNL     1     -11.110  -9.773  -4.402  0.00  0.00    -0.169 F 
ATOM     31  F   UNL     1      -9.693 -10.693  -5.939  0.00  0.00    -0.169 F 
ATOM     32  F   UNL     1      -9.018 -10.439  -3.771  0.00  0.00    -0.169 F 
ENDBRANCH  28  29
ENDBRANCH  27  28
ENDBRANCH  22  23
ENDBRANCH   4  22
TORSDOF 6
