REMARK  Name = ZINC23951919
REMARK  5 active torsions:
REMARK  status: ('A' for Active; 'I' for Inactive)
REMARK    1  A    between atoms: C_1  and  C_2
REMARK    2  A    between atoms: C_7  and  C_8
REMARK    3  A    between atoms: N_10  and  C_11
REMARK    4  A    between atoms: C_11  and  C_13
REMARK    5  A    between atoms: C_11  and  C_14
REMARK                            x       y       z     vdW  Elec       q    Type
REMARK                         _______ _______ _______ _____ _____    ______ ____
ROOT
ATOM      1  C   UNL     1       0.032  -0.391   2.496  0.00  0.00    +0.261 C 
ATOM      2  O   UNL     1       0.019   0.795   2.765  0.00  0.00    -0.269 OA
ATOM      3  N   UNL     1       0.055  -1.306   3.486  0.00  0.00    -0.301 N 
ATOM      4  H   UNL     1       0.065  -2.252   3.271  0.00  0.00    +0.150 HD
ENDROOT
BRANCH   1  11
ATOM      5  C   UNL     1      -0.018   1.503   0.010  0.00  0.00    +0.047 C 
ATOM      6  C   UNL     1       0.002  -0.004   0.002  0.00  0.00    -0.010 A 
ATOM      7  C   UNL     1       0.008  -0.834  -1.125  0.00  0.00    +0.042 A 
ATOM      8  C   UNL     1       0.026  -2.155  -0.678  0.00  0.00    +0.027 A 
ATOM      9  N   UNL     1       0.034  -2.137   0.655  0.00  0.00    -0.354 N 
ATOM     10  H   UNL     1       0.048  -2.920   1.227  0.00  0.00    +0.166 HD
ATOM     11  C   UNL     1       0.024  -0.827   1.094  0.00  0.00    +0.106 A 
ATOM     12  C   UNL     1       0.031  -3.337  -1.615  0.00  0.00    +0.054 C 
ATOM     13  C   UNL     1      -0.488  -2.895  -2.987  0.00  0.00    +0.014 C 
ATOM     14  C   UNL     1       0.287  -1.674  -3.491  0.00  0.00    +0.080 C 
ATOM     15  C   UNL     1       0.002  -0.505  -2.559  0.00  0.00    +0.165 C 
ATOM     16  O   UNL     1      -0.215   0.616  -2.969  0.00  0.00    -0.292 OA
ENDBRANCH   1  11
BRANCH   3  17
ATOM     17  C   UNL     1       0.063  -0.872   4.885  0.00  0.00    +0.136 C 
ATOM     18  C   UNL     1      -1.373  -0.620   5.349  0.00  0.00    +0.036 C 
BRANCH  17  19
ATOM     19  C   UNL     1       0.686  -1.944   5.740  0.00  0.00    +0.126 A 
ATOM     20  C   UNL     1       1.517  -1.720   6.768  0.00  0.00    +0.055 A 
ATOM     21  C   UNL     1       1.871  -3.040   7.303  0.00  0.00    +0.020 A 
ATOM     22  C   UNL     1       2.680  -3.483   8.348  0.00  0.00    +0.011 A 
ATOM     23  C   UNL     1       2.801  -4.823   8.591  0.00  0.00    +0.001 A 
ATOM     24  C   UNL     1       2.125  -5.743   7.803  0.00  0.00    +0.004 A 
ATOM     25  C   UNL     1       1.320  -5.324   6.765  0.00  0.00    +0.047 A 
ATOM     26  C   UNL     1       1.183  -3.967   6.502  0.00  0.00    +0.135 A 
ATOM     27  O   UNL     1       0.485  -3.265   5.587  0.00  0.00    -0.458 OA
ENDBRANCH  17  19
ENDBRANCH   3  17
TORSDOF 3
