REMARK  Name = ZINC63187732
REMARK  9 active torsions:
REMARK  status: ('A' for Active; 'I' for Inactive)
REMARK    1  A    between atoms: C_1  and  C_2
REMARK    2  A    between atoms: C_5  and  C_11
REMARK    3  A    between atoms: C_7  and  N_8
REMARK    4  A    between atoms: N_13  and  C_14
REMARK    5  A    between atoms: C_14  and  C_15
REMARK    6  A    between atoms: N_17  and  C_18
REMARK    7  A    between atoms: C_18  and  C_19
REMARK    8  A    between atoms: C_21  and  C_28
REMARK    9  A    between atoms: C_23  and  C_27
REMARK                            x       y       z     vdW  Elec       q    Type
REMARK                         _______ _______ _______ _____ _____    ______ ____
ROOT
ATOM      1  C   UNL     1       0.753  -6.301  -1.313  0.00  0.00    +0.200 C 
ENDROOT
BRANCH   1   4
ATOM      2  C   UNL     1       0.572  -4.196  -0.099  0.00  0.00    +0.245 C 
ATOM      3  O   UNL     1       0.896  -4.786   0.913  0.00  0.00    -0.270 OA
ATOM      4  N   UNL     1       0.471  -4.864  -1.265  0.00  0.00    -0.303 N 
ATOM      5  H   UNL     1       0.212  -4.394  -2.073  0.00  0.00    +0.150 HD
BRANCH   2  10
ATOM      6  C   UNL     1      -0.538   1.447   0.089  0.00  0.00    +0.046 C 
ATOM      7  C   UNL     1      -0.247  -0.031   0.040  0.00  0.00    -0.020 A 
ATOM      8  C   UNL     1      -0.350  -0.713  -1.160  0.00  0.00    +0.006 A 
ATOM      9  C   UNL     1      -0.086  -2.066  -1.211  0.00  0.00    +0.013 A 
ATOM     10  C   UNL     1       0.287  -2.746  -0.051  0.00  0.00    +0.039 A 
ATOM     11  C   UNL     1       0.390  -2.052   1.155  0.00  0.00    +0.046 A 
ATOM     12  C   UNL     1       0.127  -0.698   1.192  0.00  0.00    +0.130 A 
BRANCH  12  13
ATOM     13  N   UNL     1       0.241   0.042   2.469  0.00  0.00    +0.057 N 
ATOM     14  O   UNL     1       0.675   1.170   2.478  0.00  0.00    -0.126 OA
ATOM     15  O   UNL     1      -0.100  -0.482   3.504  0.00  0.00    -0.126 OA
ENDBRANCH  12  13
ENDBRANCH   2  10
ENDBRANCH   1   4
BRANCH   1  16
ATOM     16  C   UNL     1       0.570  -6.803  -2.722  0.00  0.00    +0.230 C 
ATOM     17  O   UNL     1       0.237  -6.035  -3.600  0.00  0.00    -0.274 OA
ATOM     18  N   UNL     1       0.776  -8.104  -3.007  0.00  0.00    -0.313 N 
ATOM     19  H   UNL     1       1.043  -8.717  -2.304  0.00  0.00    +0.149 HD
BRANCH  18  20
ATOM     20  C   UNL     1       0.598  -8.591  -4.377  0.00  0.00    +0.121 C 
BRANCH  20  21
ATOM     21  C   UNL     1       0.892 -10.092  -4.426  0.00  0.00    +0.120 C 
ATOM     22  C   UNL     1       0.497 -10.602  -5.799  0.00  0.00    -0.058 C 
ATOM     23  C   UNL     1       1.451 -11.194  -6.534  0.00  0.00    +0.020 C 
ATOM     24  C   UNL     1       2.764 -11.333  -6.045  0.00  0.00    +0.031 C 
ATOM     25  N   UNL     1       3.158 -10.914  -4.874  0.00  0.00    -0.185 NA
ATOM     26  C   UNL     1       2.336 -10.300  -4.014  0.00  0.00    +0.245 C 
ATOM     27  O   UNL     1       2.736  -9.922  -2.932  0.00  0.00    -0.273 OA
ATOM     28  C   UNL     1       3.778 -12.011  -6.931  0.00  0.00    +0.063 C 
ATOM     29  C   UNL     1      -0.910 -10.451  -6.316  0.00  0.00    +0.040 C 
ENDBRANCH  20  21
ENDBRANCH  18  20
ENDBRANCH   1  16
TORSDOF 6
