REMARK  Name = ZINC59886220
REMARK  3 active torsions:
REMARK  status: ('A' for Active; 'I' for Inactive)
REMARK    1  A    between atoms: C_6  and  C_7
REMARK    2  A    between atoms: C_10  and  S_13
REMARK    3  A    between atoms: S_13  and  C_14
REMARK                            x       y       z     vdW  Elec       q    Type
REMARK                         _______ _______ _______ _____ _____    ______ ____
ROOT
ATOM      1  C   UNL     1      -1.260  -0.783   0.010  0.00  0.00    +0.182 A 
ATOM      2  N   UNL     1      -1.351  -2.121   0.004  0.00  0.00    -0.201 NA
ATOM      3  H   UNL     1      -4.337  -1.306   0.040  0.00  0.00    +0.191 HD
ATOM      4  C   UNL     1      -2.616  -2.479   0.015  0.00  0.00    +0.185 A 
ATOM      5  N   UNL     1      -3.369  -1.356   0.029  0.00  0.00    -0.253 N 
ATOM      6  N   UNL     1      -2.472  -0.275   0.031  0.00  0.00    -0.152 NA
ENDROOT
BRANCH   1  12
ATOM      7  C   UNL     1      -0.017   1.393   0.010  0.00  0.00    +0.031 A 
ATOM      8  C   UNL     1       1.180   2.079   0.002  0.00  0.00    +0.111 A 
ATOM      9  N   UNL     1       2.331   1.433  -0.013  0.00  0.00    -0.263 NA
ATOM     10  C   UNL     1       2.392   0.115  -0.021  0.00  0.00    +0.111 A 
ATOM     11  C   UNL     1       1.243  -0.647  -0.013  0.00  0.00    +0.031 A 
ATOM     12  C   UNL     1       0.002  -0.004   0.002  0.00  0.00    +0.024 A 
ENDBRANCH   1  12
BRANCH   4  13
ATOM     13  S   UNL     1      -3.225  -4.132   0.012  0.00  0.00    -0.083 S 
BRANCH  13  14
ATOM     14  C   UNL     1      -1.725  -5.152  -0.009  0.00  0.00    +0.054 C 
ATOM     15  C   UNL     1      -0.974  -4.927  -1.323  0.00  0.00    +0.014 C 
ATOM     16  C   UNL     1       0.292  -5.787  -1.341  0.00  0.00    +0.001 C 
ATOM     17  C   UNL     1      -0.093  -7.263  -1.220  0.00  0.00    +0.000 C 
ATOM     18  C   UNL     1      -0.844  -7.488   0.094  0.00  0.00    +0.001 C 
ATOM     19  C   UNL     1      -2.109  -6.628   0.112  0.00  0.00    +0.014 C 
ENDBRANCH  13  14
ENDBRANCH   4  13
TORSDOF 3
