REMARK  Name = ZINC62495763
REMARK  4 active torsions:
REMARK  status: ('A' for Active; 'I' for Inactive)
REMARK    1  A    between atoms: C_1  and  C_2
REMARK    2  A    between atoms: C_9  and  C_13
REMARK    3  A    between atoms: C_13  and  C_14
REMARK    4  A    between atoms: C_17  and  N_20
REMARK                            x       y       z     vdW  Elec       q    Type
REMARK                         _______ _______ _______ _____ _____    ______ ____
ROOT
ATOM      1  C   UNL     1       0.181  -4.773   3.709  0.00  0.00    +0.081 C 
ENDROOT
BRANCH   1  10
ATOM      2  C   UNL     1      -0.103   1.527   0.057  0.00  0.00    +0.044 C 
ATOM      3  C   UNL     1      -0.068   0.020   0.038  0.00  0.00    -0.047 A 
ATOM      4  C   UNL     1      -0.065  -0.652  -1.170  0.00  0.00    +0.005 A 
ATOM      5  C   UNL     1      -0.030  -2.035  -1.193  0.00  0.00    +0.027 A 
ATOM      6  C   UNL     1       0.000  -2.744  -0.003  0.00  0.00    +0.070 A 
ATOM      7  C   UNL     1      -0.006  -2.069   1.215  0.00  0.00    +0.142 A 
ATOM      8  C   UNL     1      -0.033  -0.682   1.228  0.00  0.00    +0.051 A 
ATOM      9  O   UNL     1       0.015  -2.752   2.390  0.00  0.00    -0.485 OA
ATOM     10  C   UNL     1       0.481  -4.104   2.366  0.00  0.00    +0.195 C 
ATOM     11  C   UNL     1      -0.242  -4.856   1.240  0.00  0.00    +0.146 C 
ATOM     12  N   UNL     1       0.039  -4.147  -0.021  0.00  0.00    -0.337 N 
ATOM     13  H   UNL     1       0.243  -4.633  -0.835  0.00  0.00    +0.146 HD
ENDBRANCH   1  10
BRANCH   1  14
ATOM     14  C   UNL     1       0.977  -4.098   4.795  0.00  0.00    -0.044 A 
ATOM     15  C   UNL     1       2.245  -4.554   5.107  0.00  0.00    +0.005 A 
ATOM     16  C   UNL     1       2.978  -3.937   6.102  0.00  0.00    +0.023 A 
ATOM     17  C   UNL     1       2.439  -2.858   6.791  0.00  0.00    +0.030 A 
ATOM     18  C   UNL     1       1.165  -2.402   6.476  0.00  0.00    +0.023 A 
ATOM     19  C   UNL     1       0.441  -3.019   5.475  0.00  0.00    +0.005 A 
BRANCH  17  20
ATOM     20  N   UNL     1       3.177  -2.232   7.798  0.00  0.00    -0.330 N 
ATOM     21  C   UNL     1       2.671  -1.017   8.452  0.00  0.00    +0.105 C 
ATOM     22  C   UNL     1       2.666  -1.238   9.968  0.00  0.00    +0.019 C 
ATOM     23  C   UNL     1       4.065  -1.661  10.422  0.00  0.00    +0.003 C 
ATOM     24  C   UNL     1       4.448  -2.978   9.743  0.00  0.00    +0.019 C 
ATOM     25  C   UNL     1       4.471  -2.780   8.229  0.00  0.00    +0.105 C 
ENDBRANCH  17  20
ENDBRANCH   1  14
TORSDOF 3
