REMARK  Name = ZINC48795243
REMARK  5 active torsions:
REMARK  status: ('A' for Active; 'I' for Inactive)
REMARK    1  A    between atoms: C_1  and  C_2
REMARK    2  A    between atoms: C_6  and  N_11
REMARK    3  A    between atoms: N_11  and  C_12
REMARK    4  A    between atoms: C_12  and  C_13
REMARK    5  A    between atoms: C_18  and  O_19
REMARK                            x       y       z     vdW  Elec       q    Type
REMARK                         _______ _______ _______ _____ _____    ______ ____
ROOT
ATOM      1  N   UNL     1      -1.320  -5.686  -0.021  0.00  0.00    -0.340 N 
ATOM      2  H   UNL     1      -2.290  -5.699  -0.017  0.00  0.00    +0.146 HD
ENDROOT
BRANCH   1   8
ATOM      3  C   UNL     1      -0.018   1.503   0.010  0.00  0.00    +0.109 C 
ATOM      4  C   UNL     1       0.002  -0.004   0.002  0.00  0.00    +0.194 A 
ATOM      5  N   UNL     1      -1.054  -0.761   0.003  0.00  0.00    -0.213 NA
ATOM      6  C   UNL     1      -0.660  -2.063  -0.006  0.00  0.00    +0.111 A 
ATOM      7  C   UNL     1      -1.347  -3.279  -0.009  0.00  0.00    +0.054 A 
ATOM      8  C   UNL     1      -0.637  -4.466  -0.018  0.00  0.00    +0.030 A 
ATOM      9  C   UNL     1       0.756  -4.451  -0.024  0.00  0.00    +0.026 A 
ATOM     10  C   UNL     1       1.441  -3.255  -0.021  0.00  0.00    +0.050 A 
ATOM     11  C   UNL     1       0.743  -2.056  -0.013  0.00  0.00    +0.155 A 
ATOM     12  O   UNL     1       1.114  -0.756  -0.013  0.00  0.00    -0.440 OA
ENDBRANCH   1   8
BRANCH   1  13
ATOM     13  C   UNL     1      -0.571  -6.945  -0.031  0.00  0.00    +0.140 C 
BRANCH  13  14
ATOM     14  C   UNL     1      -1.536  -8.103  -0.033  0.00  0.00    +0.012 A 
ATOM     15  C   UNL     1      -1.817  -8.770   1.145  0.00  0.00    +0.009 A 
ATOM     16  C   UNL     1      -2.702  -9.832   1.145  0.00  0.00    +0.002 A 
ATOM     17  C   UNL     1      -3.308 -10.231  -0.033  0.00  0.00    +0.019 A 
ATOM     18  C   UNL     1      -3.030  -9.567  -1.213  0.00  0.00    +0.060 A 
ATOM     19  C   UNL     1      -2.146  -8.497  -1.214  0.00  0.00    +0.135 A 
ATOM     20 BR   UNL     1      -3.858 -10.113  -2.823  0.00  0.00    -0.047 Br
BRANCH  19  21
ATOM     21  O   UNL     1      -1.874  -7.839  -2.372  0.00  0.00    -0.505 OA
ATOM     22  H   UNL     1      -1.128  -8.205  -2.867  0.00  0.00    +0.292 HD
ENDBRANCH  19  21
ENDBRANCH  13  14
ENDBRANCH   1  13
TORSDOF 4
