REMARK  Name = ZINC03978279
REMARK  6 active torsions:
REMARK  status: ('A' for Active; 'I' for Inactive)
REMARK    1  A    between atoms: C_1  and  C_2
REMARK    2  A    between atoms: C_7  and  C_37
REMARK    3  A    between atoms: C_13  and  C_26
REMARK    4  A    between atoms: C_19  and  C_21
REMARK    5  A    between atoms: C_27  and  C_35
REMARK    6  A    between atoms: C_27  and  C_36
REMARK                            x       y       z     vdW  Elec       q    Type
REMARK                         _______ _______ _______ _____ _____    ______ ____
ROOT
ATOM      1  C   UNL     1      -0.086   1.379  -0.153  0.00  0.00    +0.020 C 
ATOM      2  C   UNL     1      -0.014  -0.151  -0.223  0.00  0.00    +0.032 C 
ATOM      3  C   UNL     1       0.774  -0.559  -1.466  0.00  0.00    +0.015 C 
ATOM      4  C   UNL     1       2.222  -0.103  -1.311  0.00  0.00    +0.006 C 
ATOM      5  C   UNL     1       2.892  -0.885  -0.181  0.00  0.00    +0.015 C 
ATOM      6  C   UNL     1       4.378  -0.508  -0.174  0.00  0.00    +0.005 C 
ATOM      7  C   UNL     1       4.627   0.833   0.476  0.00  0.00    +0.018 C 
ATOM      8  C   UNL     1       4.106   0.833   1.920  0.00  0.00    +0.080 C 
ATOM      9  C   UNL     1       2.618   0.551   1.843  0.00  0.00    +0.144 C 
ATOM     10  O   UNL     1       1.823   1.311   2.336  0.00  0.00    -0.296 OA
ATOM     11  C   UNL     1       2.174  -0.711   1.142  0.00  0.00    +0.052 C 
ATOM     12  C   UNL     1       0.664  -0.663   1.015  0.00  0.00    -0.040 C 
ATOM     13  C   UNL     1      -0.072  -1.097   2.044  0.00  0.00    +0.092 C 
ATOM     14  C   UNL     1      -1.544  -1.146   1.945  0.00  0.00    +0.333 C 
ATOM     15  O   UNL     1      -2.206  -1.743   2.776  0.00  0.00    -0.246 OA
ATOM     16  O   UNL     1      -2.130  -0.514   0.902  0.00  0.00    -0.453 OA
ATOM     17  C   UNL     1      -1.448  -0.664  -0.345  0.00  0.00    +0.220 C 
ATOM     18  C   UNL     1       2.522  -1.916   2.048  0.00  0.00    +0.024 C 
ATOM     19  C   UNL     1       6.049   1.362   0.427  0.00  0.00    +0.030 C 
ATOM     20  C   UNL     1       6.845   0.833  -0.739  0.00  0.00    +0.170 C 
ATOM     21  O   UNL     1       8.061   0.873  -0.712  0.00  0.00    -0.294 OA
ATOM     22  C   UNL     1       6.140   0.254  -1.942  0.00  0.00    +0.214 C 
ATOM     23  C   UNL     1       4.814  -0.451  -1.651  0.00  0.00    +0.162 C 
ATOM     24  O   UNL     1       4.872   0.819  -2.288  0.00  0.00    -0.360 OA
ATOM     25  C   UNL     1       5.991   2.902   0.290  0.00  0.00    +0.019 C 
ATOM     26  C   UNL     1       6.813   1.050   1.723  0.00  0.00    +0.019 C 
ATOM     27  C   UNL     1       5.204  -1.612   0.477  0.00  0.00    +0.014 C 
ENDROOT
BRANCH  17  28
ATOM     28  C   UNL     1      -2.175   0.144  -1.388  0.00  0.00    +0.031 A 
ATOM     29  C   UNL     1      -2.424  -0.238  -2.727  0.00  0.00    +0.048 A 
ATOM     30  C   UNL     1      -3.099   0.774  -3.301  0.00  0.00    +0.195 A 
ATOM     31  O   UNL     1      -3.271   1.743  -2.387  0.00  0.00    -0.471 OA
ATOM     32  C   UNL     1      -2.717   1.364  -1.224  0.00  0.00    +0.202 A 
ENDBRANCH  17  28
TORSDOF 1
