REMARK  Name = ZINC02248145
REMARK  7 active torsions:
REMARK  status: ('A' for Active; 'I' for Inactive)
REMARK    1  A    between atoms: C_9  and  C_25
REMARK    2  A    between atoms: C_10  and  N_24
REMARK    3  A    between atoms: N_11  and  N_14
REMARK    4  A    between atoms: C_15  and  C_16
REMARK    5  A    between atoms: C_21  and  O_22
REMARK    6  A    between atoms: N_27  and  C_28
REMARK    7  A    between atoms: C_28  and  C_29
REMARK                            x       y       z     vdW  Elec       q    Type
REMARK                         _______ _______ _______ _____ _____    ______ ____
ROOT
ATOM      1  C   UNL     1      -0.016   1.356   0.009  0.00  0.00    +0.002 A 
ATOM      2  C   UNL     1       1.170   2.088   0.002  0.00  0.00    +0.002 A 
ATOM      3  C   UNL     1       2.378   1.463  -0.013  0.00  0.00    +0.030 A 
ATOM      4  C   UNL     1       2.439   0.057  -0.021  0.00  0.00    +0.092 A 
ATOM      5  C   UNL     1       1.233  -0.687  -0.013  0.00  0.00    +0.090 A 
ATOM      6  C   UNL     1       0.002  -0.004   0.002  0.00  0.00    +0.030 A 
ATOM      7  N   UNL     1       1.263  -2.025  -0.021  0.00  0.00    -0.241 NA
ATOM      8  C   UNL     1       2.425  -2.649  -0.036  0.00  0.00    +0.124 A 
ATOM      9  C   UNL     1       2.836  -4.062  -0.048  0.00  0.00    +0.105 A 
ATOM     10  C   UNL     1       4.226  -4.070  -0.062  0.00  0.00    +0.134 A 
ATOM     11  N   UNL     1       4.709  -2.795  -0.059  0.00  0.00    -0.198 N 
ATOM     12  C   UNL     1       3.673  -1.881  -0.044  0.00  0.00    +0.183 A 
ATOM     13  N   UNL     1       3.624  -0.566  -0.037  0.00  0.00    -0.224 NA
ENDROOT
BRANCH   9  14
ATOM     14  C   UNL     1       1.981  -5.194  -0.046  0.00  0.00    +0.250 C 
ATOM     15  O   UNL     1       1.603  -5.675  -1.099  0.00  0.00    -0.270 OA
ATOM     16  N   UNL     1       1.587  -5.739   1.122  0.00  0.00    -0.309 N 
ATOM     17  H   UNL     1       1.888  -5.356   1.961  0.00  0.00    +0.149 HD
BRANCH  16  18
ATOM     18  C   UNL     1       0.704  -6.908   1.125  0.00  0.00    +0.136 C 
BRANCH  18  19
ATOM     19  C   UNL     1       0.412  -7.323   2.568  0.00  0.00    +0.135 C 
ATOM     20  C   UNL     1      -0.418  -8.625   2.580  0.00  0.00    +0.035 C 
ATOM     21  C   UNL     1      -1.414  -8.370   3.744  0.00  0.00    +0.031 C 
ATOM     22  C   UNL     1      -1.639  -6.843   3.610  0.00  0.00    +0.160 C 
ATOM     23  O   UNL     1      -0.362  -6.309   3.218  0.00  0.00    -0.375 OA
ENDBRANCH  18  19
ENDBRANCH  16  18
ENDBRANCH   9  14
BRANCH  10  24
ATOM     24  N   UNL     1       5.003  -5.200  -0.075  0.00  0.00    -0.342 N 
ATOM     25  H   UNL     1       4.585  -6.075  -0.076  0.00  0.00    +0.144 HD
ATOM     26  H   UNL     1       5.970  -5.124  -0.085  0.00  0.00    +0.144 HD
ENDBRANCH  10  24
BRANCH  11  27
ATOM     27  N   UNL     1       6.069  -2.458  -0.071  0.00  0.00    -0.171 NA
ATOM     28  C   UNL     1       6.687  -2.294  -1.200  0.00  0.00    +0.145 C 
BRANCH  28  29
ATOM     29  C   UNL     1       8.118  -1.940  -1.212  0.00  0.00    +0.037 A 
ATOM     30  C   UNL     1       8.786  -1.758  -2.425  0.00  0.00    +0.028 A 
ATOM     31  C   UNL     1      10.125  -1.426  -2.429  0.00  0.00    +0.019 A 
ATOM     32  C   UNL     1      10.810  -1.272  -1.235  0.00  0.00    +0.019 A 
ATOM     33  C   UNL     1      10.159  -1.450  -0.029  0.00  0.00    +0.047 A 
ATOM     34  C   UNL     1       8.813  -1.778  -0.006  0.00  0.00    +0.126 A 
ATOM     35 BR   UNL     1      11.029  -1.180  -4.072  0.00  0.00    -0.050 Br
BRANCH  34  36
ATOM     36  O   UNL     1       8.172  -1.947   1.179  0.00  0.00    -0.506 OA
ATOM     37  H   UNL     1       8.199  -2.853   1.515  0.00  0.00    +0.292 HD
ENDBRANCH  34  36
ENDBRANCH  28  29
ENDBRANCH  11  27
TORSDOF 7
