REMARK  Name = ZINC60374689
REMARK  11 active torsions:
REMARK  status: ('A' for Active; 'I' for Inactive)
REMARK    1  A    between atoms: C_1  and  C_2
REMARK    2  A    between atoms: C_2  and  C_3
REMARK    3  A    between atoms: C_2  and  C_4
REMARK    4  A    between atoms: C_2  and  C_5
REMARK    5  A    between atoms: C_8  and  C_11
REMARK    6  A    between atoms: C_14  and  S_22
REMARK    7  A    between atoms: N_15  and  C_16
REMARK    8  A    between atoms: S_22  and  C_23
REMARK    9  A    between atoms: C_23  and  C_24
REMARK   10  A    between atoms: C_24  and  C_25
REMARK   11  A    between atoms: C_25  and  C_26
REMARK                            x       y       z     vdW  Elec       q    Type
REMARK                         _______ _______ _______ _____ _____    ______ ____
ROOT
ATOM      1  C   UNL     1       2.692  -1.857  -4.736  0.00  0.00    +0.165 A 
ATOM      2  N   UNL     1       2.340  -2.876  -5.485  0.00  0.00    -0.128 NA
ATOM      3  N   UNL     1       3.170  -3.014  -6.456  0.00  0.00    -0.122 NA
ATOM      4  C   UNL     1       4.103  -2.091  -6.387  0.00  0.00    +0.192 A 
ATOM      5  N   UNL     1       3.829  -1.319  -5.294  0.00  0.00    -0.299 N 
ENDROOT
BRANCH   1   9
ATOM      6  C   UNL     1       0.687  -0.469  -1.258  0.00  0.00    -0.042 A 
ATOM      7  C   UNL     1       1.352   0.429  -2.074  0.00  0.00    +0.005 A 
ATOM      8  C   UNL     1       2.005  -0.015  -3.205  0.00  0.00    +0.012 A 
ATOM      9  C   UNL     1       1.995  -1.374  -3.525  0.00  0.00    +0.019 A 
ATOM     10  C   UNL     1       1.323  -2.274  -2.697  0.00  0.00    +0.012 A 
ATOM     11  C   UNL     1       0.678  -1.817  -1.566  0.00  0.00    +0.005 A 
BRANCH   6  13
ATOM     12  C   UNL     1       0.578  -0.645   1.213  0.00  0.00    +0.015 C 
ATOM     13  C   UNL     1      -0.025   0.024  -0.024  0.00  0.00    -0.013 C 
ATOM     14  C   UNL     1      -1.511  -0.325  -0.120  0.00  0.00    +0.015 C 
ATOM     15  C   UNL     1       0.137   1.541   0.086  0.00  0.00    +0.015 C 
ENDBRANCH   6  13
ENDBRANCH   1   9
BRANCH   5  16
ATOM     16  C   UNL     1       4.589  -0.163  -4.814  0.00  0.00    +0.091 C 
ATOM     17  C   UNL     1       4.503   0.967  -5.842  0.00  0.00    +0.025 C 
ATOM     18  C   UNL     1       5.297   2.175  -5.341  0.00  0.00    +0.002 C 
ATOM     19  C   UNL     1       6.761   1.776  -5.142  0.00  0.00    +0.000 C 
ATOM     20  C   UNL     1       6.846   0.647  -4.113  0.00  0.00    +0.002 C 
ATOM     21  C   UNL     1       6.053  -0.561  -4.615  0.00  0.00    +0.025 C 
ENDBRANCH   5  16
BRANCH   4  22
ATOM     22  S   UNL     1       5.452  -1.883  -7.501  0.00  0.00    -0.086 S 
BRANCH  22  23
ATOM     23  C   UNL     1       5.229  -3.214  -8.713  0.00  0.00    +0.078 C 
BRANCH  23  24
ATOM     24  C   UNL     1       6.349  -3.149  -9.754  0.00  0.00    +0.020 C 
BRANCH  24  25
ATOM     25  C   UNL     1       6.161  -4.271 -10.776  0.00  0.00    +0.097 C 
BRANCH  25  26
ATOM     26  C   UNL     1       7.264  -4.207 -11.801  0.00  0.00    +0.220 C 
ATOM     27  O   UNL     1       8.117  -3.349 -11.721  0.00  0.00    -0.275 OA
ATOM     28  N   UNL     1       7.303  -5.104 -12.806  0.00  0.00    -0.240 N 
ATOM     29  C   UNL     1       8.290  -5.047 -13.723  0.00  0.00    +0.303 C 
ATOM     30  O   UNL     1       9.144  -4.187 -13.643  0.00  0.00    -0.253 OA
ATOM     31  N   UNL     1       8.329  -5.944 -14.728  0.00  0.00    -0.313 N 
ATOM     32  H   UNL     1       6.621  -5.791 -12.870  0.00  0.00    +0.159 HD
ATOM     33  H   UNL     1       7.646  -6.631 -14.792  0.00  0.00    +0.146 HD
ATOM     34  H   UNL     1       9.039  -5.903 -15.387  0.00  0.00    +0.146 HD
ENDBRANCH  25  26
ENDBRANCH  24  25
ENDBRANCH  23  24
ENDBRANCH  22  23
ENDBRANCH   4  22
TORSDOF 8
