REMARK  Name = ZINC40361978
REMARK  8 active torsions:
REMARK  status: ('A' for Active; 'I' for Inactive)
REMARK    1  A    between atoms: C_1  and  C_2
REMARK    2  A    between atoms: C_2  and  C_3
REMARK    3  A    between atoms: C_3  and  C_4
REMARK    4  A    between atoms: C_3  and  C_5
REMARK    5  A    between atoms: C_3  and  N_7
REMARK    6  A    between atoms: N_10  and  C_11
REMARK    7  A    between atoms: C_11  and  C_12
REMARK    8  A    between atoms: C_11  and  C_13
REMARK                            x       y       z     vdW  Elec       q    Type
REMARK                         _______ _______ _______ _____ _____    ______ ____
ROOT
ATOM      1  N   UNL     1       0.762  -1.976   1.234  0.00  0.00    -0.281 N 
ATOM      2  C   UNL     1       1.364  -2.647   2.235  0.00  0.00    +0.301 C 
ATOM      3  O   UNL     1       1.891  -2.037   3.145  0.00  0.00    -0.253 OA
ATOM      4  N   UNL     1       1.383  -3.995   2.228  0.00  0.00    -0.297 N 
ATOM      5  H   UNL     1       0.342  -2.462   0.507  0.00  0.00    +0.152 HD
ATOM      6  H   UNL     1       0.962  -4.481   1.502  0.00  0.00    +0.150 HD
ENDROOT
BRANCH   4   7
ATOM      7  C   UNL     1       2.037  -4.724   3.316  0.00  0.00    +0.068 C 
ATOM      8  C   UNL     1       1.058  -4.890   4.480  0.00  0.00    +0.027 C 
ATOM      9  C   UNL     1       2.473  -6.103   2.816  0.00  0.00    +0.027 C 
ENDBRANCH   4   7
BRANCH   1  10
ATOM     10  C   UNL     1       0.742  -0.511   1.242  0.00  0.00    +0.119 C 
ATOM     11  C   UNL     1       0.026  -0.018   2.500  0.00  0.00    +0.048 C 
BRANCH  10  13
ATOM     12  C   UNL     1      -0.019   1.526   0.010  0.00  0.00    +0.007 C 
ATOM     13  C   UNL     1       0.002  -0.004   0.002  0.00  0.00    +0.037 C 
ENDBRANCH  10  13
BRANCH  10  14
ATOM     14  C   UNL     1       2.123  -0.001   1.231  0.00  0.00    +0.088 C 
ATOM     15  N   UNL     1       3.189   0.392   1.223  0.00  0.00    -0.194 NA
ENDBRANCH  10  14
ENDBRANCH   1  10
TORSDOF 4
