REMARK  Name = ZINC67214340
REMARK  9 active torsions:
REMARK  status: ('A' for Active; 'I' for Inactive)
REMARK    1  A    between atoms: C_1  and  C_2
REMARK    2  A    between atoms: N_5  and  C_11
REMARK    3  A    between atoms: C_7  and  C_10
REMARK    4  A    between atoms: C_14  and  C_18
REMARK    5  A    between atoms: C_18  and  N_19
REMARK    6  A    between atoms: N_19  and  C_20
REMARK    7  A    between atoms: C_20  and  C_21
REMARK    8  A    between atoms: N_23  and  C_30
REMARK    9  A    between atoms: N_26  and  C_29
REMARK                            x       y       z     vdW  Elec       q    Type
REMARK                         _______ _______ _______ _____ _____    ______ ____
ROOT
ATOM      1  C   UNL     1      -2.095  -2.849  -0.657  0.00  0.00    +0.066 A 
ATOM      2  C   UNL     1      -1.491  -3.338  -1.808  0.00  0.00    +0.026 A 
ATOM      3  C   UNL     1      -2.190  -4.182  -2.649  0.00  0.00    +0.004 A 
ATOM      4  C   UNL     1      -3.491  -4.540  -2.347  0.00  0.00    -0.062 A 
ATOM      5  C   UNL     1      -4.098  -4.055  -1.203  0.00  0.00    +0.042 A 
ATOM      6  C   UNL     1      -3.402  -3.215  -0.353  0.00  0.00    +0.144 A 
ATOM      7  F   UNL     1      -3.992  -2.746   0.768  0.00  0.00    -0.204 F 
ENDROOT
BRANCH   1  11
ATOM      8  C   UNL     1      -0.019   1.526   0.010  0.00  0.00    +0.039 C 
ATOM      9  C   UNL     1       0.002  -0.004   0.002  0.00  0.00    +0.133 C 
ATOM     10  C   UNL     1      -1.436  -0.536   0.015  0.00  0.00    +0.136 C 
ATOM     11  N   UNL     1      -1.389  -1.995   0.196  0.00  0.00    -0.323 N 
ATOM     12  C   UNL     1      -0.578  -2.530   1.302  0.00  0.00    +0.136 C 
ATOM     13  C   UNL     1       0.818  -1.901   1.226  0.00  0.00    +0.133 C 
ATOM     14  O   UNL     1       0.691  -0.479   1.161  0.00  0.00    -0.371 OA
ATOM     15  C   UNL     1       1.621  -2.288   2.469  0.00  0.00    +0.039 C 
ENDBRANCH   1  11
BRANCH   4  16
ATOM     16  C   UNL     1      -4.250  -5.460  -3.268  0.00  0.00    -0.046 C 
BRANCH  16  17
ATOM     17  N   UNL     1      -4.032  -6.854  -2.857  0.00  0.00    +0.385 N 
ATOM     18  H   UNL     1      -3.047  -7.067  -2.905  0.00  0.00    -0.085 HD
ATOM     19  H   UNL     1      -4.358  -6.980  -1.911  0.00  0.00    -0.085 HD
BRANCH  17  20
ATOM     20  C   UNL     1      -4.771  -7.750  -3.755  0.00  0.00    -0.039 C 
BRANCH  20  21
ATOM     21  C   UNL     1      -4.547  -9.180  -3.334  0.00  0.00    +0.016 A 
ATOM     22  C   UNL     1      -5.430  -9.801  -2.523  0.00  0.00    +0.097 A 
ATOM     23  N   UNL     1      -5.211 -11.099  -2.150  0.00  0.00    -0.303 N 
ATOM     24  C   UNL     1      -4.124 -11.762  -2.583  0.00  0.00    +0.331 A 
ATOM     25  O   UNL     1      -3.948 -12.915  -2.239  0.00  0.00    -0.246 OA
ATOM     26  N   UNL     1      -3.227 -11.168  -3.392  0.00  0.00    -0.264 N 
ATOM     27  C   UNL     1      -3.410  -9.891  -3.787  0.00  0.00    +0.258 A 
ATOM     28  O   UNL     1      -2.602  -9.354  -4.523  0.00  0.00    -0.267 OA
ATOM     29  C   UNL     1      -2.051 -11.912  -3.850  0.00  0.00    +0.157 C 
ATOM     30  C   UNL     1      -6.170 -11.773  -1.271  0.00  0.00    +0.153 C 
ENDBRANCH  20  21
ENDBRANCH  17  20
ENDBRANCH  16  17
ENDBRANCH   4  16
TORSDOF 5
