REMARK  Name = ZINC63961793
REMARK  3 active torsions:
REMARK  status: ('A' for Active; 'I' for Inactive)
REMARK    1  A    between atoms: C_7  and  C_10
REMARK    2  A    between atoms: C_10  and  C_11
REMARK    3  A    between atoms: N_13  and  C_14
REMARK                            x       y       z     vdW  Elec       q    Type
REMARK                         _______ _______ _______ _____ _____    ______ ____
ROOT
ATOM      1  C   UNL     1       0.460  -3.646  -1.440  0.00  0.00    +0.219 C 
ATOM      2  O   UNL     1       1.006  -3.075  -2.360  0.00  0.00    -0.275 OA
ATOM      3  N   UNL     1      -0.353  -4.693  -1.684  0.00  0.00    -0.291 N 
ATOM      4  H   UNL     1      -0.790  -5.150  -0.948  0.00  0.00    +0.151 HD
ENDROOT
BRANCH   3   5
ATOM      5  C   UNL     1      -0.577  -5.141  -3.061  0.00  0.00    +0.202 C 
ATOM      6  N   UNL     1      -1.723  -6.093  -3.126  0.00  0.00    -0.286 NA
ATOM      7  C   UNL     1      -1.350  -7.446  -3.439  0.00  0.00    +0.069 C 
ATOM      8  C   UNL     1      -2.399  -8.434  -3.880  0.00  0.00    +0.020 C 
ATOM      9  C   UNL     1      -1.789  -9.842  -3.783  0.00  0.00    +0.002 C 
ATOM     10  C   UNL     1      -0.510  -9.941  -4.610  0.00  0.00    +0.001 C 
ATOM     11  C   UNL     1       0.511  -8.873  -4.194  0.00  0.00    +0.016 C 
ATOM     12  C   UNL     1      -0.147  -7.508  -4.422  0.00  0.00    +0.066 C 
ATOM     13  S   UNL     1       0.848  -6.154  -3.658  0.00  0.00    -0.118 S 
ATOM     14  H   UNL     1      -2.272  -6.056  -2.280  0.00  0.00    +0.125 HD
ENDBRANCH   3   5
BRANCH   1  15
ATOM     15  C   UNL     1       0.691  -3.186  -0.024  0.00  0.00    +0.129 C 
BRANCH  15  22
ATOM     16  C   UNL     1      -0.016   1.348   0.009  0.00  0.00    +0.001 A 
ATOM     17  C   UNL     1       1.166   2.101   0.002  0.00  0.00    +0.002 A 
ATOM     18  C   UNL     1       2.391   1.535  -0.013  0.00  0.00    +0.026 A 
ATOM     19  C   UNL     1       2.529   0.120  -0.022  0.00  0.00    +0.043 A 
ATOM     20  N   UNL     1       3.587  -0.654  -0.037  0.00  0.00    -0.380 N 
ATOM     21  C   UNL     1       3.143  -2.053  -0.041  0.00  0.00    +0.145 C 
ATOM     22  C   UNL     1       1.631  -2.008  -0.025  0.00  0.00    -0.033 C 
ATOM     23  C   UNL     1       1.295  -0.698  -0.014  0.00  0.00    -0.001 A 
ATOM     24  C   UNL     1       0.002  -0.004   0.002  0.00  0.00    +0.010 A 
ATOM     25  H   UNL     1       4.509  -0.353  -0.045  0.00  0.00    +0.160 HD
ENDBRANCH  15  22
ENDBRANCH   1  15
TORSDOF 3
