REMARK  Name = ZINC05760748
REMARK  8 active torsions:
REMARK  status: ('A' for Active; 'I' for Inactive)
REMARK    1  A    between atoms: C_1  and  N_2
REMARK    2  A    between atoms: C_6  and  N_11
REMARK    3  A    between atoms: C_8  and  S_9
REMARK    4  A    between atoms: S_9  and  C_10
REMARK    5  A    between atoms: N_11  and  C_12
REMARK    6  A    between atoms: C_14  and  O_24
REMARK    7  A    between atoms: C_16  and  O_23
REMARK    8  A    between atoms: C_18  and  O_22
REMARK                            x       y       z     vdW  Elec       q    Type
REMARK                         _______ _______ _______ _____ _____    ______ ____
ROOT
ATOM      1  N   UNL     1      -0.011   0.966   0.007  0.00  0.00    -0.301 N 
ATOM      2  H   UNL     1       0.002  -0.004   0.002  0.00  0.00    +0.150 HD
ENDROOT
BRANCH   1   8
ATOM      3  C   UNL     1       4.720   3.892  -0.022  0.00  0.00    +0.154 C 
ATOM      4  N   UNL     1       3.495   3.090  -0.015  0.00  0.00    -0.290 N 
ATOM      5  C   UNL     1       3.572   1.742  -0.023  0.00  0.00    +0.275 A 
ATOM      6  O   UNL     1       4.658   1.183  -0.036  0.00  0.00    -0.266 OA
ATOM      7  C   UNL     1       2.389   0.998  -0.015  0.00  0.00    +0.145 A 
ATOM      8  C   UNL     1       1.176   1.673  -0.000  0.00  0.00    +0.147 A 
ATOM      9  N   UNL     1       1.160   3.010   0.002  0.00  0.00    -0.207 NA
ATOM     10  C   UNL     1       2.280   3.705  -0.000  0.00  0.00    +0.173 A 
ATOM     11 CL   UNL     1       2.435  -0.738  -0.025  0.00  0.00    -0.074 Cl
BRANCH  10  12
ATOM     12  S   UNL     1       2.203   5.465   0.009  0.00  0.00    -0.091 S 
ATOM     13  C   UNL     1       0.409   5.702   0.027  0.00  0.00    +0.093 C 
ENDBRANCH  10  12
ENDBRANCH   1   8
BRANCH   1  14
ATOM     14  C   UNL     1      -1.290   1.681   0.017  0.00  0.00    +0.236 C 
ATOM     15  C   UNL     1      -2.271   0.960   0.945  0.00  0.00    +0.192 C 
ATOM     16  C   UNL     1      -3.623   1.679   0.904  0.00  0.00    +0.178 C 
ATOM     17  C   UNL     1      -4.120   1.725  -0.545  0.00  0.00    +0.171 C 
ATOM     18  C   UNL     1      -3.067   2.417  -1.415  0.00  0.00    +0.196 C 
ATOM     19  O   UNL     1      -1.826   1.716  -1.307  0.00  0.00    -0.354 OA
BRANCH  17  20
ATOM     20  O   UNL     1      -4.332   0.395  -1.020  0.00  0.00    -0.387 OA
ATOM     21  H   UNL     1      -4.644   0.348  -1.934  0.00  0.00    +0.210 HD
ENDBRANCH  17  20
BRANCH  16  22
ATOM     22  O   UNL     1      -4.566   0.970   1.710  0.00  0.00    -0.386 OA
ATOM     23  H   UNL     1      -5.448   1.366   1.724  0.00  0.00    +0.210 HD
ENDBRANCH  16  22
BRANCH  15  24
ATOM     24  O   UNL     1      -1.763   0.974   2.281  0.00  0.00    -0.385 OA
ATOM     25  H   UNL     1      -0.905   0.540   2.380  0.00  0.00    +0.210 HD
ENDBRANCH  15  24
ENDBRANCH   1  14
TORSDOF 6
