REMARK  Name = ZINC10425696
REMARK  7 active torsions:
REMARK  status: ('A' for Active; 'I' for Inactive)
REMARK    1  A    between atoms: C_4  and  C_7
REMARK    2  A    between atoms: C_7  and  N_8
REMARK    3  A    between atoms: C_17  and  C_19
REMARK    4  A    between atoms: N_21  and  C_22
REMARK    5  A    between atoms: C_22  and  C_23
REMARK    6  A    between atoms: C_23  and  C_24
REMARK    7  A    between atoms: C_24  and  N_25
REMARK                            x       y       z     vdW  Elec       q    Type
REMARK                         _______ _______ _______ _____ _____    ______ ____
ROOT
ATOM      1  C   UNL     1       2.341  -1.859  -3.785  0.00  0.00    +0.265 C 
ATOM      2  O   UNL     1       2.624  -2.154  -4.930  0.00  0.00    -0.268 OA
ATOM      3  N   UNL     1       1.584  -2.691  -3.042  0.00  0.00    -0.310 N 
ATOM      4  H   UNL     1       1.359  -2.456  -2.128  0.00  0.00    +0.149 HD
ENDROOT
BRANCH   1  14
ATOM      5  N   UNL     1       2.903   0.816  -1.402  0.00  0.00    -0.224 N 
ATOM      6  C   UNL     1       3.664   1.752  -2.006  0.00  0.00    +0.275 A 
ATOM      7  O   UNL     1       3.996   2.763  -1.414  0.00  0.00    -0.266 OA
ATOM      8  C   UNL     1       4.081   1.525  -3.397  0.00  0.00    +0.050 A 
ATOM      9  C   UNL     1       4.865   2.428  -4.108  0.00  0.00    +0.014 A 
ATOM     10  C   UNL     1       5.215   2.139  -5.410  0.00  0.00    +0.001 A 
ATOM     11  C   UNL     1       4.793   0.962  -6.014  0.00  0.00    +0.001 A 
ATOM     12  C   UNL     1       4.016   0.054  -5.326  0.00  0.00    +0.011 A 
ATOM     13  C   UNL     1       3.652   0.326  -4.012  0.00  0.00    +0.020 A 
ATOM     14  C   UNL     1       2.825  -0.589  -3.208  0.00  0.00    +0.154 A 
ATOM     15  N   UNL     1       2.528  -0.265  -1.973  0.00  0.00    -0.163 NA
BRANCH   5  16
ATOM     16  C   UNL     1       2.490   1.048  -0.016  0.00  0.00    +0.182 C 
BRANCH  16  20
ATOM     17  C   UNL     1      -1.238   3.133   0.029  0.00  0.00    +0.000 A 
ATOM     18  C   UNL     1      -1.219   1.751   0.017  0.00  0.00    +0.000 A 
ATOM     19  C   UNL     1      -0.013   1.076   0.008  0.00  0.00    +0.005 A 
ATOM     20  C   UNL     1       1.175   1.783   0.000  0.00  0.00    -0.026 A 
ATOM     21  C   UNL     1       1.156   3.165   0.008  0.00  0.00    +0.005 A 
ATOM     22  C   UNL     1      -0.050   3.840   0.022  0.00  0.00    +0.000 A 
ENDBRANCH  16  20
ENDBRANCH   5  16
ENDBRANCH   1  14
BRANCH   3  23
ATOM     23  C   UNL     1       1.103  -3.951  -3.614  0.00  0.00    +0.106 C 
BRANCH  23  24
ATOM     24  C   UNL     1       0.275  -4.702  -2.569  0.00  0.00    +0.038 C 
BRANCH  24  25
ATOM     25  C   UNL     1      -0.228  -6.018  -3.167  0.00  0.00    +0.119 C 
BRANCH  25  26
ATOM     26  N   UNL     1      -1.021  -6.737  -2.167  0.00  0.00    -0.224 N 
ATOM     27  C   UNL     1      -2.355  -6.593  -2.010  0.00  0.00    +0.246 C 
ATOM     28  O   UNL     1      -3.097  -5.874  -2.643  0.00  0.00    -0.273 OA
ATOM     29  C   UNL     1      -2.724  -7.519  -0.878  0.00  0.00    +0.113 C 
ATOM     30  C   UNL     1      -3.737  -8.576  -1.339  0.00  0.00    +0.035 C 
ATOM     31  C   UNL     1      -4.641  -8.793  -0.098  0.00  0.00    +0.003 C 
ATOM     32  C   UNL     1      -4.757  -7.367   0.498  0.00  0.00    +0.003 C 
ATOM     33  C   UNL     1      -3.357  -6.751   0.284  0.00  0.00    +0.035 C 
ATOM     34  N   UNL     1      -1.457  -8.138  -0.483  0.00  0.00    -0.285 N 
ATOM     35  C   UNL     1      -0.515  -7.622  -1.299  0.00  0.00    +0.309 C 
ATOM     36  O   UNL     1       0.661  -7.924  -1.249  0.00  0.00    -0.252 OA
ATOM     37  H   UNL     1      -1.323  -8.792   0.221  0.00  0.00    +0.151 HD
ENDBRANCH  25  26
ENDBRANCH  24  25
ENDBRANCH  23  24
ENDBRANCH   3  23
TORSDOF 7
