REMARK  Name = ZINC06075275
REMARK  11 active torsions:
REMARK  status: ('A' for Active; 'I' for Inactive)
REMARK    1  A    between atoms: C_1  and  C_2
REMARK    2  A    between atoms: C_2  and  C_3
REMARK    3  A    between atoms: C_2  and  C_4
REMARK    4  A    between atoms: C_2  and  C_5
REMARK    5  A    between atoms: C_12  and  N_17
REMARK    6  A    between atoms: C_13  and  C_14
REMARK    7  A    between atoms: C_18  and  C_20
REMARK    8  A    between atoms: C_20  and  C_21
REMARK    9  A    between atoms: C_21  and  C_22
REMARK   10  A    between atoms: N_24  and  C_25
REMARK   11  A    between atoms: C_25  and  C_26
REMARK                            x       y       z     vdW  Elec       q    Type
REMARK                         _______ _______ _______ _____ _____    ______ ____
ROOT
ATOM      1  N   UNL     1      -1.640  -1.854   0.008  0.00  0.00    -0.279 N 
ATOM      2  C   UNL     1      -1.412  -0.526   0.013  0.00  0.00    +0.218 C 
ATOM      3  O   UNL     1      -2.344   0.250   0.026  0.00  0.00    -0.275 OA
ATOM      4  H   UNL     1      -0.894  -2.474  -0.003  0.00  0.00    +0.155 HD
ENDROOT
BRANCH   1  11
ATOM      5  C   UNL     1      -7.611  -4.098   0.432  0.00  0.00    -0.000 C 
ATOM      6  C   UNL     1      -6.897  -5.153  -0.417  0.00  0.00    +0.009 C 
ATOM      7  C   UNL     1      -5.437  -5.276   0.025  0.00  0.00    +0.037 C 
ATOM      8  C   UNL     1      -4.807  -3.889   0.027  0.00  0.00    -0.023 A 
ATOM      9  C   UNL     1      -5.573  -2.777   0.041  0.00  0.00    -0.004 A 
ATOM     10  S   UNL     1      -4.421  -1.433   0.044  0.00  0.00    -0.077 S 
ATOM     11  C   UNL     1      -2.941  -2.334   0.018  0.00  0.00    +0.084 A 
ATOM     12  C   UNL     1      -3.373  -3.652   0.015  0.00  0.00    +0.068 A 
ATOM     13  C   UNL     1      -7.069  -2.711   0.056  0.00  0.00    +0.046 C 
BRANCH  12  14
ATOM     14  C   UNL     1      -2.419  -4.766  -0.001  0.00  0.00    +0.244 C 
ATOM     15  O   UNL     1      -2.013  -5.234   1.047  0.00  0.00    -0.270 OA
ATOM     16  N   UNL     1      -1.992  -5.271  -1.175  0.00  0.00    -0.325 N 
ATOM     17  H   UNL     1      -2.316  -4.898  -2.010  0.00  0.00    +0.145 HD
ATOM     18  H   UNL     1      -1.361  -6.007  -1.185  0.00  0.00    +0.145 HD
ENDBRANCH  12  14
BRANCH   5  20
ATOM     19  C   UNL     1      -9.649  -5.540   0.518  0.00  0.00    +0.011 C 
ATOM     20  C   UNL     1      -9.115  -4.152   0.159  0.00  0.00    -0.035 C 
ATOM     21  C   UNL     1      -9.826  -3.097   1.009  0.00  0.00    +0.011 C 
ATOM     22  C   UNL     1      -9.375  -3.873  -1.323  0.00  0.00    +0.011 C 
ENDBRANCH   5  20
ENDBRANCH   1  11
BRANCH   2  23
ATOM     23  C   UNL     1       0.002  -0.004   0.002  0.00  0.00    +0.105 C 
BRANCH  23  24
ATOM     24  C   UNL     1      -0.019   1.526   0.010  0.00  0.00    +0.105 C 
BRANCH  24  25
ATOM     25  C   UNL     1       1.395   2.047  -0.000  0.00  0.00    +0.214 C 
ATOM     26  O   UNL     1       2.328   1.272  -0.013  0.00  0.00    -0.276 OA
ATOM     27  N   UNL     1       1.623   3.376   0.005  0.00  0.00    -0.311 N 
ATOM     28  H   UNL     1       0.878   3.996   0.015  0.00  0.00    +0.149 HD
BRANCH  27  29
ATOM     29  C   UNL     1       2.998   3.883  -0.006  0.00  0.00    +0.139 C 
BRANCH  29  30
ATOM     30  C   UNL     1       2.977   5.390   0.003  0.00  0.00    -0.027 A 
ATOM     31  C   UNL     1       2.962   6.086  -1.192  0.00  0.00    +0.009 A 
ATOM     32  C   UNL     1       2.938   7.468  -1.189  0.00  0.00    +0.050 A 
ATOM     33  C   UNL     1       2.941   8.159   0.011  0.00  0.00    +0.166 A 
ATOM     34  C   UNL     1       2.961   7.458   1.214  0.00  0.00    +0.167 A 
ATOM     35  C   UNL     1       2.979   6.073   1.204  0.00  0.00    +0.054 A 
ATOM     36  O   UNL     1       2.959   8.356   2.243  0.00  0.00    -0.453 OA
ATOM     37  C   UNL     1       3.349   9.612   1.657  0.00  0.00    +0.466 C 
ATOM     38  O   UNL     1       2.926   9.496   0.286  0.00  0.00    -0.453 OA
ENDBRANCH  29  30
ENDBRANCH  27  29
ENDBRANCH  24  25
ENDBRANCH  23  24
ENDBRANCH   2  23
TORSDOF 8
