REMARK  Name = ZINC11456575
REMARK  7 active torsions:
REMARK  status: ('A' for Active; 'I' for Inactive)
REMARK    1  A    between atoms: C_2  and  C_14
REMARK    2  A    between atoms: C_6  and  C_7
REMARK    3  A    between atoms: C_14  and  C_16
REMARK    4  A    between atoms: C_16  and  S_17
REMARK    5  A    between atoms: S_17  and  C_18
REMARK    6  A    between atoms: N_22  and  C_23
REMARK    7  A    between atoms: C_23  and  C_24
REMARK                            x       y       z     vdW  Elec       q    Type
REMARK                         _______ _______ _______ _____ _____    ______ ____
ROOT
ATOM      1  S   UNL     1       0.879   3.323   1.811  0.00  0.00    -0.078 S 
ENDROOT
BRANCH   1   2
ATOM      2  C   UNL     1       0.862   1.895   0.780  0.00  0.00    +0.193 A 
ATOM      3  N   UNL     1       0.128   1.727  -0.293  0.00  0.00    -0.121 NA
ATOM      4  N   UNL     1       0.411   0.460  -0.818  0.00  0.00    -0.112 NA
ATOM      5  C   UNL     1       1.309  -0.106  -0.049  0.00  0.00    +0.220 A 
ATOM      6  N   UNL     1       1.611   0.766   0.959  0.00  0.00    -0.288 N 
ATOM      7  N   UNL     1       1.857  -1.369  -0.227  0.00  0.00    -0.300 N 
ATOM      8  C   UNL     1       2.616  -1.442  -1.482  0.00  0.00    +0.108 C 
ATOM      9  C   UNL     1       3.323  -2.796  -1.575  0.00  0.00    +0.019 C 
ATOM     10  C   UNL     1       2.280  -3.916  -1.522  0.00  0.00    +0.003 C 
ATOM     11  C   UNL     1       1.471  -3.788  -0.229  0.00  0.00    +0.019 C 
ATOM     12  C   UNL     1       0.818  -2.406  -0.175  0.00  0.00    +0.108 C 
BRANCH   6  13
ATOM     13  C   UNL     1       2.570   0.531   2.041  0.00  0.00    +0.158 C 
BRANCH  13  14
ATOM     14  C   UNL     1       3.925   1.132   1.661  0.00  0.00    +0.138 C 
ATOM     15  C   UNL     1       4.966   0.812   2.756  0.00  0.00    +0.035 C 
ATOM     16  C   UNL     1       5.779   2.133   2.833  0.00  0.00    +0.031 C 
ATOM     17  C   UNL     1       4.672   3.177   2.544  0.00  0.00    +0.160 C 
ATOM     18  O   UNL     1       3.817   2.557   1.570  0.00  0.00    -0.375 OA
ENDBRANCH  13  14
ENDBRANCH   6  13
ENDBRANCH   1   2
BRANCH   1  19
ATOM     19  C   UNL     1      -0.323   4.439   1.036  0.00  0.00    +0.157 C 
BRANCH  19  20
ATOM     20  C   UNL     1      -0.406   5.717   1.829  0.00  0.00    +0.175 C 
ATOM     21  O   UNL     1       0.278   5.862   2.820  0.00  0.00    -0.291 OA
BRANCH  20  23
ATOM     22  C   UNL     1      -1.507   8.034   2.044  0.00  0.00    +0.043 A 
ATOM     23  C   UNL     1      -1.315   6.786   1.403  0.00  0.00    +0.036 A 
ATOM     24  C   UNL     1      -2.153   6.765   0.299  0.00  0.00    +0.094 A 
ATOM     25  N   UNL     1      -2.820   7.928   0.253  0.00  0.00    -0.356 N 
ATOM     26  H   UNL     1      -3.472   8.175  -0.421  0.00  0.00    +0.165 HD
ATOM     27  C   UNL     1      -2.432   8.718   1.314  0.00  0.00    +0.103 A 
BRANCH  27  28
ATOM     28  C   UNL     1      -2.934  10.066   1.611  0.00  0.00    +0.263 C 
ATOM     29  O   UNL     1      -2.516  10.671   2.580  0.00  0.00    -0.268 OA
ATOM     30  N   UNL     1      -3.859  10.632   0.810  0.00  0.00    -0.296 N 
ATOM     31  C   UNL     1      -4.443  10.018  -0.392  0.00  0.00    +0.108 C 
ATOM     32  C   UNL     1      -5.430  11.039  -0.994  0.00  0.00    +0.020 C 
ATOM     33  C   UNL     1      -4.921  12.389  -0.425  0.00  0.00    +0.020 C 
ATOM     34  C   UNL     1      -4.447  11.971   0.990  0.00  0.00    +0.108 C 
ENDBRANCH  27  28
ENDBRANCH  20  23
ENDBRANCH  19  20
ENDBRANCH   1  19
TORSDOF 7
