REMARK  Name = ZINC42912907
REMARK  6 active torsions:
REMARK  status: ('A' for Active; 'I' for Inactive)
REMARK    1  A    between atoms: C_4  and  C_7
REMARK    2  A    between atoms: C_7  and  O_8
REMARK    3  A    between atoms: O_8  and  C_9
REMARK    4  A    between atoms: C_12  and  C_16
REMARK    5  A    between atoms: C_17  and  C_18
REMARK    6  A    between atoms: C_17  and  C_20
REMARK                            x       y       z     vdW  Elec       q    Type
REMARK                         _______ _______ _______ _____ _____    ______ ____
ROOT
ATOM      1  C   UNL     1       5.364  -1.511   1.514  0.00  0.00    +0.135 A 
ATOM      2  C   UNL     1       6.014  -2.020   0.395  0.00  0.00    +0.047 A 
ATOM      3  C   UNL     1       7.183  -2.713   0.533  0.00  0.00    +0.011 A 
ATOM      4  C   UNL     1       7.733  -2.913   1.808  0.00  0.00    -0.022 A 
ATOM      5  C   UNL     1       7.078  -2.400   2.936  0.00  0.00    +0.027 A 
ATOM      6  C   UNL     1       5.903  -1.699   2.784  0.00  0.00    +0.060 A 
ATOM      7 BR   UNL     1       5.017  -0.997   4.300  0.00  0.00    -0.046 Br
ENDROOT
BRANCH   4   8
ATOM      8  C   UNL     1       8.986  -3.656   1.959  0.00  0.00    +0.032 C 
ATOM      9  C   UNL     1       9.227  -4.373   3.110  0.00  0.00    +0.114 C 
BRANCH   9  10
ATOM     10  C   UNL     1      10.542  -4.995   3.328  0.00  0.00    +0.252 C 
ATOM     11  O   UNL     1      11.417  -4.876   2.491  0.00  0.00    -0.270 OA
ATOM     12  N   UNL     1      10.778  -5.697   4.454  0.00  0.00    -0.325 N 
ATOM     13  H   UNL     1      10.080  -5.792   5.121  0.00  0.00    +0.145 HD
ATOM     14  H   UNL     1      11.645  -6.107   4.597  0.00  0.00    +0.145 HD
ENDBRANCH   9  10
BRANCH   9  15
ATOM     15  C   UNL     1       8.197  -4.513   4.095  0.00  0.00    +0.104 C 
ATOM     16  N   UNL     1       7.380  -4.624   4.877  0.00  0.00    -0.191 NA
ENDBRANCH   9  15
ENDBRANCH   4   8
BRANCH   1  17
ATOM     17  O   UNL     1       4.203  -0.824   1.368  0.00  0.00    -0.486 OA
BRANCH  17  18
ATOM     18  C   UNL     1       3.705  -0.668   0.037  0.00  0.00    +0.264 C 
BRANCH  18  22
ATOM     19  C   UNL     1       0.057   1.551   0.131  0.00  0.00    +0.000 A 
ATOM     20  C   UNL     1       1.264   2.212   0.005  0.00  0.00    +0.000 A 
ATOM     21  C   UNL     1       2.445   1.493  -0.025  0.00  0.00    +0.007 A 
ATOM     22  C   UNL     1       2.418   0.115   0.071  0.00  0.00    -0.010 A 
ATOM     23  C   UNL     1       1.210  -0.546   0.198  0.00  0.00    +0.007 A 
ATOM     24  C   UNL     1       0.029   0.172   0.227  0.00  0.00    +0.000 A 
ENDBRANCH  18  22
ENDBRANCH  17  18
ENDBRANCH   1  17
TORSDOF 6
