REMARK  Name = ZINC14538210
REMARK  16 active torsions:
REMARK  status: ('A' for Active; 'I' for Inactive)
REMARK    1  A    between atoms: C_1  and  C_2
REMARK    2  A    between atoms: C_2  and  C_3
REMARK    3  A    between atoms: C_2  and  C_4
REMARK    4  A    between atoms: C_5  and  C_6
REMARK    5  A    between atoms: C_6  and  N_7
REMARK    6  A    between atoms: N_7  and  C_8
REMARK    7  A    between atoms: C_10  and  C_22
REMARK    8  A    between atoms: C_12  and  S_14
REMARK    9  A    between atoms: S_14  and  N_17
REMARK   10  A    between atoms: N_17  and  C_18
REMARK   11  A    between atoms: C_18  and  C_19
REMARK   12  A    between atoms: C_18  and  C_20
REMARK   13  A    between atoms: C_18  and  C_21
REMARK   14  A    between atoms: N_24  and  C_25
REMARK   15  A    between atoms: C_25  and  C_26
REMARK   16  A    between atoms: C_32  and  N_72
REMARK                            x       y       z     vdW  Elec       q    Type
REMARK                         _______ _______ _______ _____ _____    ______ ____
ROOT
ATOM      1  C   UNL     1      -3.326   3.343   5.705  0.00  0.00    +0.030 A 
ATOM      2  C   UNL     1      -2.897   3.675   4.428  0.00  0.00    +0.036 A 
ATOM      3  C   UNL     1      -1.608   3.332   4.020  0.00  0.00    +0.040 A 
ATOM      4  C   UNL     1      -0.754   2.668   4.903  0.00  0.00    +0.041 A 
ATOM      5  C   UNL     1      -1.189   2.347   6.173  0.00  0.00    +0.108 A 
ATOM      6  C   UNL     1      -2.468   2.682   6.576  0.00  0.00    +0.051 A 
ENDROOT
BRANCH   3   7
ATOM      7  C   UNL     1      -1.145   3.678   2.659  0.00  0.00    +0.244 C 
ATOM      8  O   UNL     1      -0.020   3.383   2.307  0.00  0.00    -0.270 OA
ATOM      9  N   UNL     1      -1.971   4.319   1.809  0.00  0.00    -0.311 N 
ATOM     10  H   UNL     1      -2.869   4.554   2.090  0.00  0.00    +0.149 HD
BRANCH   9  11
ATOM     11  C   UNL     1      -1.513   4.661   0.460  0.00  0.00    +0.106 C 
BRANCH  11  12
ATOM     12  C   UNL     1      -2.635   5.378  -0.294  0.00  0.00    -0.011 C 
ATOM     13  C   UNL     1      -2.119   5.841  -1.659  0.00  0.00    +0.001 C 
ATOM     14  C   UNL     1      -3.263   6.504  -2.430  0.00  0.00    -0.018 C 
ATOM     15  C   UNL     1      -4.419   5.511  -2.571  0.00  0.00    -0.079 C 
ATOM     16  C   UNL     1      -3.809   4.418  -0.497  0.00  0.00    -0.074 C 
ATOM     17  C   UNL     1      -6.075   4.253  -1.332  0.00  0.00    -0.096 C 
ATOM     18  N   UNL     1      -4.886   5.123  -1.223  0.00  0.00    +0.378 N 
ATOM     19  H   UNL     1      -5.139   5.971  -0.702  0.00  0.00    -0.082 HD
ENDBRANCH  11  12
ENDBRANCH   9  11
ENDBRANCH   3   7
BRANCH   5  20
ATOM     20  S   UNL     1      -0.109   1.509   7.284  0.00  0.00    +0.059 S 
ATOM     21  O   UNL     1      -0.915   1.033   8.353  0.00  0.00    -0.153 OA
ATOM     22  O   UNL     1       0.697   0.645   6.494  0.00  0.00    -0.153 OA
BRANCH  20  23
ATOM     23  N   UNL     1       0.909   2.645   7.929  0.00  0.00    -0.185 NA
ATOM     24  H   UNL     1       1.855   2.627   7.715  0.00  0.00    +0.149 HD
BRANCH  23  25
ATOM     25  C   UNL     1       0.380   3.678   8.823  0.00  0.00    +0.032 C 
ATOM     26  C   UNL     1      -0.117   3.029  10.116  0.00  0.00    +0.029 C 
ATOM     27  C   UNL     1       1.485   4.685   9.150  0.00  0.00    +0.029 C 
ATOM     28  C   UNL     1      -0.781   4.401   8.137  0.00  0.00    +0.029 C 
ENDBRANCH  23  25
ENDBRANCH  20  23
ENDBRANCH   5  20
BRANCH   1  29
ATOM     29  N   UNL     1      -4.618   3.678   6.117  0.00  0.00    -0.340 N 
ATOM     30  H   UNL     1      -4.916   3.449   7.011  0.00  0.00    +0.146 HD
BRANCH  29  31
ATOM     31  C   UNL     1      -5.522   4.375   5.199  0.00  0.00    +0.128 C 
BRANCH  31  33
ATOM     32  C   UNL     1      -7.329   5.832   5.956  0.00  0.00    -0.027 C 
ATOM     33  C   UNL     1      -6.843   4.618   5.882  0.00  0.00    -0.012 C 
BRANCH  32  35
ATOM     34  C   UNL     1      -8.448   7.033   7.814  0.00  0.00    +0.011 C 
ATOM     35  C   UNL     1      -8.650   6.074   6.639  0.00  0.00    +0.005 C 
ATOM     36  C   UNL     1      -9.635   6.689   5.642  0.00  0.00    +0.011 C 
ENDBRANCH  32  35
ENDBRANCH  31  33
ENDBRANCH  29  31
ENDBRANCH   1  29
TORSDOF 10
