REMARK  Name = ZINC39634870
REMARK  12 active torsions:
REMARK  status: ('A' for Active; 'I' for Inactive)
REMARK    1  A    between atoms: C_1  and  C_2
REMARK    2  A    between atoms: C_2  and  C_3
REMARK    3  A    between atoms: C_2  and  N_4
REMARK    4  A    between atoms: N_4  and  C_5
REMARK    5  A    between atoms: N_4  and  C_35
REMARK    6  A    between atoms: C_5  and  C_6
REMARK    7  A    between atoms: C_6  and  N_7
REMARK    8  A    between atoms: C_8  and  C_10
REMARK    9  A    between atoms: C_21  and  C_23
REMARK   10  A    between atoms: C_26  and  C_28
REMARK   11  A    between atoms: C_35  and  C_36
REMARK   12  A    between atoms: C_35  and  C_37
REMARK                            x       y       z     vdW  Elec       q    Type
REMARK                         _______ _______ _______ _____ _____    ______ ____
ROOT
ATOM      1  C   UNL     1       1.256  -0.250   8.255  0.00  0.00    +0.100 C 
ATOM      2  C   UNL     1       0.895  -1.576   8.962  0.00  0.00    +0.121 C 
ATOM      3  N   UNL     1       1.980  -1.781   9.950  0.00  0.00    -0.294 N 
ATOM      4  C   UNL     1       2.253  -0.426  10.485  0.00  0.00    +0.115 C 
ATOM      5  C   UNL     1       2.144   0.503   9.260  0.00  0.00    -0.004 C 
ATOM      6  C   UNL     1       1.492   1.825   9.655  0.00  0.00    -0.010 C 
ATOM      7  C   UNL     1       2.420   2.583  10.608  0.00  0.00    -0.082 C 
ATOM      8  N   UNL     1       3.708   2.828   9.948  0.00  0.00    +0.379 N 
ATOM      9  C   UNL     1       4.372   1.552   9.655  0.00  0.00    -0.082 C 
ATOM     10  C   UNL     1       3.526   0.750   8.661  0.00  0.00    -0.010 C 
ATOM     11  C   UNL     1       2.583  -2.939  10.287  0.00  0.00    +0.282 C 
ATOM     12  O   UNL     1       3.466  -2.944  11.125  0.00  0.00    -0.267 OA
ATOM     13  H   UNL     1       3.553   3.330   9.086  0.00  0.00    -0.086 HD
ATOM     14  H   UNL     1       4.295   3.380  10.554  0.00  0.00    -0.086 HD
ENDROOT
BRANCH  11  15
ATOM     15  C   UNL     1       2.175  -4.191   9.645  0.00  0.00    +0.190 A 
ATOM     16  C   UNL     1       2.701  -5.439   9.899  0.00  0.00    +0.055 A 
ATOM     17  C   UNL     1       2.023  -6.338   9.070  0.00  0.00    +0.051 A 
ATOM     18  C   UNL     1       1.117  -5.615   8.348  0.00  0.00    +0.139 A 
ATOM     19  O   UNL     1       1.214  -4.324   8.706  0.00  0.00    -0.450 OA
BRANCH  18  20
ATOM     20  C   UNL     1       0.183  -6.162   7.344  0.00  0.00    +0.052 A 
ATOM     21  C   UNL     1       0.652  -7.006   6.335  0.00  0.00    +0.014 A 
ATOM     22  C   UNL     1      -0.226  -7.513   5.401  0.00  0.00    +0.001 A 
ATOM     23  C   UNL     1      -1.570  -7.188   5.459  0.00  0.00    +0.003 A 
ATOM     24  C   UNL     1      -2.044  -6.353   6.454  0.00  0.00    +0.039 A 
ATOM     25  C   UNL     1      -1.177  -5.841   7.402  0.00  0.00    +0.134 A 
ATOM     26  F   UNL     1      -1.641  -5.030   8.377  0.00  0.00    -0.205 F 
ENDBRANCH  18  20
ENDBRANCH  11  15
BRANCH   1  28
ATOM     27  N   UNL     1       2.008   0.381   5.985  0.00  0.00    -0.317 N 
ATOM     28  C   UNL     1       2.017  -0.524   6.984  0.00  0.00    +0.218 C 
ATOM     29  O   UNL     1       2.639  -1.558   6.860  0.00  0.00    -0.275 OA
ATOM     30  H   UNL     1       1.511   1.208   6.084  0.00  0.00    +0.149 HD
BRANCH  27  31
ATOM     31  C   UNL     1       2.748   0.115   4.749  0.00  0.00    +0.085 C 
BRANCH  31  32
ATOM     32  C   UNL     1       2.573   1.291   3.787  0.00  0.00    -0.059 C 
BRANCH  32  33
ATOM     33  N   UNL     1       3.297   1.015   2.538  0.00  0.00    +0.384 N 
ATOM     34  H   UNL     1       4.263   0.811   2.748  0.00  0.00    -0.081 HD
BRANCH  33  36
ATOM     35  C   UNL     1       3.832   3.398   2.371  0.00  0.00    -0.014 C 
ATOM     36  C   UNL     1       3.223   2.189   1.659  0.00  0.00    -0.074 C 
ATOM     37  C   UNL     1       4.000   1.911   0.371  0.00  0.00    -0.014 C 
ENDBRANCH  33  36
BRANCH  33  38
ATOM     38  C   UNL     1       2.688  -0.140   1.865  0.00  0.00    -0.074 C 
ATOM     39  C   UNL     1       1.492   0.327   1.032  0.00  0.00    -0.014 C 
ATOM     40  C   UNL     1       3.721  -0.799   0.949  0.00  0.00    -0.014 C 
ENDBRANCH  33  38
ENDBRANCH  32  33
ENDBRANCH  31  32
ENDBRANCH  27  31
ENDBRANCH   1  28
TORSDOF 8
