REMARK  Name = ZINC01096543
REMARK  7 active torsions:
REMARK  status: ('A' for Active; 'I' for Inactive)
REMARK    1  A    between atoms: C_1  and  C_2
REMARK    2  A    between atoms: N_7  and  C_8
REMARK    3  A    between atoms: C_8  and  C_10
REMARK    4  A    between atoms: C_8  and  C_16
REMARK    5  A    between atoms: C_17  and  O_25
REMARK    6  A    between atoms: C_21  and  C_23
REMARK    7  A    between atoms: C_23  and  O_24
REMARK                            x       y       z     vdW  Elec       q    Type
REMARK                         _______ _______ _______ _____ _____    ______ ____
ROOT
ATOM      1  C   UNL     1       1.185   1.504   2.469  0.00  0.00    +0.172 C 
ENDROOT
BRANCH   1   8
ATOM      2  C   UNL     1      -2.521   2.191   6.506  0.00  0.00    +0.089 C 
ATOM      3  C   UNL     1      -1.282   2.632   5.771  0.00  0.00    +0.136 A 
ATOM      4  C   UNL     1      -0.723   2.031   4.696  0.00  0.00    +0.090 A 
ATOM      5  C   UNL     1       0.410   2.837   4.403  0.00  0.00    +0.162 A 
ATOM      6  N   UNL     1       0.410   3.801   5.287  0.00  0.00    -0.063 NA
ATOM      7  O   UNL     1      -0.522   3.701   6.051  0.00  0.00    -0.358 OA
ATOM      8  N   UNL     1       1.331   2.643   3.379  0.00  0.00    -0.313 N 
ATOM      9  H   UNL     1       2.070   3.262   3.267  0.00  0.00    +0.149 HD
ENDBRANCH   1   8
BRANCH   1  10
ATOM     10  C   UNL     1       1.857   1.820   1.158  0.00  0.00    +0.175 A 
ATOM     11  C   UNL     1       1.224   1.533  -0.001  0.00  0.00    +0.205 A 
ATOM     12  C   UNL     1       1.869   1.843  -1.231  0.00  0.00    +0.227 A 
ATOM     13  O   UNL     1       1.329   1.605  -2.300  0.00  0.00    -0.284 OA
ATOM     14  C   UNL     1       3.156   2.436  -1.180  0.00  0.00    +0.098 A 
ATOM     15  C   UNL     1       3.715   2.683   0.021  0.00  0.00    +0.134 A 
ATOM     16  O   UNL     1       3.076   2.377   1.156  0.00  0.00    -0.456 OA
BRANCH  11  17
ATOM     17  O   UNL     1      -0.011   0.963   0.007  0.00  0.00    -0.501 OA
ATOM     18  H   UNL     1       0.002  -0.004   0.002  0.00  0.00    +0.292 HD
ENDBRANCH  11  17
BRANCH  15  19
ATOM     19  C   UNL     1       5.082   3.313   0.087  0.00  0.00    +0.230 C 
BRANCH  19  20
ATOM     20  O   UNL     1       4.950   4.736   0.120  0.00  0.00    -0.387 OA
ATOM     21  H   UNL     1       5.792   5.209   0.163  0.00  0.00    +0.210 HD
ENDBRANCH  19  20
ENDBRANCH  15  19
ENDBRANCH   1  10
BRANCH   1  22
ATOM     22  C   UNL     1       1.827   0.286   3.082  0.00  0.00    -0.017 A 
ATOM     23  C   UNL     1       3.031   0.386   3.764  0.00  0.00    +0.025 A 
ATOM     24  C   UNL     1       3.588  -0.752   4.316  0.00  0.00    +0.111 A 
ATOM     25  N   UNL     1       2.993  -1.923   4.192  0.00  0.00    -0.263 NA
ATOM     26  C   UNL     1       1.851  -2.055   3.547  0.00  0.00    +0.111 A 
ATOM     27  C   UNL     1       1.232  -0.961   2.973  0.00  0.00    +0.025 A 
ENDBRANCH   1  22
TORSDOF 6
