REMARK  Name = ZINC18405872
REMARK  6 active torsions:
REMARK  status: ('A' for Active; 'I' for Inactive)
REMARK    1  A    between atoms: C_1  and  C_2
REMARK    2  A    between atoms: C_2  and  C_4
REMARK    3  A    between atoms: C_2  and  O_17
REMARK    4  A    between atoms: O_17  and  C_18
REMARK    5  A    between atoms: C_18  and  C_20
REMARK    6  A    between atoms: C_25  and  N_26
REMARK                            x       y       z     vdW  Elec       q    Type
REMARK                         _______ _______ _______ _____ _____    ______ ____
ROOT
ATOM      1  C   UNL     1       4.057  -2.511  -3.110  0.00  0.00    +0.062 C 
ATOM      2  C   UNL     1       4.077  -2.712  -1.593  0.00  0.00    +0.259 C 
ENDROOT
BRANCH   2   3
ATOM      3  C   UNL     1       3.826  -4.164  -1.276  0.00  0.00    +0.261 C 
ATOM      4  O   UNL     1       2.737  -4.517  -0.874  0.00  0.00    -0.271 OA
ATOM      5  N   UNL     1       4.810  -5.069  -1.439  0.00  0.00    -0.258 N 
ATOM      6  C   UNL     1       6.099  -4.690  -2.037  0.00  0.00    +0.209 C 
ATOM      7  C   UNL     1       6.541  -5.767  -2.987  0.00  0.00    +0.235 C 
ATOM      8  O   UNL     1       7.235  -5.478  -3.939  0.00  0.00    -0.274 OA
ATOM      9  N   UNL     1       6.172  -7.048  -2.799  0.00  0.00    -0.283 N 
ATOM     10  C   UNL     1       5.332  -7.402  -1.738  0.00  0.00    +0.055 A 
ATOM     11  C   UNL     1       4.637  -6.406  -1.048  0.00  0.00    +0.058 A 
ATOM     12  C   UNL     1       3.797  -6.742  -0.002  0.00  0.00    +0.025 A 
ATOM     13  C   UNL     1       3.650  -8.069   0.362  0.00  0.00    +0.002 A 
ATOM     14  C   UNL     1       4.339  -9.056  -0.317  0.00  0.00    +0.002 A 
ATOM     15  C   UNL     1       5.180  -8.728  -1.365  0.00  0.00    +0.025 A 
ATOM     16  H   UNL     1       6.493  -7.734  -3.405  0.00  0.00    +0.155 HD
ENDBRANCH   2   3
BRANCH   2  17
ATOM     17  O   UNL     1       3.042  -1.897  -0.984  0.00  0.00    -0.449 OA
BRANCH  17  18
ATOM     18  C   UNL     1       3.384  -0.646  -0.616  0.00  0.00    +0.342 C 
ATOM     19  O   UNL     1       4.518  -0.248  -0.800  0.00  0.00    -0.245 OA
BRANCH  18  20
ATOM     20  C   UNL     1       2.385   0.237   0.009  0.00  0.00    +0.081 A 
ATOM     21  C   UNL     1       1.051  -0.169   0.109  0.00  0.00    +0.017 A 
ATOM     22  C   UNL     1       0.122   0.662   0.694  0.00  0.00    +0.002 A 
ATOM     23  C   UNL     1       0.501   1.902   1.185  0.00  0.00    +0.022 A 
ATOM     24  C   UNL     1       1.814   2.318   1.095  0.00  0.00    +0.062 A 
ATOM     25  C   UNL     1       2.767   1.493   0.507  0.00  0.00    +0.057 A 
ATOM     26 CL   UNL     1       2.276   3.873   1.714  0.00  0.00    -0.082 Cl
BRANCH  25  27
ATOM     27  N   UNL     1       4.089   1.909   0.415  0.00  0.00    -0.356 N 
ATOM     28  H   UNL     1       4.789   1.263   0.232  0.00  0.00    +0.142 HD
ATOM     29  H   UNL     1       4.312   2.845   0.533  0.00  0.00    +0.142 HD
ENDBRANCH  25  27
ENDBRANCH  18  20
ENDBRANCH  17  18
ENDBRANCH   2  17
TORSDOF 5
