REMARK  Name = ZINC39684063
REMARK  10 active torsions:
REMARK  status: ('A' for Active; 'I' for Inactive)
REMARK    1  A    between atoms: C_1  and  C_2
REMARK    2  A    between atoms: C_2  and  C_3
REMARK    3  A    between atoms: C_3  and  C_4
REMARK    4  A    between atoms: C_4  and  C_6
REMARK    5  A    between atoms: C_4  and  C_7
REMARK    6  A    between atoms: C_11  and  C_20
REMARK    7  A    between atoms: N_22  and  C_23
REMARK    8  A    between atoms: C_23  and  C_24
REMARK    9  A    between atoms: C_24  and  C_25
REMARK   10  A    between atoms: C_30  and  C_34
REMARK                            x       y       z     vdW  Elec       q    Type
REMARK                         _______ _______ _______ _____ _____    ______ ____
ROOT
ATOM      1  C   UNL     1       1.777  -2.439  -2.209  0.00  0.00    +0.218 C 
ATOM      2  O   UNL     1       2.457  -1.707  -2.897  0.00  0.00    -0.275 OA
ATOM      3  N   UNL     1       1.728  -3.760  -2.475  0.00  0.00    -0.300 N 
ATOM      4  C   UNL     1       0.876  -4.785  -1.829  0.00  0.00    +0.121 C 
ATOM      5  C   UNL     1       0.438  -5.714  -2.984  0.00  0.00    +0.100 C 
ATOM      6  C   UNL     1       1.518  -5.532  -4.064  0.00  0.00    -0.004 C 
ATOM      7  C   UNL     1       2.509  -4.513  -3.485  0.00  0.00    +0.115 C 
ATOM      8  C   UNL     1       0.896  -4.986  -5.346  0.00  0.00    -0.010 C 
ATOM      9  C   UNL     1       1.979  -4.869  -6.422  0.00  0.00    -0.082 C 
ATOM     10  N   UNL     1       2.574  -6.188  -6.666  0.00  0.00    +0.379 N 
ATOM     11  C   UNL     1       3.250  -6.665  -5.454  0.00  0.00    -0.082 C 
ATOM     12  C   UNL     1       2.221  -6.859  -4.336  0.00  0.00    -0.010 C 
ATOM     13  H   UNL     1       1.848  -6.840  -6.924  0.00  0.00    -0.086 HD
ATOM     14  H   UNL     1       3.244  -6.120  -7.418  0.00  0.00    -0.086 HD
ENDROOT
BRANCH   5  15
ATOM     15  C   UNL     1      -0.910  -5.295  -3.511  0.00  0.00    +0.218 C 
ATOM     16  O   UNL     1      -1.278  -4.146  -3.390  0.00  0.00    -0.275 OA
ATOM     17  N   UNL     1      -1.707  -6.198  -4.117  0.00  0.00    -0.315 N 
ATOM     18  H   UNL     1      -1.413  -7.117  -4.213  0.00  0.00    +0.149 HD
BRANCH  17  19
ATOM     19  C   UNL     1      -3.018  -5.791  -4.629  0.00  0.00    +0.109 C 
BRANCH  19  20
ATOM     20  C   UNL     1      -3.713  -6.996  -5.265  0.00  0.00    +0.056 C 
BRANCH  20  21
ATOM     21  C   UNL     1      -5.062  -6.578  -5.792  0.00  0.00    -0.021 A 
ATOM     22  C   UNL     1      -5.338  -5.975  -7.098  0.00  0.00    +0.003 A 
ATOM     23  C   UNL     1      -4.544  -5.618  -8.189  0.00  0.00    +0.010 A 
ATOM     24  C   UNL     1      -5.121  -5.060  -9.295  0.00  0.00    +0.001 A 
ATOM     25  C   UNL     1      -6.492  -4.845  -9.342  0.00  0.00    +0.005 A 
ATOM     26  C   UNL     1      -7.294  -5.190  -8.276  0.00  0.00    -0.027 A 
ATOM     27  C   UNL     1      -6.728  -5.760  -7.141  0.00  0.00    +0.050 A 
ATOM     28  N   UNL     1      -7.244  -6.202  -5.944  0.00  0.00    -0.360 N 
ATOM     29  C   UNL     1      -6.238  -6.691  -5.156  0.00  0.00    +0.087 A 
ATOM     30  C   UNL     1      -8.780  -4.950  -8.340  0.00  0.00    +0.046 C 
ATOM     31  H   UNL     1      -8.182  -6.175  -5.698  0.00  0.00    +0.165 HD
ENDBRANCH  20  21
ENDBRANCH  19  20
ENDBRANCH  17  19
ENDBRANCH   5  15
BRANCH   1  32
ATOM     32  C   UNL     1       0.987  -1.873  -1.058  0.00  0.00    +0.072 C 
ATOM     33  C   UNL     1       0.493  -0.470  -1.419  0.00  0.00    +0.017 C 
BRANCH  32  34
ATOM     34  C   UNL     1       1.879  -1.795   0.183  0.00  0.00    +0.012 C 
BRANCH  34  36
ATOM     35  C   UNL     1       1.938  -1.260   2.623  0.00  0.00    +0.004 C 
ATOM     36  C   UNL     1       1.046  -1.338   1.382  0.00  0.00    -0.003 C 
ENDBRANCH  34  36
ENDBRANCH  32  34
ENDBRANCH   1  32
TORSDOF 7
