REMARK  Name = ZINC12497540
REMARK  6 active torsions:
REMARK  status: ('A' for Active; 'I' for Inactive)
REMARK    1  A    between atoms: C_1  and  O_2
REMARK    2  A    between atoms: O_2  and  C_3
REMARK    3  A    between atoms: C_3  and  C_5
REMARK    4  A    between atoms: C_5  and  C_29
REMARK    5  A    between atoms: C_10  and  C_12
REMARK    6  A    between atoms: N_19  and  C_22
REMARK                            x       y       z     vdW  Elec       q    Type
REMARK                         _______ _______ _______ _____ _____    ______ ____
ROOT
ATOM      1  C   UNL     1       5.070   5.916   1.260  0.00  0.00    +0.070 C 
ATOM      2  C   UNL     1       4.393   4.676   0.705  0.00  0.00    +0.090 C 
ATOM      3  C   UNL     1       4.001   5.229  -0.715  0.00  0.00    +0.078 C 
ATOM      4  C   UNL     1       5.237   5.890  -1.156  0.00  0.00    -0.019 C 
ATOM      5  C   UNL     1       3.003   4.287  -1.146  0.00  0.00    +0.229 C 
ATOM      6  O   UNL     1       2.777   3.919  -2.279  0.00  0.00    -0.275 OA
ATOM      7  N   UNL     1       2.358   3.895   0.001  0.00  0.00    -0.207 N 
ATOM      8  C   UNL     1       3.018   4.277   1.135  0.00  0.00    +0.230 C 
ATOM      9  O   UNL     1       2.576   4.291   2.264  0.00  0.00    -0.275 OA
ATOM     10  N   UNL     1       5.682   6.594   0.087  0.00  0.00    +0.398 N 
ATOM     11  H   UNL     1       6.706   6.554   0.160  0.00  0.00    -0.083 HD
ATOM     12  H   UNL     1       5.380   7.574   0.057  0.00  0.00    -0.083 HD
ENDROOT
BRANCH   7  13
ATOM     13  C   UNL     1       1.155   3.173   0.008  0.00  0.00    +0.079 A 
ATOM     14  C   UNL     1      -0.059   3.846   0.023  0.00  0.00    +0.027 A 
ATOM     15  C   UNL     1      -1.242   3.133   0.031  0.00  0.00    +0.002 A 
ATOM     16  C   UNL     1      -1.219   1.750   0.017  0.00  0.00    +0.003 A 
ATOM     17  C   UNL     1      -0.013   1.076   0.008  0.00  0.00    +0.040 A 
ATOM     18  C   UNL     1       1.176   1.783   0.000  0.00  0.00    +0.145 A 
ATOM     19  F   UNL     1       2.356   1.125  -0.015  0.00  0.00    -0.204 F 
ENDBRANCH   7  13
BRANCH   1  20
ATOM     20  C   UNL     1       6.133   5.527   2.255  0.00  0.00    -0.047 A 
ATOM     21  C   UNL     1       5.990   4.373   3.004  0.00  0.00    +0.003 A 
ATOM     22  C   UNL     1       6.967   4.013   3.913  0.00  0.00    +0.000 A 
ATOM     23  C   UNL     1       8.082   4.812   4.081  0.00  0.00    +0.000 A 
ATOM     24  C   UNL     1       8.223   5.969   3.337  0.00  0.00    +0.000 A 
ATOM     25  C   UNL     1       7.248   6.326   2.424  0.00  0.00    +0.003 A 
ENDBRANCH   1  20
BRANCH   4  26
ATOM     26  C   UNL     1       4.951   6.873  -2.262  0.00  0.00    -0.023 A 
ATOM     27  C   UNL     1       5.207   6.763  -3.589  0.00  0.00    +0.009 A 
ATOM     28  C   UNL     1       4.853   7.803  -4.428  0.00  0.00    +0.008 A 
ATOM     29  C   UNL     1       4.261   8.902  -3.899  0.00  0.00    +0.045 A 
ATOM     30  S   UNL     1       4.182   8.481  -2.166  0.00  0.00    -0.103 S 
ENDBRANCH   4  26
BRANCH   1  31
ATOM     31  C   UNL     1       4.052   6.816   1.912  0.00  0.00    +0.301 C 
ATOM     32  O   UNL     1       3.021   6.352   2.339  0.00  0.00    -0.252 OA
BRANCH  31  34
ATOM     33  C   UNL     1       3.265   8.938   2.656  0.00  0.00    +0.280 C 
ATOM     34  O   UNL     1       4.290   8.133   2.017  0.00  0.00    -0.469 OA
ENDBRANCH  31  34
ENDBRANCH   1  31
TORSDOF 5
