REMARK  Name = ZINC39605351
REMARK  10 active torsions:
REMARK  status: ('A' for Active; 'I' for Inactive)
REMARK    1  A    between atoms: C_1  and  O_2
REMARK    2  A    between atoms: O_2  and  C_3
REMARK    3  A    between atoms: C_6  and  C_11
REMARK    4  A    between atoms: C_7  and  O_9
REMARK    5  A    between atoms: O_9  and  C_10
REMARK    6  A    between atoms: C_15  and  C_24
REMARK    7  A    between atoms: N_26  and  C_27
REMARK    8  A    between atoms: C_27  and  C_28
REMARK    9  A    between atoms: C_28  and  C_29
REMARK   10  A    between atoms: C_29  and  O_30
REMARK                            x       y       z     vdW  Elec       q    Type
REMARK                         _______ _______ _______ _____ _____    ______ ____
ROOT
ATOM      1  C   UNL     1      -5.167  -2.821  -0.061  0.00  0.00    +0.250 C 
ATOM      2  O   UNL     1      -5.323  -4.022  -0.176  0.00  0.00    -0.270 OA
ATOM      3  N   UNL     1      -6.236  -2.014   0.086  0.00  0.00    -0.296 N 
ATOM      4  C   UNL     1      -6.255  -0.533   0.132  0.00  0.00    +0.121 C 
ATOM      5  C   UNL     1      -7.517  -0.134  -0.665  0.00  0.00    +0.100 C 
ATOM      6  C   UNL     1      -8.434  -1.367  -0.591  0.00  0.00    -0.004 C 
ATOM      7  C   UNL     1      -7.658  -2.406   0.231  0.00  0.00    +0.115 C 
ATOM      8  C   UNL     1      -9.743  -1.010   0.106  0.00  0.00    -0.010 C 
ATOM      9  C   UNL     1     -10.661  -2.236   0.117  0.00  0.00    -0.082 C 
ATOM     10  N   UNL     1     -10.920  -2.667  -1.262  0.00  0.00    +0.379 N 
ATOM     11  C   UNL     1      -9.667  -3.096  -1.897  0.00  0.00    -0.082 C 
ATOM     12  C   UNL     1      -8.708  -1.907  -1.992  0.00  0.00    -0.010 C 
ATOM     13  H   UNL     1     -11.573  -3.437  -1.256  0.00  0.00    -0.086 HD
ATOM     14  H   UNL     1     -11.314  -1.899  -1.785  0.00  0.00    -0.086 HD
ENDROOT
BRANCH   1  18
ATOM     15  C   UNL     1      -1.252  -1.173  -0.123  0.00  0.00    +0.124 A 
ATOM     16  C   UNL     1      -2.237  -0.600   0.676  0.00  0.00    +0.046 A 
ATOM     17  C   UNL     1      -3.506  -1.131   0.699  0.00  0.00    +0.020 A 
ATOM     18  C   UNL     1      -3.809  -2.250  -0.083  0.00  0.00    +0.079 A 
ATOM     19  C   UNL     1      -2.815  -2.826  -0.888  0.00  0.00    +0.136 A 
ATOM     20  C   UNL     1      -1.543  -2.280  -0.906  0.00  0.00    +0.092 A 
BRANCH  15  22
ATOM     21  C   UNL     1       0.230   0.496   0.691  0.00  0.00    +0.277 C 
ATOM     22  O   UNL     1      -0.003  -0.643  -0.139  0.00  0.00    -0.495 OA
ENDBRANCH  15  22
BRANCH  19  23
ATOM     23  O   UNL     1      -3.101  -3.912  -1.649  0.00  0.00    -0.494 OA
ATOM     24  C   UNL     1      -2.039  -4.445  -2.443  0.00  0.00    +0.277 C 
ENDBRANCH  19  23
ENDBRANCH   1  18
BRANCH   5  25
ATOM     25  C   UNL     1      -7.159   0.171  -2.097  0.00  0.00    +0.218 C 
ATOM     26  O   UNL     1      -6.221  -0.392  -2.620  0.00  0.00    -0.275 OA
ATOM     27  N   UNL     1      -7.881   1.069  -2.796  0.00  0.00    -0.315 N 
ATOM     28  H   UNL     1      -8.632   1.519  -2.378  0.00  0.00    +0.149 HD
BRANCH  27  29
ATOM     29  C   UNL     1      -7.533   1.365  -4.188  0.00  0.00    +0.106 C 
BRANCH  29  30
ATOM     30  C   UNL     1      -8.503   2.409  -4.745  0.00  0.00    +0.046 C 
BRANCH  30  31
ATOM     31  C   UNL     1      -8.139   2.719  -6.199  0.00  0.00    +0.157 C 
BRANCH  31  32
ATOM     32  O   UNL     1      -9.044   3.694  -6.719  0.00  0.00    -0.395 OA
ATOM     33  H   UNL     1      -8.873   3.939  -7.639  0.00  0.00    +0.209 HD
ENDBRANCH  31  32
ENDBRANCH  30  31
ENDBRANCH  29  30
ENDBRANCH  27  29
ENDBRANCH   5  25
TORSDOF 8
