REMARK  Name = ZINC37663454
REMARK  7 active torsions:
REMARK  status: ('A' for Active; 'I' for Inactive)
REMARK    1  A    between atoms: C_6  and  C_7
REMARK    2  A    between atoms: C_7  and  C_8
REMARK    3  A    between atoms: C_8  and  S_9
REMARK    4  A    between atoms: S_9  and  N_12
REMARK    5  A    between atoms: N_12  and  C_13
REMARK    6  A    between atoms: C_13  and  C_14
REMARK    7  A    between atoms: C_14  and  N_21
REMARK                            x       y       z     vdW  Elec       q    Type
REMARK                         _______ _______ _______ _____ _____    ______ ____
ROOT
ATOM      1  N   UNL     1      -3.667  -3.240  -2.730  0.00  0.00    -0.196 NA
ATOM      2  H   UNL     1      -4.620  -3.350  -2.869  0.00  0.00    +0.148 HD
ENDROOT
BRANCH   1   3
ATOM      3  S   UNL     1      -3.041  -3.302  -1.198  0.00  0.00    +0.030 S 
ATOM      4  O   UNL     1      -1.975  -4.238  -1.280  0.00  0.00    -0.158 OA
ATOM      5  O   UNL     1      -4.160  -3.550  -0.359  0.00  0.00    -0.158 OA
BRANCH   3   6
ATOM      6  C   UNL     1      -2.388  -1.637  -0.894  0.00  0.00    +0.189 C 
BRANCH   6   7
ATOM      7  C   UNL     1      -1.778  -1.577   0.508  0.00  0.00    +0.059 C 
BRANCH   7  13
ATOM      8  C   UNL     1      -2.035   0.789   1.325  0.00  0.00    +0.023 A 
ATOM      9  C   UNL     1      -1.503   2.046   1.542  0.00  0.00    +0.111 A 
ATOM     10  N   UNL     1      -0.252   2.314   1.221  0.00  0.00    -0.263 NA
ATOM     11  C   UNL     1       0.536   1.404   0.683  0.00  0.00    +0.111 A 
ATOM     12  C   UNL     1       0.074   0.125   0.437  0.00  0.00    +0.023 A 
ATOM     13  C   UNL     1      -1.236  -0.194   0.761  0.00  0.00    -0.043 A 
ENDBRANCH   7  13
ENDBRANCH   6   7
ENDBRANCH   3   6
ENDBRANCH   1   3
BRANCH   1  14
ATOM     14  C   UNL     1      -2.780  -3.019  -3.875  0.00  0.00    +0.092 C 
BRANCH  14  15
ATOM     15  C   UNL     1      -3.519  -3.372  -5.168  0.00  0.00    -0.057 C 
ATOM     16  C   UNL     1      -2.615  -4.176  -6.063  0.00  0.00    -0.012 C 
ATOM     17  C   UNL     1      -1.123  -3.903  -5.793  0.00  0.00    -0.001 C 
ATOM     18  C   UNL     1      -0.820  -2.410  -5.567  0.00  0.00    -0.000 C 
ATOM     19  C   UNL     1      -1.567  -1.519  -6.523  0.00  0.00    -0.000 C 
ATOM     20  C   UNL     1      -2.875  -1.062  -5.846  0.00  0.00    -0.001 C 
ATOM     21  C   UNL     1      -3.916  -2.078  -5.908  0.00  0.00    -0.012 C 
BRANCH  15  22
ATOM     22  N   UNL     1      -4.724  -4.148  -4.851  0.00  0.00    +0.383 N 
ATOM     23  H   UNL     1      -5.330  -3.602  -4.257  0.00  0.00    -0.089 HD
ATOM     24  H   UNL     1      -5.210  -4.380  -5.705  0.00  0.00    -0.089 HD
ATOM     25  H   UNL     1      -4.462  -4.997  -4.373  0.00  0.00    -0.089 HD
ENDBRANCH  15  22
ENDBRANCH  14  15
ENDBRANCH   1  14
TORSDOF 7
