REMARK  Name = ZINC05137204
REMARK  4 active torsions:
REMARK  status: ('A' for Active; 'I' for Inactive)
REMARK    1  A    between atoms: C_1  and  O_2
REMARK    2  A    between atoms: O_2  and  C_3
REMARK    3  A    between atoms: C_6  and  C_9
REMARK    4  A    between atoms: C_14  and  C_24
REMARK                            x       y       z     vdW  Elec       q    Type
REMARK                         _______ _______ _______ _____ _____    ______ ____
ROOT
ATOM      1  C   UNL     1       0.002  -0.004   0.002  0.00  0.00    +0.032 C 
ATOM      2  C   UNL     1       0.819  -0.464   1.208  0.00  0.00    +0.059 C 
ATOM      3  C   UNL     1       2.233   0.083   1.116  0.00  0.00    +0.017 C 
ATOM      4  C   UNL     1       2.466   1.275   0.541  0.00  0.00    +0.038 C 
ATOM      5  C   UNL     1       3.815   1.936   0.387  0.00  0.00    +0.155 C 
ATOM      6  N   UNL     1       4.879   1.314   1.146  0.00  0.00    -0.330 N 
ATOM      7  C   UNL     1       5.299   0.015   0.863  0.00  0.00    +0.049 A 
ATOM      8  C   UNL     1       6.553  -0.240   0.331  0.00  0.00    +0.025 A 
ATOM      9  C   UNL     1       6.884  -1.531  -0.040  0.00  0.00    +0.002 A 
ATOM     10  C   UNL     1       5.974  -2.561   0.119  0.00  0.00    +0.002 A 
ATOM     11  C   UNL     1       4.728  -2.312   0.670  0.00  0.00    +0.025 A 
ATOM     12  C   UNL     1       4.402  -1.024   1.058  0.00  0.00    +0.052 A 
ATOM     13  N   UNL     1       3.188  -0.713   1.660  0.00  0.00    -0.316 N 
ATOM     14  C   UNL     1       1.396   2.026  -0.000  0.00  0.00    +0.163 C 
ATOM     15  O   UNL     1       1.632   3.112  -0.492  0.00  0.00    -0.292 OA
ATOM     16  C   UNL     1      -0.019   1.529   0.010  0.00  0.00    +0.088 C 
ATOM     17  H   UNL     1       5.370   1.867   1.960  0.00  0.00    +0.147 HD
ATOM     18  H   UNL     1       3.029  -1.165   2.650  0.00  0.00    +0.152 HD
ENDROOT
BRANCH   1  22
ATOM     19  C   UNL     1      -3.987  -1.508   0.289  0.00  0.00    +0.120 A 
ATOM     20  C   UNL     1      -3.205  -1.821  -0.812  0.00  0.00    +0.046 A 
ATOM     21  C   UNL     1      -1.915  -1.333  -0.903  0.00  0.00    +0.007 A 
ATOM     22  C   UNL     1      -1.405  -0.534   0.103  0.00  0.00    -0.043 A 
ATOM     23  C   UNL     1      -2.181  -0.226   1.205  0.00  0.00    +0.007 A 
ATOM     24  C   UNL     1      -3.473  -0.706   1.298  0.00  0.00    +0.046 A 
BRANCH  19  26
ATOM     25  C   UNL     1      -6.004  -1.624   1.543  0.00  0.00    +0.277 C 
ATOM     26  O   UNL     1      -5.256  -1.986   0.381  0.00  0.00    -0.495 OA
ENDBRANCH  19  26
ENDBRANCH   1  22
BRANCH   5  27
ATOM     27  C   UNL     1       4.191   1.911  -1.072  0.00  0.00    +0.066 A 
ATOM     28  C   UNL     1       4.408   3.100  -1.742  0.00  0.00    +0.025 A 
ATOM     29  C   UNL     1       4.759   3.066  -3.083  0.00  0.00    +0.003 A 
ATOM     30  C   UNL     1       4.869   1.832  -3.705  0.00  0.00    +0.020 A 
ATOM     31  C   UNL     1       4.632   0.685  -2.972  0.00  0.00    +0.111 A 
ATOM     32  N   UNL     1       4.305   0.755  -1.696  0.00  0.00    -0.258 NA
ENDBRANCH   5  27
TORSDOF 3
