REMARK  Name = ZINC20611539
REMARK  7 active torsions:
REMARK  status: ('A' for Active; 'I' for Inactive)
REMARK    1  A    between atoms: C_1  and  C_2
REMARK    2  A    between atoms: C_2  and  O_3
REMARK    3  A    between atoms: O_3  and  C_4
REMARK    4  A    between atoms: C_4  and  C_6
REMARK    5  A    between atoms: C_9  and  N_12
REMARK    6  A    between atoms: C_17  and  C_35
REMARK    7  A    between atoms: C_35  and  C_36
REMARK                            x       y       z     vdW  Elec       q    Type
REMARK                         _______ _______ _______ _____ _____    ______ ____
ROOT
ATOM      1  N   UNL     1      -6.683  -4.065   0.045  0.00  0.00    -0.210 N 
ATOM      2  C   UNL     1      -7.789  -3.320   0.147  0.00  0.00    +0.232 C 
ATOM      3  O   UNL     1      -7.814  -2.112   0.241  0.00  0.00    -0.274 OA
ATOM      4  C   UNL     1      -9.004  -4.220   0.127  0.00  0.00    +0.108 C 
ATOM      5  C   UNL     1      -9.676  -4.194   1.517  0.00  0.00    +0.076 C 
ATOM      6  N   UNL     1      -9.956  -5.621   1.830  0.00  0.00    -0.295 NA
ATOM      7  C   UNL     1      -8.775  -6.341   1.317  0.00  0.00    +0.136 C 
ATOM      8  C   UNL     1      -8.394  -5.642  -0.011  0.00  0.00    +0.123 C 
ATOM      9  C   UNL     1      -6.905  -5.380  -0.053  0.00  0.00    +0.233 C 
ATOM     10  O   UNL     1      -6.047  -6.230  -0.156  0.00  0.00    -0.274 OA
ATOM     11  C   UNL     1      -7.645  -6.321   2.307  0.00  0.00    +0.005 A 
ATOM     12  C   UNL     1      -6.927  -5.309   2.905  0.00  0.00    +0.027 A 
ATOM     13  C   UNL     1      -5.917  -5.614   3.802  0.00  0.00    +0.041 A 
ATOM     14  C   UNL     1      -5.633  -6.936   4.095  0.00  0.00    +0.022 A 
ATOM     15  C   UNL     1      -6.349  -7.951   3.497  0.00  0.00    +0.025 A 
ATOM     16  C   UNL     1      -7.367  -7.654   2.594  0.00  0.00    +0.039 A 
ATOM     17  N   UNL     1      -8.219  -8.492   1.870  0.00  0.00    -0.283 N 
ATOM     18  C   UNL     1      -9.076  -7.799   1.097  0.00  0.00    +0.243 C 
ATOM     19  O   UNL     1      -9.926  -8.260   0.364  0.00  0.00    -0.273 OA
ATOM     20 CL   UNL     1      -5.011  -4.340   4.557  0.00  0.00    -0.084 Cl
ATOM     21  H   UNL     1     -10.059  -5.759   2.825  0.00  0.00    +0.124 HD
ATOM     22  H   UNL     1      -8.195  -9.460   1.919  0.00  0.00    +0.155 HD
ENDROOT
BRANCH   1  26
ATOM     23  C   UNL     1      -2.852  -2.420   0.016  0.00  0.00    +0.059 A 
ATOM     24  C   UNL     1      -3.638  -2.345   1.169  0.00  0.00    +0.017 A 
ATOM     25  C   UNL     1      -4.903  -2.889   1.175  0.00  0.00    +0.025 A 
ATOM     26  C   UNL     1      -5.398  -3.513   0.035  0.00  0.00    +0.044 A 
ATOM     27  C   UNL     1      -4.619  -3.590  -1.115  0.00  0.00    +0.025 A 
ATOM     28  C   UNL     1      -3.356  -3.042  -1.130  0.00  0.00    +0.017 A 
BRANCH  23  29
ATOM     29  C   UNL     1      -1.496  -1.838   0.005  0.00  0.00    +0.339 C 
ATOM     30  O   UNL     1      -0.816  -1.900  -1.000  0.00  0.00    -0.245 OA
BRANCH  29  31
ATOM     31  O   UNL     1      -1.012  -1.238   1.111  0.00  0.00    -0.461 OA
BRANCH  31  33
ATOM     32  C   UNL     1       0.681  -0.061   2.370  0.00  0.00    +0.048 C 
ATOM     33  C   UNL     1       0.307  -0.697   1.030  0.00  0.00    +0.229 C 
ENDBRANCH  31  33
ENDBRANCH  29  31
ENDBRANCH  23  29
ENDBRANCH   1  26
BRANCH   5  34
ATOM     34  C   UNL     1     -10.978  -3.393   1.465  0.00  0.00    +0.115 C 
BRANCH  34  35
ATOM     35  C   UNL     1     -11.552  -3.277   2.853  0.00  0.00    +0.212 C 
ATOM     36  O   UNL     1     -10.977  -3.785   3.792  0.00  0.00    -0.276 OA
ATOM     37  N   UNL     1     -12.706  -2.608   3.051  0.00  0.00    -0.329 N 
ATOM     38  H   UNL     1     -13.166  -2.201   2.301  0.00  0.00    +0.145 HD
ATOM     39  H   UNL     1     -13.075  -2.533   3.945  0.00  0.00    +0.145 HD
ENDBRANCH  34  35
ENDBRANCH   5  34
TORSDOF 6
