REMARK  Name = ZINC39007440
REMARK  10 active torsions:
REMARK  status: ('A' for Active; 'I' for Inactive)
REMARK    1  A    between atoms: C_1  and  C_2
REMARK    2  A    between atoms: C_5  and  C_8
REMARK    3  A    between atoms: C_10  and  C_14
REMARK    4  A    between atoms: C_18  and  S_22
REMARK    5  A    between atoms: N_20  and  N_21
REMARK    6  A    between atoms: S_22  and  C_23
REMARK    7  A    between atoms: C_23  and  C_24
REMARK    8  A    between atoms: N_26  and  C_27
REMARK    9  A    between atoms: C_30  and  C_34
REMARK   10  A    between atoms: C_32  and  C_33
REMARK                            x       y       z     vdW  Elec       q    Type
REMARK                         _______ _______ _______ _____ _____    ______ ____
ROOT
ATOM      1  C   UNL     1       1.398  -7.157   0.977  0.00  0.00    +0.185 C 
ATOM      2  N   UNL     1       2.609  -6.514   0.403  0.00  0.00    -0.234 NA
ATOM      3  N   UNL     1       3.615  -7.579   0.381  0.00  0.00    -0.228 NA
ATOM      4  C   UNL     1       2.881  -8.861   0.369  0.00  0.00    +0.214 C 
ATOM      5  N   UNL     1       1.437  -8.524   0.393  0.00  0.00    -0.197 NA
ATOM      6  H   UNL     1       2.428  -6.169  -0.528  0.00  0.00    +0.143 HD
ATOM      7  H   UNL     1       4.223  -7.519   1.184  0.00  0.00    +0.143 HD
ENDROOT
BRANCH   1  10
ATOM      8  C   UNL     1       0.111  -4.229  -0.018  0.00  0.00    +0.091 C 
ATOM      9  C   UNL     1       0.124  -5.000   1.086  0.00  0.00    +0.034 C 
ATOM     10  C   UNL     1       0.133  -6.417   0.539  0.00  0.00    +0.187 C 
ATOM     11  N   UNL     1       0.123  -6.214  -0.919  0.00  0.00    -0.176 NA
ATOM     12  N   UNL     1       0.105  -5.000  -1.137  0.00  0.00    -0.154 NA
BRANCH   8  17
ATOM     13  C   UNL     1       0.063   1.530  -0.002  0.00  0.00    +0.044 C 
ATOM     14  C   UNL     1       0.075   0.024  -0.006  0.00  0.00    -0.050 A 
ATOM     15  C   UNL     1       0.069  -0.662  -1.207  0.00  0.00    +0.004 A 
ATOM     16  C   UNL     1       0.081  -2.042  -1.217  0.00  0.00    +0.010 A 
ATOM     17  C   UNL     1       0.099  -2.745  -0.014  0.00  0.00    +0.002 A 
ATOM     18  C   UNL     1       0.106  -2.049   1.193  0.00  0.00    +0.010 A 
ATOM     19  C   UNL     1       0.099  -0.669   1.191  0.00  0.00    +0.004 A 
ENDBRANCH   8  17
ENDBRANCH   1  10
BRANCH   5  20
ATOM     20  N   UNL     1       0.692  -9.463   1.216  0.00  0.00    -0.264 NA
ATOM     21  H   UNL     1       0.719 -10.391   0.820  0.00  0.00    +0.137 HD
ATOM     22  H   UNL     1       1.037  -9.465   2.165  0.00  0.00    +0.137 HD
ENDBRANCH   5  20
BRANCH   4  23
ATOM     23  S   UNL     1       3.281  -9.792  -1.136  0.00  0.00    -0.115 S 
BRANCH  23  24
ATOM     24  C   UNL     1       2.794  -8.678  -2.483  0.00  0.00    +0.168 C 
BRANCH  24  25
ATOM     25  C   UNL     1       3.077  -9.339  -3.808  0.00  0.00    +0.227 C 
ATOM     26  O   UNL     1       3.560 -10.451  -3.840  0.00  0.00    -0.275 OA
ATOM     27  N   UNL     1       2.793  -8.694  -4.956  0.00  0.00    -0.285 N 
ATOM     28  H   UNL     1       2.334  -7.840  -4.932  0.00  0.00    +0.155 HD
BRANCH  27  29
ATOM     29  C   UNL     1       3.161  -9.256  -6.184  0.00  0.00    +0.036 A 
ATOM     30  C   UNL     1       4.219 -10.153  -6.249  0.00  0.00    +0.024 A 
ATOM     31  C   UNL     1       4.580 -10.706  -7.462  0.00  0.00    +0.005 A 
ATOM     32  C   UNL     1       3.889 -10.367  -8.611  0.00  0.00    -0.050 A 
ATOM     33  C   UNL     1       2.835  -9.474  -8.549  0.00  0.00    +0.008 A 
ATOM     34  C   UNL     1       2.465  -8.922  -7.338  0.00  0.00    -0.029 A 
ATOM     35  C   UNL     1       1.312  -7.954  -7.271  0.00  0.00    +0.045 C 
ATOM     36  C   UNL     1       4.285 -10.972  -9.933  0.00  0.00    +0.044 C 
ENDBRANCH  27  29
ENDBRANCH  24  25
ENDBRANCH  23  24
ENDBRANCH   4  23
TORSDOF 7
