REMARK  Name = ZINC12375038
REMARK  5 active torsions:
REMARK  status: ('A' for Active; 'I' for Inactive)
REMARK    1  A    between atoms: C_6  and  C_7
REMARK    2  A    between atoms: C_13  and  C_30
REMARK    3  A    between atoms: C_14  and  C_21
REMARK    4  A    between atoms: C_16  and  C_19
REMARK    5  A    between atoms: C_17  and  N_18
REMARK                            x       y       z     vdW  Elec       q    Type
REMARK                         _______ _______ _______ _____ _____    ______ ____
ROOT
ATOM      1  C   UNL     1       9.929   6.242  -1.453  0.00  0.00    +0.028 C 
ATOM      2  C   UNL     1       8.732   5.635  -1.247  0.00  0.00    +0.079 A 
ATOM      3  C   UNL     1       8.377   4.572  -0.301  0.00  0.00    +0.271 A 
ATOM      4  O   UNL     1       9.213   4.103   0.450  0.00  0.00    -0.266 OA
ATOM      5  N   UNL     1       7.105   4.126  -0.283  0.00  0.00    -0.257 N 
ATOM      6  C   UNL     1       6.212   4.702  -1.162  0.00  0.00    +0.099 A 
ATOM      7  C   UNL     1       4.901   4.358  -1.258  0.00  0.00    +0.057 C 
ATOM      8  C   UNL     1       4.374   3.270  -0.344  0.00  0.00    +0.100 C 
ATOM      9  C   UNL     1       5.386   2.663   0.606  0.00  0.00    +0.079 C 
ATOM     10  C   UNL     1       6.659   3.117   0.579  0.00  0.00    +0.118 C 
ATOM     11  S   UNL     1       7.165   5.914  -2.055  0.00  0.00    -0.065 S 
ENDROOT
BRANCH   1  17
ATOM     12  C   UNL     1      10.834   5.892   0.835  0.00  0.00    +0.012 A 
ATOM     13  C   UNL     1      11.889   5.639   1.684  0.00  0.00    +0.050 A 
ATOM     14  C   UNL     1      13.172   5.479   1.177  0.00  0.00    +0.166 A 
ATOM     15  C   UNL     1      13.398   5.569  -0.198  0.00  0.00    +0.167 A 
ATOM     16  C   UNL     1      12.346   5.816  -1.056  0.00  0.00    +0.057 A 
ATOM     17  C   UNL     1      11.052   5.978  -0.545  0.00  0.00    -0.020 A 
ATOM     18  O   UNL     1      14.729   5.377  -0.434  0.00  0.00    -0.453 OA
ATOM     19  C   UNL     1      15.377   5.577   0.837  0.00  0.00    +0.466 C 
ATOM     20  O   UNL     1      14.362   5.231   1.797  0.00  0.00    -0.453 OA
ENDBRANCH   1  17
BRANCH   8  21
ATOM     21  C   UNL     1       3.811   2.166  -1.201  0.00  0.00    -0.031 A 
ATOM     22  C   UNL     1       4.651   1.422  -2.008  0.00  0.00    +0.008 A 
ATOM     23  C   UNL     1       4.138   0.408  -2.797  0.00  0.00    +0.050 A 
ATOM     24  C   UNL     1       2.780   0.135  -2.779  0.00  0.00    +0.166 A 
ATOM     25  C   UNL     1       1.934   0.885  -1.965  0.00  0.00    +0.167 A 
ATOM     26  C   UNL     1       2.454   1.899  -1.178  0.00  0.00    +0.054 A 
ATOM     27  O   UNL     1       0.658   0.426  -2.124  0.00  0.00    -0.453 OA
ATOM     28  C   UNL     1       0.789  -0.873  -2.730  0.00  0.00    +0.466 C 
ATOM     29  O   UNL     1       2.035  -0.792  -3.447  0.00  0.00    -0.453 OA
ENDBRANCH   8  21
BRANCH   7  30
ATOM     30  C   UNL     1       4.055   4.994  -2.182  0.00  0.00    +0.241 C 
ATOM     31  O   UNL     1       4.495   5.868  -2.909  0.00  0.00    -0.271 OA
ATOM     32  N   UNL     1       2.758   4.639  -2.263  0.00  0.00    -0.326 N 
ATOM     33  H   UNL     1       2.408   3.944  -1.684  0.00  0.00    +0.145 HD
ATOM     34  H   UNL     1       2.174   5.078  -2.901  0.00  0.00    +0.145 HD
ENDBRANCH   7  30
BRANCH  10  35
ATOM     35  N   UNL     1       7.565   2.556   1.446  0.00  0.00    -0.343 N 
ATOM     36  H   UNL     1       7.425   1.656   1.778  0.00  0.00    +0.144 HD
ATOM     37  H   UNL     1       8.345   3.061   1.724  0.00  0.00    +0.144 HD
ENDBRANCH  10  35
BRANCH   9  38
ATOM     38  C   UNL     1       5.002   1.626   1.516  0.00  0.00    +0.099 C 
ATOM     39  N   UNL     1       4.697   0.804   2.238  0.00  0.00    -0.191 NA
ENDBRANCH   9  38
TORSDOF 5
