REMARK  Name = ZINC51036439
REMARK  6 active torsions:
REMARK  status: ('A' for Active; 'I' for Inactive)
REMARK    1  A    between atoms: C_3  and  C_21
REMARK    2  A    between atoms: C_5  and  O_7
REMARK    3  A    between atoms: O_7  and  C_8
REMARK    4  A    between atoms: C_8  and  C_9
REMARK    5  A    between atoms: C_9  and  S_10
REMARK    6  A    between atoms: S_10  and  C_11
REMARK                            x       y       z     vdW  Elec       q    Type
REMARK                         _______ _______ _______ _____ _____    ______ ____
ROOT
ATOM      1  C   UNL     1       0.169  -4.221  -0.022  0.00  0.00    +0.117 C 
ENDROOT
BRANCH   1   2
ATOM      2  C   UNL     1      -0.044  -2.706  -0.012  0.00  0.00    +0.240 C 
BRANCH   2   3
ATOM      3  O   UNL     1       1.223  -2.046  -0.021  0.00  0.00    -0.491 OA
BRANCH   3   8
ATOM      4  C   UNL     1      -0.017   1.378   0.010  0.00  0.00    +0.005 A 
ATOM      5  C   UNL     1       1.166   2.089   0.002  0.00  0.00    +0.019 A 
ATOM      6  C   UNL     1       2.387   1.411  -0.013  0.00  0.00    +0.055 A 
ATOM      7  C   UNL     1       2.404   0.015  -0.021  0.00  0.00    +0.064 A 
ATOM      8  C   UNL     1       1.211  -0.687  -0.013  0.00  0.00    +0.122 A 
ATOM      9  C   UNL     1       0.002  -0.004   0.002  0.00  0.00    +0.046 A 
BRANCH   6  10
ATOM     10  C   UNL     1       3.616   2.145  -0.021  0.00  0.00    +0.099 C 
ATOM     11  N   UNL     1       4.592   2.727  -0.028  0.00  0.00    -0.191 NA
ENDBRANCH   6  10
ENDBRANCH   3   8
ENDBRANCH   2   3
ENDBRANCH   1   2
BRANCH   1  12
ATOM     12  S   UNL     1      -1.439  -5.059  -0.011  0.00  0.00    -0.100 S 
BRANCH  12  13
ATOM     13  C   UNL     1      -1.028  -6.772  -0.024  0.00  0.00    +0.126 A 
ATOM     14  C   UNL     1      -2.028  -7.747  -0.026  0.00  0.00    +0.117 A 
ATOM     15  C   UNL     1      -1.650  -9.099  -0.037  0.00  0.00    +0.182 A 
ATOM     16  N   UNL     1      -2.786  -9.822  -0.036  0.00  0.00    -0.216 NA
ATOM     17  H   UNL     1      -3.976  -6.950  -0.011  0.00  0.00    +0.167 HD
ATOM     18  C   UNL     1      -3.817  -9.024  -0.025  0.00  0.00    +0.199 A 
ATOM     19  N   UNL     1      -3.407  -7.736  -0.019  0.00  0.00    -0.341 N 
ATOM     20  N   UNL     1      -0.347  -9.401  -0.045  0.00  0.00    -0.214 NA
ATOM     21  C   UNL     1       0.560  -8.449  -0.044  0.00  0.00    +0.224 A 
ATOM     22  N   UNL     1       0.243  -7.167  -0.038  0.00  0.00    -0.227 NA
ENDBRANCH  12  13
ENDBRANCH   1  12
TORSDOF 6
