REMARK  Name = ZINC06448136
REMARK  7 active torsions:
REMARK  status: ('A' for Active; 'I' for Inactive)
REMARK    1  A    between atoms: C_6  and  C_7
REMARK    2  A    between atoms: C_7  and  C_8
REMARK    3  A    between atoms: C_8  and  N_9
REMARK    4  A    between atoms: C_12  and  C_13
REMARK    5  A    between atoms: N_14  and  C_15
REMARK    6  A    between atoms: C_21  and  N_50
REMARK    7  A    between atoms: C_23  and  O_27
REMARK                            x       y       z     vdW  Elec       q    Type
REMARK                         _______ _______ _______ _____ _____    ______ ____
ROOT
ATOM      1  N   UNL     1       1.237  -4.154  -1.461  0.00  0.00    -0.223 N 
ATOM      2  C   UNL     1       2.421  -4.803  -1.477  0.00  0.00    +0.240 C 
ATOM      3  O   UNL     1       3.474  -4.191  -1.467  0.00  0.00    -0.274 OA
ATOM      4  C   UNL     1       2.398  -6.277  -1.502  0.00  0.00    +0.199 C 
ATOM      5  C   UNL     1       1.079  -6.923  -1.518  0.00  0.00    +0.198 C 
ATOM      6  N   UNL     1       0.000  -6.156  -1.504  0.00  0.00    -0.131 NA
ATOM      7  C   UNL     1       0.078  -4.828  -1.477  0.00  0.00    +0.335 C 
ATOM      8  O   UNL     1      -0.960  -4.190  -1.465  0.00  0.00    -0.250 OA
ENDROOT
BRANCH   4   9
ATOM      9  C   UNL     1       3.568  -7.020  -1.515  0.00  0.00    +0.100 C 
ATOM     10  N   UNL     1       4.758  -6.400  -1.625  0.00  0.00    -0.293 NA
BRANCH  10  11
ATOM     11  C   UNL     1       5.986  -7.188  -1.752  0.00  0.00    +0.090 C 
ATOM     12  C   UNL     1       6.207  -7.555  -3.221  0.00  0.00    +0.025 C 
ATOM     13  C   UNL     1       7.489  -8.379  -3.354  0.00  0.00    +0.002 C 
ATOM     14  C   UNL     1       8.677  -7.557  -2.850  0.00  0.00    -0.001 C 
ATOM     15  C   UNL     1       8.457  -7.191  -1.381  0.00  0.00    -0.014 C 
ATOM     16  C   UNL     1       7.174  -6.367  -1.248  0.00  0.00    -0.050 C 
BRANCH  16  19
ATOM     17  H   UNL     1       7.734  -5.471   0.519  0.00  0.00    -0.090 HD
ATOM     18  H   UNL     1       6.089  -5.526   0.286  0.00  0.00    -0.090 HD
ATOM     19  N   UNL     1       6.962  -6.038   0.173  0.00  0.00    +0.381 N 
ATOM     20  H   UNL     1       6.913  -6.907   0.717  0.00  0.00    -0.090 HD
ENDBRANCH  16  19
ENDBRANCH  10  11
ENDBRANCH   4   9
BRANCH   5  21
ATOM     21  O   UNL     1       0.969  -8.267  -1.546  0.00  0.00    -0.496 OA
ATOM     22  H   UNL     1       0.057  -8.588  -1.554  0.00  0.00    +0.293 HD
ENDBRANCH   5  21
BRANCH   1  23
ATOM     23  C   UNL     1       1.219  -2.689  -1.431  0.00  0.00    +0.122 C 
BRANCH  23  24
ATOM     24  C   UNL     1       1.209  -2.209   0.021  0.00  0.00    +0.054 C 
BRANCH  24  30
ATOM     25  C   UNL     1      -0.017  -0.027   0.063  0.00  0.00    +0.006 A 
ATOM     26  C   UNL     1      -0.035   1.355   0.091  0.00  0.00    +0.038 A 
ATOM     27  C   UNL     1       1.154   2.062   0.108  0.00  0.00    +0.123 A 
ATOM     28  C   UNL     1       2.362   1.385   0.097  0.00  0.00    +0.038 A 
ATOM     29  C   UNL     1       2.378   0.004   0.069  0.00  0.00    +0.006 A 
ATOM     30  C   UNL     1       1.190  -0.702   0.052  0.00  0.00    -0.046 A 
ATOM     31  F   UNL     1       1.137   3.413   0.135  0.00  0.00    -0.205 F 
ENDBRANCH  24  30
ENDBRANCH  23  24
ENDBRANCH   1  23
TORSDOF 7
