REMARK  Name = ZINC11899740
REMARK  5 active torsions:
REMARK  status: ('A' for Active; 'I' for Inactive)
REMARK    1  A    between atoms: C_6  and  C_7
REMARK    2  A    between atoms: C_7  and  C_10
REMARK    3  A    between atoms: C_10  and  N_11
REMARK    4  A    between atoms: C_12  and  C_14
REMARK    5  A    between atoms: C_19  and  N_20
REMARK                            x       y       z     vdW  Elec       q    Type
REMARK                         _______ _______ _______ _____ _____    ______ ____
ROOT
ATOM      1  N   UNL     1      -1.618   3.720  -0.281  0.00  0.00    -0.310 N 
ATOM      2  C   UNL     1      -2.637   3.868   0.588  0.00  0.00    +0.246 C 
ATOM      3  O   UNL     1      -2.710   4.868   1.276  0.00  0.00    -0.270 OA
ATOM      4  H   UNL     1      -1.560   2.923  -0.830  0.00  0.00    +0.149 HD
ENDROOT
BRANCH   2   5
ATOM      5  C   UNL     1      -3.667   2.814   0.705  0.00  0.00    +0.068 A 
ATOM      6  C   UNL     1      -3.523   1.612   0.009  0.00  0.00    +0.035 A 
ATOM      7  C   UNL     1      -4.486   0.630   0.127  0.00  0.00    +0.042 A 
ATOM      8  C   UNL     1      -5.598   0.840   0.925  0.00  0.00    +0.022 A 
ATOM      9  C   UNL     1      -5.749   2.030   1.612  0.00  0.00    +0.035 A 
ATOM     10  C   UNL     1      -4.791   3.018   1.507  0.00  0.00    +0.138 A 
ATOM     11 CL   UNL     1      -4.305  -0.868  -0.732  0.00  0.00    -0.084 Cl
BRANCH  10  12
ATOM     12  N   UNL     1      -4.955   4.292   2.243  0.00  0.00    +0.057 N 
ATOM     13  O   UNL     1      -5.186   4.279   3.438  0.00  0.00    -0.126 OA
ATOM     14  O   UNL     1      -4.859   5.353   1.652  0.00  0.00    -0.126 OA
ENDBRANCH  10  12
ENDBRANCH   2   5
BRANCH   1  15
ATOM     15  C   UNL     1      -0.597   4.765  -0.397  0.00  0.00    +0.116 C 
BRANCH  15  16
ATOM     16  C   UNL     1       0.401   4.383  -1.492  0.00  0.00    +0.011 C 
ATOM     17  C   UNL     1      -0.002   4.657  -2.942  0.00  0.00    +0.014 C 
ATOM     18  C   UNL     1       1.067   5.521  -2.269  0.00  0.00    +0.014 C 
BRANCH  16  24
ATOM     19  C   UNL     1       0.839   1.932  -1.743  0.00  0.00    +0.007 A 
ATOM     20  C   UNL     1       1.595   0.802  -1.494  0.00  0.00    +0.038 A 
ATOM     21  C   UNL     1       2.739   0.892  -0.720  0.00  0.00    +0.123 A 
ATOM     22  C   UNL     1       3.125   2.114  -0.196  0.00  0.00    +0.038 A 
ATOM     23  C   UNL     1       2.368   3.243  -0.446  0.00  0.00    +0.007 A 
ATOM     24  C   UNL     1       1.226   3.152  -1.219  0.00  0.00    -0.040 A 
ATOM     25  F   UNL     1       3.478  -0.212  -0.476  0.00  0.00    -0.205 F 
ENDBRANCH  16  24
ENDBRANCH  15  16
ENDBRANCH   1  15
TORSDOF 5
