REMARK  Name = ZINC50755430
REMARK  8 active torsions:
REMARK  status: ('A' for Active; 'I' for Inactive)
REMARK    1  A    between atoms: C_1  and  C_2
REMARK    2  A    between atoms: C_2  and  C_4
REMARK    3  A    between atoms: C_2  and  N_7
REMARK    4  A    between atoms: N_7  and  C_8
REMARK    5  A    between atoms: C_9  and  C_11
REMARK    6  A    between atoms: C_13  and  N_20
REMARK    7  A    between atoms: C_14  and  N_18
REMARK    8  A    between atoms: N_18  and  C_19
REMARK                            x       y       z     vdW  Elec       q    Type
REMARK                         _______ _______ _______ _____ _____    ______ ____
ROOT
ATOM      1  C   UNL     1       2.683  -1.659  -2.626  0.00  0.00    +0.041 A 
ATOM      2  C   UNL     1       3.926  -1.032  -2.752  0.00  0.00    +0.047 A 
ATOM      3  C   UNL     1       4.628  -1.129  -3.932  0.00  0.00    +0.149 A 
ATOM      4  C   UNL     1       4.101  -1.849  -5.000  0.00  0.00    +0.076 A 
ATOM      5  C   UNL     1       2.863  -2.474  -4.879  0.00  0.00    +0.065 A 
ATOM      6  C   UNL     1       2.159  -2.387  -3.699  0.00  0.00    +0.035 A 
ATOM      7 CL   UNL     1       2.209  -3.372  -6.214  0.00  0.00    -0.082 Cl
ENDROOT
BRANCH   1  10
ATOM      8  N   UNL     1       2.018  -0.441  -0.612  0.00  0.00    -0.298 N 
ATOM      9  C   UNL     1       2.859   0.674  -1.055  0.00  0.00    +0.132 C 
ATOM     10  C   UNL     1       1.928  -1.557  -1.363  0.00  0.00    +0.247 C 
ATOM     11  O   UNL     1       1.225  -2.480  -0.999  0.00  0.00    -0.270 OA
BRANCH   8  13
ATOM     12  C   UNL     1       2.257  -0.138   1.803  0.00  0.00    +0.028 C 
ATOM     13  C   UNL     1       1.276  -0.344   0.647  0.00  0.00    +0.076 C 
BRANCH  13  14
ATOM     14  C   UNL     1       0.311   0.842   0.580  0.00  0.00    +0.009 C 
ATOM     15  C   UNL     1       0.607   2.045   1.477  0.00  0.00    +0.005 C 
ATOM     16  C   UNL     1      -0.561   1.114   1.807  0.00  0.00    +0.005 C 
ENDBRANCH  13  14
ENDBRANCH   8  13
ENDBRANCH   1  10
BRANCH   4  17
ATOM     17  N   UNL     1       4.813  -1.944  -6.191  0.00  0.00    -0.344 N 
ATOM     18  C   UNL     1       5.495  -3.194  -6.539  0.00  0.00    +0.125 C 
ATOM     19  H   UNL     1       4.859  -1.184  -6.792  0.00  0.00    +0.146 HD
ENDBRANCH   4  17
BRANCH   3  20
ATOM     20  N   UNL     1       5.944  -0.465  -4.066  0.00  0.00    +0.058 N 
ATOM     21  O   UNL     1       6.228   0.464  -3.346  0.00  0.00    -0.126 OA
ATOM     22  O   UNL     1       6.735  -0.852  -4.894  0.00  0.00    -0.126 OA
ENDBRANCH   3  20
TORSDOF 5
