REMARK  Name = ZINC11912395
REMARK  8 active torsions:
REMARK  status: ('A' for Active; 'I' for Inactive)
REMARK    1  A    between atoms: C_1  and  O_2
REMARK    2  A    between atoms: O_2  and  C_3
REMARK    3  A    between atoms: C_3  and  C_4
REMARK    4  A    between atoms: C_10  and  C_11
REMARK    5  A    between atoms: C_10  and  N_66
REMARK    6  A    between atoms: C_21  and  C_22
REMARK    7  A    between atoms: C_21  and  N_68
REMARK    8  A    between atoms: N_26  and  C_27
REMARK                            x       y       z     vdW  Elec       q    Type
REMARK                         _______ _______ _______ _____ _____    ______ ____
ROOT
ATOM      1  C   UNL     1      -0.728   1.705  -3.608  0.00  0.00    -0.064 A 
ATOM      2  C   UNL     1      -1.875   1.215  -4.204  0.00  0.00    +0.005 A 
ATOM      3  C   UNL     1      -2.413   1.851  -5.307  0.00  0.00    +0.046 A 
ATOM      4  C   UNL     1      -1.789   2.979  -5.821  0.00  0.00    +0.122 A 
ATOM      5  C   UNL     1      -0.648   3.472  -5.215  0.00  0.00    -0.022 A 
ATOM      6  C   UNL     1      -0.110   2.834  -4.116  0.00  0.00    +0.007 A 
ATOM      7  C   UNL     1      -0.009   4.738  -5.750  0.00  0.00    -0.039 C 
ATOM      8  C   UNL     1      -0.431   4.569  -8.143  0.00  0.00    -0.036 C 
ATOM      9  C   UNL     1      -1.485   3.484  -8.107  0.00  0.00    +0.210 C 
ATOM     10  O   UNL     1      -2.289   3.595  -6.927  0.00  0.00    -0.494 OA
ATOM     11  N   UNL     1       0.581   4.425  -7.073  0.00  0.00    +0.388 N 
ATOM     12  H   UNL     1       0.914   3.454  -7.063  0.00  0.00    -0.081 HD
ENDROOT
BRANCH   1  13
ATOM     13  C   UNL     1      -0.145   1.005  -2.408  0.00  0.00    -0.043 C 
BRANCH  13  19
ATOM     14  C   UNL     1      -0.729   1.579   1.267  0.00  0.00    -0.002 C 
ATOM     15  C   UNL     1      -0.764   3.110   1.262  0.00  0.00    +0.002 C 
ATOM     16  C   UNL     1      -1.466   3.591  -0.011  0.00  0.00    -0.018 C 
ATOM     17  C   UNL     1      -0.729   3.040  -1.234  0.00  0.00    -0.078 C 
ATOM     18  C   UNL     1      -0.013   1.086   0.008  0.00  0.00    -0.073 C 
ATOM     19  N   UNL     1      -0.751   1.562  -1.181  0.00  0.00    +0.383 N 
ATOM     20  H   UNL     1      -1.726   1.246  -1.117  0.00  0.00    -0.081 HD
BRANCH  14  21
ATOM     21  C   UNL     1       0.024   1.091   2.507  0.00  0.00    +0.161 C 
BRANCH  21  23
ATOM     22  C   UNL     1      -0.088   1.040   4.901  0.00  0.00    +0.193 C 
ATOM     23  O   UNL     1      -0.707   1.452   3.681  0.00  0.00    -0.383 OA
ENDBRANCH  21  23
ENDBRANCH  14  21
ENDBRANCH  13  19
ENDBRANCH   1  13
BRANCH  11  24
ATOM     24  C   UNL     1       1.720   5.317  -7.341  0.00  0.00    -0.023 C 
BRANCH  24  25
ATOM     25  C   UNL     1       1.298   6.763  -7.290  0.00  0.00    +0.007 A 
ATOM     26  C   UNL     1       1.390   7.577  -6.219  0.00  0.00    +0.021 A 
ATOM     27  C   UNL     1       0.888   8.837  -6.601  0.00  0.00    +0.020 A 
ATOM     28  C   UNL     1       0.508   8.748  -7.892  0.00  0.00    +0.091 A 
ATOM     29  N   UNL     1       0.762   7.477  -8.324  0.00  0.00    -0.320 N 
BRANCH  29  30
ATOM     30  C   UNL     1       0.511   6.986  -9.613  0.00  0.00    +0.064 A 
ATOM     31  C   UNL     1      -0.735   7.169 -10.209  0.00  0.00    +0.029 A 
ATOM     32  C   UNL     1      -0.933   6.670 -11.486  0.00  0.00    +0.022 A 
ATOM     33  C   UNL     1       0.100   6.004 -12.118  0.00  0.00    +0.111 A 
ATOM     34  N   UNL     1       1.267   5.843 -11.525  0.00  0.00    -0.261 NA
ATOM     35  C   UNL     1       1.499   6.307 -10.312  0.00  0.00    +0.136 A 
ENDBRANCH  29  30
ENDBRANCH  24  25
ENDBRANCH  11  24
TORSDOF 7
