REMARK  Name = ZINC00503015
REMARK  7 active torsions:
REMARK  status: ('A' for Active; 'I' for Inactive)
REMARK    1  A    between atoms: C_1  and  C_2
REMARK    2  A    between atoms: C_2  and  C_3
REMARK    3  A    between atoms: C_2  and  C_4
REMARK    4  A    between atoms: C_2  and  C_5
REMARK    5  A    between atoms: C_8  and  C_11
REMARK    6  A    between atoms: N_13  and  C_14
REMARK    7  A    between atoms: C_14  and  N_16
REMARK                            x       y       z     vdW  Elec       q    Type
REMARK                         _______ _______ _______ _____ _____    ______ ____
ROOT
ATOM      1  C   UNL     1       1.249  -2.160  -0.033  0.00  0.00    +0.250 C 
ATOM      2  O   UNL     1       0.208  -2.788  -0.025  0.00  0.00    -0.270 OA
ATOM      3  N   UNL     1       2.429  -2.812  -0.043  0.00  0.00    -0.263 N 
ATOM      4  H   UNL     1       3.259  -2.311  -0.049  0.00  0.00    +0.157 HD
ENDROOT
BRANCH   1   8
ATOM      5  C   UNL     1       1.167   2.086  -0.032  0.00  0.00    -0.042 A 
ATOM      6  C   UNL     1      -0.019   1.374  -0.023  0.00  0.00    +0.005 A 
ATOM      7  C   UNL     1      -0.000  -0.005  -0.023  0.00  0.00    +0.013 A 
ATOM      8  C   UNL     1       1.220  -0.683  -0.033  0.00  0.00    +0.037 A 
ATOM      9  C   UNL     1       2.414   0.041  -0.042  0.00  0.00    +0.013 A 
ATOM     10  C   UNL     1       2.380   1.421  -0.042  0.00  0.00    +0.005 A 
BRANCH   5  12
ATOM     11  C   UNL     1       0.417   4.088   1.224  0.00  0.00    +0.015 C 
ATOM     12  C   UNL     1       1.138   3.593  -0.031  0.00  0.00    -0.013 C 
ATOM     13  C   UNL     1       2.570   4.130  -0.043  0.00  0.00    +0.015 C 
ATOM     14  C   UNL     1       0.397   4.089  -1.275  0.00  0.00    +0.015 C 
ENDBRANCH   5  12
ENDBRANCH   1   8
BRANCH   3  15
ATOM     15  C   UNL     1       2.455  -4.159  -0.043  0.00  0.00    +0.144 C 
ATOM     16  S   UNL     1       0.996  -5.043   0.105  0.00  0.00    -0.018 S 
BRANCH  15  17
ATOM     17  N   UNL     1       3.629  -4.811  -0.159  0.00  0.00    -0.282 N 
ATOM     18  C   UNL     1       4.946  -4.169  -0.186  0.00  0.00    +0.117 C 
ATOM     19  C   UNL     1       5.953  -5.322  -0.328  0.00  0.00    +0.056 C 
ATOM     20  C   UNL     1       5.099  -6.569  -0.381  0.00  0.00    -0.024 A 
ATOM     21  C   UNL     1       3.768  -6.196  -0.278  0.00  0.00    +0.039 A 
ATOM     22  C   UNL     1       2.784  -7.186  -0.303  0.00  0.00    +0.024 A 
ATOM     23  C   UNL     1       3.135  -8.513  -0.427  0.00  0.00    +0.002 A 
ATOM     24  C   UNL     1       4.466  -8.874  -0.530  0.00  0.00    +0.000 A 
ATOM     25  C   UNL     1       5.447  -7.900  -0.506  0.00  0.00    +0.005 A 
ENDBRANCH  15  17
ENDBRANCH   3  15
TORSDOF 4
