REMARK  Name = ZINC59989140
REMARK  7 active torsions:
REMARK  status: ('A' for Active; 'I' for Inactive)
REMARK    1  A    between atoms: C_1  and  C_2
REMARK    2  A    between atoms: C_2  and  C_3
REMARK    3  A    between atoms: C_3  and  C_11
REMARK    4  A    between atoms: C_14  and  N_17
REMARK    5  A    between atoms: C_18  and  C_20
REMARK    6  A    between atoms: C_20  and  N_21
REMARK    7  A    between atoms: C_22  and  C_24
REMARK                            x       y       z     vdW  Elec       q    Type
REMARK                         _______ _______ _______ _____ _____    ______ ____
ROOT
ATOM      1  N   UNL     1       6.004   1.245   0.748  0.00  0.00    -0.284 N 
ATOM      2  C   UNL     1       6.292   2.561   0.769  0.00  0.00    +0.234 C 
ATOM      3  O   UNL     1       5.413   3.371   0.978  0.00  0.00    -0.274 OA
ATOM      4  H   UNL     1       6.717   0.594   0.656  0.00  0.00    +0.155 HD
ENDROOT
BRANCH   1   8
ATOM      5  C   UNL     1       2.051  -0.029   1.078  0.00  0.00    -0.032 A 
ATOM      6  C   UNL     1       2.341   1.161   0.437  0.00  0.00    +0.006 A 
ATOM      7  C   UNL     1       3.651   1.586   0.326  0.00  0.00    +0.023 A 
ATOM      8  C   UNL     1       4.676   0.817   0.859  0.00  0.00    +0.033 A 
ATOM      9  C   UNL     1       4.382  -0.378   1.503  0.00  0.00    +0.023 A 
ATOM     10  C   UNL     1       3.070  -0.795   1.615  0.00  0.00    +0.006 A 
BRANCH   5  11
ATOM     11  C   UNL     1       0.621  -0.490   1.197  0.00  0.00    +0.072 C 
ATOM     12  C   UNL     1      -0.314   0.589   0.641  0.00  0.00    +0.030 C 
ATOM     13  C   UNL     1      -1.749   0.053   0.670  0.00  0.00    +0.097 C 
ATOM     14  C   UNL     1      -1.807  -1.247  -0.089  0.00  0.00    +0.219 C 
ATOM     15  O   UNL     1      -2.838  -1.567  -0.640  0.00  0.00    -0.275 OA
ATOM     16  N   UNL     1      -0.740  -2.056  -0.166  0.00  0.00    -0.256 N 
ATOM     17  C   UNL     1       0.434  -1.760   0.410  0.00  0.00    +0.230 C 
ATOM     18  O   UNL     1       1.364  -2.530   0.294  0.00  0.00    -0.274 OA
ATOM     19  H   UNL     1      -0.821  -2.888  -0.658  0.00  0.00    +0.157 HD
BRANCH  11  21
ATOM     20  C   UNL     1       0.519   0.533   3.474  0.00  0.00    +0.005 C 
ATOM     21  C   UNL     1       0.288  -0.746   2.668  0.00  0.00    +0.017 C 
ENDBRANCH  11  21
ENDBRANCH   5  11
ENDBRANCH   1   8
BRANCH   2  22
ATOM     22  C   UNL     1       7.706   3.027   0.534  0.00  0.00    +0.200 C 
BRANCH  22  23
ATOM     23  N   UNL     1       7.757   4.489   0.608  0.00  0.00    -0.306 N 
ATOM     24  C   UNL     1       8.927   5.133   0.428  0.00  0.00    +0.220 C 
ATOM     25  O   UNL     1       9.938   4.502   0.205  0.00  0.00    -0.275 OA
ATOM     26  H   UNL     1       6.948   4.995   0.786  0.00  0.00    +0.149 HD
BRANCH  24  27
ATOM     27  C   UNL     1       8.979   6.637   0.503  0.00  0.00    +0.048 C 
ATOM     28  C   UNL     1       8.061   7.234  -0.565  0.00  0.00    +0.019 C 
ATOM     29  C   UNL     1       8.114   8.761  -0.488  0.00  0.00    -0.009 C 
ATOM     30  C   UNL     1       9.550   9.234  -0.727  0.00  0.00    +0.007 C 
ATOM     31  C   UNL     1      10.468   8.637   0.342  0.00  0.00    -0.009 C 
ATOM     32  C   UNL     1      10.415   7.110   0.265  0.00  0.00    +0.019 C 
ATOM     33  C   UNL     1      10.003   9.095   1.726  0.00  0.00    +0.007 C 
ATOM     34  C   UNL     1       8.568   8.622   1.964  0.00  0.00    -0.009 C 
ATOM     35  C   UNL     1       7.650   9.219   0.896  0.00  0.00    +0.007 C 
ATOM     36  C   UNL     1       8.515   7.095   1.888  0.00  0.00    +0.019 C 
ENDBRANCH  24  27
ENDBRANCH  22  23
ENDBRANCH   2  22
TORSDOF 6
