REMARK  Name = ZINC45225698
REMARK  5 active torsions:
REMARK  status: ('A' for Active; 'I' for Inactive)
REMARK    1  A    between atoms: C_8  and  C_12
REMARK    2  A    between atoms: C_12  and  N_13
REMARK    3  A    between atoms: C_14  and  C_16
REMARK    4  A    between atoms: C_16  and  C_23
REMARK    5  A    between atoms: C_17  and  C_18
REMARK                            x       y       z     vdW  Elec       q    Type
REMARK                         _______ _______ _______ _____ _____    ______ ____
ROOT
ATOM      1  N   UNL     1       3.905  -4.728  -0.769  0.00  0.00    -0.310 N 
ATOM      2  C   UNL     1       4.184  -6.036  -0.605  0.00  0.00    +0.254 C 
ATOM      3  O   UNL     1       3.397  -6.757  -0.020  0.00  0.00    -0.269 OA
ATOM      4  H   UNL     1       4.532  -4.153  -1.236  0.00  0.00    +0.149 HD
ENDROOT
BRANCH   2   5
ATOM      5  C   UNL     1       5.436  -6.592  -1.133  0.00  0.00    +0.117 C 
ATOM      6  C   UNL     1       6.633  -6.345  -0.480  0.00  0.00    +0.070 C 
BRANCH   6   7
ATOM      7  C   UNL     1       6.636  -5.669   0.753  0.00  0.00    +0.129 A 
ATOM      8  C   UNL     1       7.755  -5.259   1.458  0.00  0.00    +0.049 A 
ATOM      9  C   UNL     1       7.286  -4.632   2.619  0.00  0.00    +0.042 A 
ATOM     10  C   UNL     1       5.934  -4.680   2.584  0.00  0.00    +0.195 A 
ATOM     11  O   UNL     1       5.546  -5.297   1.460  0.00  0.00    -0.463 OA
ENDBRANCH   6   7
BRANCH   5  12
ATOM     12  C   UNL     1       5.420  -7.389  -2.323  0.00  0.00    +0.104 C 
ATOM     13  N   UNL     1       5.408  -8.022  -3.266  0.00  0.00    -0.191 NA
ENDBRANCH   5  12
ENDBRANCH   2   5
BRANCH   1  14
ATOM     14  C   UNL     1       2.656  -4.173  -0.242  0.00  0.00    +0.111 C 
BRANCH  14  22
ATOM     15  C   UNL     1       0.065   1.464  -0.187  0.00  0.00    +0.000 A 
ATOM     16  C   UNL     1       1.260   2.159  -0.206  0.00  0.00    +0.004 A 
ATOM     17  C   UNL     1       2.457   1.471  -0.205  0.00  0.00    +0.046 A 
ATOM     18  C   UNL     1       2.465   0.080  -0.183  0.00  0.00    +0.124 A 
ATOM     19  C   UNL     1       1.267  -0.612  -0.160  0.00  0.00    -0.005 A 
ATOM     20  C   UNL     1       0.069   0.083  -0.164  0.00  0.00    +0.007 A 
ATOM     21  C   UNL     1       1.231  -2.119  -0.124  0.00  0.00    +0.047 C 
ATOM     22  C   UNL     1       2.587  -2.678  -0.561  0.00  0.00    +0.048 C 
ATOM     23  C   UNL     1       3.686  -1.934   0.209  0.00  0.00    +0.234 C 
ATOM     24  O   UNL     1       3.662  -0.561  -0.188  0.00  0.00    -0.491 OA
ENDBRANCH  14  22
ENDBRANCH   1  14
TORSDOF 5
