REMARK  Name = ZINC62297419
REMARK  9 active torsions:
REMARK  status: ('A' for Active; 'I' for Inactive)
REMARK    1  A    between atoms: C_1  and  C_2
REMARK    2  A    between atoms: C_2  and  C_3
REMARK    3  A    between atoms: C_3  and  C_4
REMARK    4  A    between atoms: N_6  and  C_7
REMARK    5  A    between atoms: C_11  and  N_14
REMARK    6  A    between atoms: C_12  and  C_13
REMARK    7  A    between atoms: C_15  and  C_17
REMARK    8  A    between atoms: C_20  and  S_22
REMARK    9  A    between atoms: S_22  and  N_25
REMARK                            x       y       z     vdW  Elec       q    Type
REMARK                         _______ _______ _______ _____ _____    ______ ____
ROOT
ATOM      1  N   UNL     1       2.829  -6.888  -4.070  0.00  0.00    -0.279 N 
ATOM      2  C   UNL     1       2.381  -8.104  -4.443  0.00  0.00    +0.284 C 
ATOM      3  O   UNL     1       1.436  -8.607  -3.864  0.00  0.00    -0.266 OA
ATOM      4  H   UNL     1       3.624  -6.517  -4.484  0.00  0.00    +0.155 HD
ENDROOT
BRANCH   1   9
ATOM      5  C   UNL     1       1.402  -4.064  -2.192  0.00  0.00    +0.038 A 
ATOM      6  C   UNL     1       0.798  -4.734  -1.135  0.00  0.00    +0.024 A 
ATOM      7  C   UNL     1       0.871  -6.111  -1.056  0.00  0.00    +0.004 A 
ATOM      8  C   UNL     1       1.544  -6.827  -2.027  0.00  0.00    +0.024 A 
ATOM      9  C   UNL     1       2.149  -6.163  -3.087  0.00  0.00    +0.038 A 
ATOM     10  C   UNL     1       2.073  -4.780  -3.172  0.00  0.00    -0.008 A 
ATOM     11  C   UNL     1       2.723  -4.057  -4.324  0.00  0.00    +0.047 C 
BRANCH   5  14
ATOM     12  C   UNL     1       0.314  -2.013  -1.672  0.00  0.00    +0.217 C 
ATOM     13  O   UNL     1      -0.587  -2.635  -1.151  0.00  0.00    -0.275 OA
ATOM     14  N   UNL     1       1.328  -2.669  -2.271  0.00  0.00    -0.285 N 
ATOM     15  H   UNL     1       2.006  -2.174  -2.756  0.00  0.00    +0.155 HD
BRANCH  12  16
ATOM     16  C   UNL     1       0.301  -0.506  -1.649  0.00  0.00    +0.096 C 
BRANCH  16  18
ATOM     17  C   UNL     1      -0.962   1.512  -0.890  0.00  0.00    +0.004 C 
ATOM     18  C   UNL     1      -0.949  -0.018  -0.913  0.00  0.00    +0.006 C 
ENDBRANCH  16  18
ENDBRANCH  12  16
ENDBRANCH   5  14
ENDBRANCH   1   9
BRANCH   2  19
ATOM     19  C   UNL     1       3.032  -8.819  -5.545  0.00  0.00    +0.192 A 
ATOM     20  C   UNL     1       2.677 -10.047  -6.025  0.00  0.00    +0.057 A 
ATOM     21  C   UNL     1       3.563 -10.343  -7.072  0.00  0.00    +0.072 A 
ATOM     22  C   UNL     1       4.409  -9.295  -7.185  0.00  0.00    +0.258 A 
ATOM     23  O   UNL     1       4.082  -8.376  -6.267  0.00  0.00    -0.432 OA
BRANCH  22  24
ATOM     24  S   UNL     1       5.721  -9.157  -8.353  0.00  0.00    +0.089 S 
ATOM     25  O   UNL     1       6.662  -8.246  -7.800  0.00  0.00    -0.150 OA
ATOM     26  O   UNL     1       6.073 -10.482  -8.727  0.00  0.00    -0.150 OA
BRANCH  24  27
ATOM     27  N   UNL     1       5.099  -8.432  -9.705  0.00  0.00    -0.201 NA
ATOM     28  H   UNL     1       4.164  -8.175  -9.731  0.00  0.00    +0.144 HD
ATOM     29  H   UNL     1       5.669  -8.265 -10.472  0.00  0.00    +0.144 HD
ENDBRANCH  24  27
ENDBRANCH  22  24
ENDBRANCH   2  19
TORSDOF 7
