REMARK  Name = ZINC13345481
REMARK  8 active torsions:
REMARK  status: ('A' for Active; 'I' for Inactive)
REMARK    1  A    between atoms: C_1  and  C_2
REMARK    2  A    between atoms: C_2  and  N_3
REMARK    3  A    between atoms: C_12  and  S_13
REMARK    4  A    between atoms: S_13  and  C_14
REMARK    5  A    between atoms: C_14  and  C_15
REMARK    6  A    between atoms: N_17  and  C_18
REMARK    7  A    between atoms: C_20  and  C_25
REMARK    8  A    between atoms: C_23  and  C_24
REMARK                            x       y       z     vdW  Elec       q    Type
REMARK                         _______ _______ _______ _____ _____    ______ ____
ROOT
ATOM      1  N   UNL     1       5.169   9.719  -0.569  0.00  0.00    -0.288 N 
ATOM      2  C   UNL     1       6.410  10.230  -0.665  0.00  0.00    +0.263 A 
ATOM      3  O   UNL     1       6.577  11.434  -0.760  0.00  0.00    -0.267 OA
ATOM      4  C   UNL     1       7.531   9.341  -0.662  0.00  0.00    +0.076 A 
ATOM      5  C   UNL     1       8.954   9.674  -0.761  0.00  0.00    -0.023 A 
ATOM      6  C   UNL     1       9.826   8.647  -0.735  0.00  0.00    -0.004 A 
ATOM      7  S   UNL     1       8.822   7.194  -0.579  0.00  0.00    -0.073 S 
ATOM      8  C   UNL     1       7.228   7.974  -0.549  0.00  0.00    +0.117 A 
ATOM      9  N   UNL     1       5.979   7.533  -0.451  0.00  0.00    -0.216 NA
ATOM     10  C   UNL     1       4.965   8.374  -0.457  0.00  0.00    +0.173 A 
ATOM     11  C   UNL     1      11.320   8.722  -0.821  0.00  0.00    +0.043 C 
ATOM     12  C   UNL     1      11.707  10.123  -1.315  0.00  0.00    +0.005 C 
ATOM     13  C   UNL     1      10.926  11.163  -0.506  0.00  0.00    +0.005 C 
ATOM     14  C   UNL     1       9.446  11.113  -0.888  0.00  0.00    +0.037 C 
ENDROOT
BRANCH   1  16
ATOM     15  C   UNL     1       3.689  11.046   0.856  0.00  0.00    +0.027 C 
ATOM     16  C   UNL     1       4.016  10.623  -0.577  0.00  0.00    +0.124 C 
ENDBRANCH   1  16
BRANCH  10  17
ATOM     17  S   UNL     1       3.321   7.753  -0.326  0.00  0.00    -0.078 S 
BRANCH  17  18
ATOM     18  C   UNL     1       3.663   5.979  -0.218  0.00  0.00    +0.173 C 
BRANCH  18  19
ATOM     19  C   UNL     1       2.364   5.224  -0.096  0.00  0.00    +0.227 C 
ATOM     20  O   UNL     1       1.311   5.826  -0.083  0.00  0.00    -0.275 OA
ATOM     21  N   UNL     1       2.373   3.879  -0.001  0.00  0.00    -0.285 N 
ATOM     22  H   UNL     1       3.215   3.404   0.070  0.00  0.00    +0.155 HD
BRANCH  21  23
ATOM     23  C   UNL     1       1.167   3.170  -0.004  0.00  0.00    +0.037 A 
ATOM     24  C   UNL     1       0.041   3.719  -0.598  0.00  0.00    +0.038 A 
ATOM     25  C   UNL     1      -1.159   3.007  -0.598  0.00  0.00    +0.065 A 
ATOM     26  C   UNL     1      -1.216   1.744  -0.004  0.00  0.00    +0.015 A 
ATOM     27  C   UNL     1      -0.091   1.209   0.589  0.00  0.00    +0.006 A 
ATOM     28  C   UNL     1       1.098   1.915   0.589  0.00  0.00    -0.029 A 
ATOM     29  C   UNL     1       2.323   1.320   1.234  0.00  0.00    +0.045 C 
BRANCH  25  30
ATOM     30  C   UNL     1      -2.363   3.585  -1.229  0.00  0.00    +0.387 C 
ATOM     31  O   UNL     1      -2.310   4.682  -1.748  0.00  0.00    -0.241 OA
ATOM     32  O   UNL     1      -3.521   2.896  -1.228  0.00  0.00    -0.241 OA
ENDBRANCH  25  30
ENDBRANCH  21  23
ENDBRANCH  18  19
ENDBRANCH  17  18
ENDBRANCH  10  17
TORSDOF 6
