REMARK  Name = ZINC63781727
REMARK  2 active torsions:
REMARK  status: ('A' for Active; 'I' for Inactive)
REMARK    1  A    between atoms: C_1  and  C_2
REMARK    2  A    between atoms: C_4  and  C_19
REMARK                            x       y       z     vdW  Elec       q    Type
REMARK                         _______ _______ _______ _____ _____    ______ ____
ROOT
ATOM      1  C   UNL     1      -0.018   1.503   0.010  0.00  0.00    +0.067 C 
ATOM      2  C   UNL     1       0.002  -0.004   0.002  0.00  0.00    +0.064 C 
ATOM      3  C   UNL     1      -1.064  -0.768   0.003  0.00  0.00    +0.009 C 
ATOM      4  C   UNL     1      -2.534  -0.495  -0.135  0.00  0.00    +0.089 C 
ATOM      5  C   UNL     1      -3.081  -1.526  -1.103  0.00  0.00    +0.066 A 
ATOM      6  C   UNL     1      -2.352  -2.598  -1.518  0.00  0.00    +0.111 A 
ATOM      7  N   UNL     1      -2.933  -3.499  -2.390  0.00  0.00    -0.296 N 
ATOM      8  C   UNL     1      -4.187  -3.316  -2.834  0.00  0.00    +0.328 A 
ATOM      9  N   UNL     1      -4.913  -2.254  -2.440  0.00  0.00    -0.275 N 
ATOM     10  C   UNL     1      -4.393  -1.357  -1.582  0.00  0.00    +0.260 A 
ATOM     11  O   UNL     1      -5.056  -0.399  -1.222  0.00  0.00    -0.267 OA
ATOM     12  O   UNL     1      -4.673  -4.121  -3.604  0.00  0.00    -0.247 OA
ATOM     13  N   UNL     1      -1.053  -2.846  -1.134  0.00  0.00    -0.304 N 
ATOM     14  C   UNL     1      -0.527  -2.199   0.073  0.00  0.00    +0.242 C 
ATOM     15  N   UNL     1       0.921  -1.985   0.002  0.00  0.00    -0.160 NA
ATOM     16  N   UNL     1       1.127  -0.764  -0.013  0.00  0.00    -0.157 NA
ATOM     17  H   UNL     1      -0.493  -3.442  -1.655  0.00  0.00    +0.150 HD
ATOM     18  H   UNL     1      -5.816  -2.134  -2.775  0.00  0.00    +0.173 HD
ATOM     19  H   UNL     1      -2.428  -4.273  -2.685  0.00  0.00    +0.172 HD
ENDROOT
BRANCH   4  20
ATOM     20  C   UNL     1      -2.752   0.893  -0.681  0.00  0.00    -0.034 A 
ATOM     21  C   UNL     1      -2.243   1.235  -1.920  0.00  0.00    +0.007 A 
ATOM     22  C   UNL     1      -2.442   2.507  -2.422  0.00  0.00    +0.040 A 
ATOM     23  C   UNL     1      -3.151   3.439  -1.685  0.00  0.00    +0.142 A 
ATOM     24  C   UNL     1      -3.661   3.095  -0.443  0.00  0.00    +0.076 A 
ATOM     25  C   UNL     1      -3.465   1.820   0.055  0.00  0.00    +0.027 A 
ATOM     26 CL   UNL     1      -4.551   4.263   0.484  0.00  0.00    -0.081 Cl
ATOM     27  F   UNL     1      -3.346   4.683  -2.174  0.00  0.00    -0.204 F 
ENDBRANCH   4  20
TORSDOF 1
