REMARK  Name = ZINC14459054
REMARK  6 active torsions:
REMARK  status: ('A' for Active; 'I' for Inactive)
REMARK    1  A    between atoms: C_1  and  O_2
REMARK    2  A    between atoms: O_2  and  C_3
REMARK    3  A    between atoms: C_5  and  C_10
REMARK    4  A    between atoms: C_8  and  O_9
REMARK    5  A    between atoms: C_21  and  S_26
REMARK    6  A    between atoms: S_26  and  N_29
REMARK                            x       y       z     vdW  Elec       q    Type
REMARK                         _______ _______ _______ _____ _____    ______ ____
ROOT
ATOM      1  C   UNL     1       5.107   3.325  -0.034  0.00  0.00    +0.105 C 
ATOM      2  C   UNL     1       4.974   4.831  -0.276  0.00  0.00    +0.029 C 
ATOM      3  C   UNL     1       3.849   5.355   0.663  0.00  0.00    +0.033 C 
ATOM      4  C   UNL     1       2.578   5.037  -0.100  0.00  0.00    -0.030 C 
ATOM      5  C   UNL     1       2.833   4.891  -1.377  0.00  0.00    -0.023 C 
ATOM      6  C   UNL     1       4.307   5.087  -1.641  0.00  0.00    +0.049 C 
ATOM      7  C   UNL     1       4.797   4.165  -2.713  0.00  0.00    -0.018 A 
ATOM      8  C   UNL     1       4.466   4.443  -4.032  0.00  0.00    +0.034 A 
ATOM      9  C   UNL     1       4.899   3.620  -5.052  0.00  0.00    +0.106 A 
ATOM     10  C   UNL     1       5.670   2.506  -4.770  0.00  0.00    +0.030 A 
ATOM     11  C   UNL     1       6.004   2.220  -3.462  0.00  0.00    +0.025 A 
ATOM     12  C   UNL     1       5.566   3.047  -2.435  0.00  0.00    +0.031 A 
ATOM     13  N   UNL     1       5.907   2.738  -1.114  0.00  0.00    -0.336 N 
ATOM     14  H   UNL     1       6.655   2.152  -0.917  0.00  0.00    +0.147 HD
ENDROOT
BRANCH   1  17
ATOM     15  C   UNL     1       1.866   1.824   1.198  0.00  0.00    +0.162 A 
ATOM     16  C   UNL     1       3.126   2.399   1.184  0.00  0.00    +0.054 A 
ATOM     17  C   UNL     1       3.738   2.693  -0.020  0.00  0.00    -0.023 A 
ATOM     18  C   UNL     1       3.098   2.410  -1.212  0.00  0.00    +0.009 A 
ATOM     19  C   UNL     1       1.843   1.830  -1.205  0.00  0.00    +0.049 A 
ATOM     20  C   UNL     1       1.224   1.533  -0.001  0.00  0.00    +0.158 A 
BRANCH  15  22
ATOM     21  C   UNL     1       1.978   1.865   3.574  0.00  0.00    +0.277 C 
ATOM     22  O   UNL     1       1.260   1.539   2.382  0.00  0.00    -0.491 OA
ENDBRANCH  15  22
BRANCH  20  23
ATOM     23  O   UNL     1      -0.011   0.963   0.007  0.00  0.00    -0.503 OA
ATOM     24  H   UNL     1       0.002  -0.004   0.002  0.00  0.00    +0.292 HD
ENDBRANCH  20  23
ENDBRANCH   1  17
BRANCH   9  25
ATOM     25  S   UNL     1       4.469   3.989  -6.720  0.00  0.00    +0.061 S 
ATOM     26  O   UNL     1       4.538   2.765  -7.438  0.00  0.00    -0.153 OA
ATOM     27  O   UNL     1       3.287   4.777  -6.670  0.00  0.00    -0.153 OA
BRANCH  25  28
ATOM     28  N   UNL     1       5.662   4.963  -7.329  0.00  0.00    -0.172 NA
ATOM     29  C   UNL     1       5.571   6.428  -7.224  0.00  0.00    +0.137 C 
ATOM     30  C   UNL     1       6.892   6.949  -6.636  0.00  0.00    +0.177 C 
ATOM     31  O   UNL     1       7.982   6.435  -7.405  0.00  0.00    -0.377 OA
ATOM     32  C   UNL     1       8.098   5.010  -7.376  0.00  0.00    +0.177 C 
ATOM     33  C   UNL     1       6.841   4.389  -7.997  0.00  0.00    +0.137 C 
ENDBRANCH  25  28
ENDBRANCH   9  25
TORSDOF 5
