REMARK  Name = ZINC61640327
REMARK  6 active torsions:
REMARK  status: ('A' for Active; 'I' for Inactive)
REMARK    1  A    between atoms: C_1  and  N_2
REMARK    2  A    between atoms: C_8  and  S_9
REMARK    3  A    between atoms: S_9  and  C_10
REMARK    4  A    between atoms: C_10  and  C_11
REMARK    5  A    between atoms: C_15  and  N_17
REMARK    6  A    between atoms: N_17  and  N_18
REMARK                            x       y       z     vdW  Elec       q    Type
REMARK                         _______ _______ _______ _____ _____    ______ ____
ROOT
ATOM      1  C   UNL     1       0.072  -1.470   5.223  0.00  0.00    +0.072 A 
ATOM      2  C   UNL     1       1.278  -1.298   5.876  0.00  0.00    +0.063 A 
ATOM      3  C   UNL     1       1.280  -0.992   7.231  0.00  0.00    +0.025 A 
ATOM      4  C   UNL     1       0.066  -0.870   7.882  0.00  0.00    +0.046 A 
ATOM      5  C   UNL     1      -1.110  -1.057   7.162  0.00  0.00    +0.132 A 
ATOM      6  N   UNL     1      -1.071  -1.342   5.870  0.00  0.00    -0.234 NA
ATOM      7 CL   UNL     1       2.774  -1.463   5.011  0.00  0.00    -0.082 Cl
ENDROOT
BRANCH   5   8
ATOM      8  N   UNL     1      -2.337  -0.937   7.805  0.00  0.00    -0.268 N 
ATOM      9  H   UNL     1      -2.371  -0.725   8.751  0.00  0.00    +0.167 HD
BRANCH   8  10
ATOM     10  N   UNL     1      -3.496  -1.119   7.104  0.00  0.00    -0.255 NA
ATOM     11  H   UNL     1      -4.301  -1.001   7.700  0.00  0.00    +0.140 HD
ATOM     12  H   UNL     1      -3.539  -0.497   6.311  0.00  0.00    +0.140 HD
ENDBRANCH   8  10
ENDBRANCH   5   8
BRANCH   1  13
ATOM     13  C   UNL     1       0.062  -1.801   3.753  0.00  0.00    +0.134 C 
BRANCH  13  14
ATOM     14  S   UNL     1       0.033  -0.266   2.788  0.00  0.00    -0.080 S 
BRANCH  14  22
ATOM     15  C   UNL     1      -0.018   1.461   0.010  0.00  0.00    +0.156 C 
ATOM     16  N   UNL     1       0.002  -0.004   0.002  0.00  0.00    -0.274 N 
ATOM     17  C   UNL     1       0.008  -0.787  -1.095  0.00  0.00    +0.345 A 
ATOM     18  O   UNL     1      -0.001  -0.405  -2.252  0.00  0.00    -0.245 OA
ATOM     19  N   UNL     1       0.027  -2.070  -0.680  0.00  0.00    -0.226 N 
ATOM     20  H   UNL     1       0.036  -2.857  -1.246  0.00  0.00    +0.194 HD
ATOM     21  N   UNL     1       0.033  -2.057   0.722  0.00  0.00    -0.145 NA
ATOM     22  C   UNL     1       0.024  -0.816   1.114  0.00  0.00    +0.192 A 
ENDBRANCH  14  22
ENDBRANCH  13  14
ENDBRANCH   1  13
TORSDOF 5
