REMARK  Name = ZINC04177292
REMARK  10 active torsions:
REMARK  status: ('A' for Active; 'I' for Inactive)
REMARK    1  A    between atoms: C_1  and  C_2
REMARK    2  A    between atoms: C_2  and  O_3
REMARK    3  A    between atoms: O_3  and  C_4
REMARK    4  A    between atoms: C_4  and  C_6
REMARK    5  A    between atoms: C_6  and  C_7
REMARK    6  A    between atoms: C_6  and  N_11
REMARK    7  A    between atoms: C_6  and  N_23
REMARK    8  A    between atoms: N_11  and  C_12
REMARK    9  A    between atoms: C_13  and  C_20
REMARK   10  A    between atoms: C_24  and  C_26
REMARK                            x       y       z     vdW  Elec       q    Type
REMARK                         _______ _______ _______ _____ _____    ______ ____
ROOT
ATOM      1  C   UNL     1      -1.338   1.924   0.011  0.00  0.00    +0.296 C 
ENDROOT
BRANCH   1   2
ATOM      2  C   UNL     1      -1.456   2.705  -1.299  0.00  0.00    +0.438 C 
ATOM      3  F   UNL     1      -1.635   1.811  -2.360  0.00  0.00    -0.166 F 
ATOM      4  F   UNL     1      -2.552   3.571  -1.228  0.00  0.00    -0.166 F 
ATOM      5  F   UNL     1      -0.288   3.447  -1.506  0.00  0.00    -0.166 F 
ENDBRANCH   1   2
BRANCH   1   6
ATOM      6  N   UNL     1      -1.247   2.862   1.133  0.00  0.00    -0.274 N 
ATOM      7  C   UNL     1      -2.350   3.503   1.567  0.00  0.00    +0.246 C 
ATOM      8  O   UNL     1      -3.407   3.354   0.985  0.00  0.00    -0.270 OA
ATOM      9  H   UNL     1      -0.392   3.022   1.563  0.00  0.00    +0.152 HD
BRANCH   7  10
ATOM     10  C   UNL     1      -2.275   4.386   2.750  0.00  0.00    +0.039 A 
ATOM     11  C   UNL     1      -1.064   4.554   3.423  0.00  0.00    +0.013 A 
ATOM     12  C   UNL     1      -0.998   5.383   4.524  0.00  0.00    +0.004 A 
ATOM     13  C   UNL     1      -2.131   6.040   4.968  0.00  0.00    +0.038 A 
ATOM     14  C   UNL     1      -3.338   5.875   4.309  0.00  0.00    +0.124 A 
ATOM     15  C   UNL     1      -3.416   5.051   3.202  0.00  0.00    +0.051 A 
ATOM     16  F   UNL     1      -4.441   6.520   4.748  0.00  0.00    -0.205 F 
ENDBRANCH   7  10
ENDBRANCH   1   6
BRANCH   1  17
ATOM     17  C   UNL     1      -0.101   1.064  -0.026  0.00  0.00    +0.359 C 
ATOM     18  O   UNL     1      -0.199  -0.128  -0.195  0.00  0.00    -0.246 OA
BRANCH  17  19
ATOM     19  O   UNL     1       1.110   1.623   0.123  0.00  0.00    -0.462 OA
BRANCH  19  21
ATOM     20  C   UNL     1       3.541   1.548   0.258  0.00  0.00    +0.048 C 
ATOM     21  C   UNL     1       2.258   0.735   0.070  0.00  0.00    +0.229 C 
ENDBRANCH  19  21
ENDBRANCH  17  19
ENDBRANCH   1  17
BRANCH   1  22
ATOM     22  N   UNL     1      -2.519   1.074   0.181  0.00  0.00    -0.301 N 
ATOM     23  H   UNL     1      -3.248   1.124  -0.456  0.00  0.00    +0.149 HD
BRANCH  22  24
ATOM     24  C   UNL     1      -2.593   0.199   1.248  0.00  0.00    +0.080 A 
ATOM     25  C   UNL     1      -3.567  -0.749   1.519  0.00  0.00    +0.068 A 
ATOM     26  C   UNL     1      -3.407  -1.556   2.729  0.00  0.00    -0.023 A 
ATOM     27  C   UNL     1      -2.313  -1.280   3.459  0.00  0.00    -0.004 A 
ATOM     28  S   UNL     1      -1.489   0.017   2.568  0.00  0.00    -0.078 S 
ATOM     29  C   UNL     1      -2.220  -2.146   4.686  0.00  0.00    +0.043 C 
ATOM     30  C   UNL     1      -3.642  -2.724   4.864  0.00  0.00    +0.010 C 
ATOM     31  C   UNL     1      -4.180  -2.681   3.420  0.00  0.00    +0.037 C 
BRANCH  25  32
ATOM     32  C   UNL     1      -4.712  -0.937   0.626  0.00  0.00    +0.244 C 
ATOM     33  O   UNL     1      -4.643  -1.731  -0.294  0.00  0.00    -0.270 OA
ATOM     34  N   UNL     1      -5.843  -0.231   0.823  0.00  0.00    -0.325 N 
ATOM     35  H   UNL     1      -5.898   0.402   1.556  0.00  0.00    +0.145 HD
ATOM     36  H   UNL     1      -6.602  -0.356   0.232  0.00  0.00    +0.145 HD
ENDBRANCH  25  32
ENDBRANCH  22  24
ENDBRANCH   1  22
TORSDOF 9
