REMARK  Name = ZINC14068748
REMARK  6 active torsions:
REMARK  status: ('A' for Active; 'I' for Inactive)
REMARK    1  A    between atoms: C_1  and  N_2
REMARK    2  A    between atoms: N_5  and  C_14
REMARK    3  A    between atoms: C_14  and  C_15
REMARK    4  A    between atoms: N_17  and  N_18
REMARK    5  A    between atoms: C_21  and  C_25
REMARK    6  A    between atoms: C_21  and  C_31
REMARK                            x       y       z     vdW  Elec       q    Type
REMARK                         _______ _______ _______ _____ _____    ______ ____
ROOT
ATOM      1  N   UNL     1       0.711   2.167  -0.927  0.00  0.00    -0.137 N 
ATOM      2  C   UNL     1      -0.544   1.677  -0.977  0.00  0.00    +0.272 C 
ATOM      3  O   UNL     1      -0.917   0.675  -1.547  0.00  0.00    -0.270 OA
ATOM      4  C   UNL     1      -1.393   2.644  -0.175  0.00  0.00    +0.165 C 
ATOM      5  N   UNL     1      -0.426   3.657   0.282  0.00  0.00    -0.276 N 
ATOM      6  C   UNL     1       0.773   3.295  -0.210  0.00  0.00    +0.327 C 
ATOM      7  O   UNL     1       1.797   3.921  -0.023  0.00  0.00    -0.251 OA
ATOM      8  H   UNL     1      -0.617   4.436   0.827  0.00  0.00    +0.152 HD
ENDROOT
BRANCH   4   9
ATOM      9  C   UNL     1      -2.449   3.271  -1.048  0.00  0.00    -0.011 A 
ATOM     10  C   UNL     1      -3.191   2.485  -1.909  0.00  0.00    +0.006 A 
ATOM     11  C   UNL     1      -4.162   3.059  -2.707  0.00  0.00    +0.000 A 
ATOM     12  C   UNL     1      -4.387   4.422  -2.649  0.00  0.00    +0.000 A 
ATOM     13  C   UNL     1      -3.642   5.210  -1.791  0.00  0.00    +0.000 A 
ATOM     14  C   UNL     1      -2.673   4.634  -0.991  0.00  0.00    +0.006 A 
ENDBRANCH   4   9
BRANCH   4  15
ATOM     15  C   UNL     1      -2.022   1.946   1.003  0.00  0.00    -0.011 A 
ATOM     16  C   UNL     1      -2.688   0.748   0.822  0.00  0.00    +0.006 A 
ATOM     17  C   UNL     1      -3.261   0.106   1.903  0.00  0.00    +0.000 A 
ATOM     18  C   UNL     1      -3.177   0.666   3.164  0.00  0.00    +0.000 A 
ATOM     19  C   UNL     1      -2.516   1.866   3.345  0.00  0.00    +0.000 A 
ATOM     20  C   UNL     1      -1.938   2.506   2.264  0.00  0.00    +0.006 A 
ENDBRANCH   4  15
BRANCH   1  23
ATOM     21  C   UNL     1       2.324   2.105  -2.677  0.00  0.00    +0.248 C 
ATOM     22  O   UNL     1       1.828   3.105  -3.151  0.00  0.00    -0.273 OA
ATOM     23  N   UNL     1       1.814   1.569  -1.550  0.00  0.00    -0.222 N 
ATOM     24  H   UNL     1       2.211   0.769  -1.171  0.00  0.00    +0.174 HD
BRANCH  21  25
ATOM     25  C   UNL     1       3.511   1.462  -3.347  0.00  0.00    +0.215 C 
BRANCH  25  30
ATOM     26  C   UNL     1       3.540   2.865  -8.117  0.00  0.00    +0.134 C 
ATOM     27  N   UNL     1       3.867   2.839  -6.689  0.00  0.00    -0.274 N 
ATOM     28  C   UNL     1       3.378   1.991  -5.765  0.00  0.00    +0.312 C 
ATOM     29  O   UNL     1       2.577   1.111  -6.011  0.00  0.00    -0.252 OA
ATOM     30  N   UNL     1       3.871   2.228  -4.543  0.00  0.00    -0.215 N 
ATOM     31  C   UNL     1       4.745   3.255  -4.550  0.00  0.00    +0.247 C 
ATOM     32  O   UNL     1       5.358   3.704  -3.606  0.00  0.00    -0.273 OA
ATOM     33  C   UNL     1       4.798   3.730  -5.984  0.00  0.00    +0.115 C 
ATOM     34  C   UNL     1       6.209   3.578  -6.542  0.00  0.00    +0.035 C 
ATOM     35  C   UNL     1       6.236   4.037  -8.002  0.00  0.00    +0.003 C 
ATOM     36  C   UNL     1       5.792   5.498  -8.085  0.00  0.00    +0.000 C 
ATOM     37  C   UNL     1       4.366   5.630  -7.545  0.00  0.00    +0.003 C 
ATOM     38  C   UNL     1       4.331   5.178  -6.083  0.00  0.00    +0.035 C 
ENDBRANCH  25  30
ENDBRANCH  21  25
ENDBRANCH   1  23
TORSDOF 5
