REMARK  Name = ZINC43732414
REMARK  6 active torsions:
REMARK  status: ('A' for Active; 'I' for Inactive)
REMARK    1  A    between atoms: C_8  and  C_24
REMARK    2  A    between atoms: C_10  and  C_13
REMARK    3  A    between atoms: C_16  and  O_19
REMARK    4  A    between atoms: O_19  and  C_20
REMARK    5  A    between atoms: C_20  and  C_21
REMARK    6  A    between atoms: C_24  and  C_26
REMARK                            x       y       z     vdW  Elec       q    Type
REMARK                         _______ _______ _______ _____ _____    ______ ____
ROOT
ATOM      1  C   UNL     1       0.071   1.366  -0.721  0.00  0.00    +0.000 A 
ATOM      2  C   UNL     1       1.263   2.060  -0.618  0.00  0.00    +0.002 A 
ATOM      3  C   UNL     1       2.438   1.390  -0.347  0.00  0.00    +0.024 A 
ATOM      4  C   UNL     1       2.433   0.008  -0.174  0.00  0.00    +0.040 A 
ATOM      5  C   UNL     1       1.228  -0.679  -0.278  0.00  0.00    +0.021 A 
ATOM      6  C   UNL     1       0.058  -0.007  -0.550  0.00  0.00    +0.009 A 
ATOM      7  C   UNL     1       1.556  -2.128  -0.040  0.00  0.00    +0.229 C 
ATOM      8  C   UNL     1       1.172  -2.982  -1.218  0.00  0.00    +0.074 C 
ATOM      9  H   UNL     1      -0.506  -4.296   1.135  0.00  0.00    +0.194 HD
ATOM     10  C   UNL     1       0.293  -3.918  -0.751  0.00  0.00    +0.079 C 
ATOM     11  N   UNL     1       0.081  -3.747   0.593  0.00  0.00    -0.263 N 
ATOM     12  O   UNL     1       0.841  -2.652   1.077  0.00  0.00    -0.248 OA
ATOM     13  C   UNL     1       3.044  -2.154   0.196  0.00  0.00    +0.261 C 
ATOM     14  O   UNL     1       3.723  -3.132   0.426  0.00  0.00    -0.271 OA
ATOM     15  N   UNL     1       3.474  -0.881   0.102  0.00  0.00    -0.282 N 
ATOM     16  H   UNL     1       4.399  -0.613   0.213  0.00  0.00    +0.155 HD
ENDROOT
BRANCH  10  17
ATOM     17  C   UNL     1      -0.339  -4.964  -1.576  0.00  0.00    +0.001 A 
ATOM     18  C   UNL     1      -0.905  -4.636  -2.812  0.00  0.00    +0.013 A 
ATOM     19  C   UNL     1      -1.494  -5.617  -3.579  0.00  0.00    +0.046 A 
ATOM     20  C   UNL     1      -1.525  -6.931  -3.127  0.00  0.00    +0.121 A 
ATOM     21  C   UNL     1      -0.963  -7.261  -1.899  0.00  0.00    +0.046 A 
ATOM     22  C   UNL     1      -0.368  -6.288  -1.128  0.00  0.00    +0.013 A 
BRANCH  20  23
ATOM     23  O   UNL     1      -2.107  -7.894  -3.887  0.00  0.00    -0.483 OA
BRANCH  23  24
ATOM     24  C   UNL     1      -2.104  -9.223  -3.362  0.00  0.00    +0.324 C 
BRANCH  24  25
ATOM     25  C   UNL     1      -2.787 -10.149  -4.335  0.00  0.00    +0.248 C 
ATOM     26  O   UNL     1      -3.233  -9.713  -5.376  0.00  0.00    -0.272 OA
ATOM     27  N   UNL     1      -2.904 -11.461  -4.050  0.00  0.00    -0.327 N 
ATOM     28  H   UNL     1      -2.547 -11.809  -3.218  0.00  0.00    +0.145 HD
ATOM     29  H   UNL     1      -3.343 -12.057  -4.676  0.00  0.00    +0.145 HD
ENDBRANCH  24  25
ENDBRANCH  23  24
ENDBRANCH  20  23
ENDBRANCH  10  17
BRANCH   8  30
ATOM     30  C   UNL     1       1.630  -2.843  -2.544  0.00  0.00    +0.201 C 
ATOM     31  O   UNL     1       1.202  -1.941  -3.246  0.00  0.00    -0.286 OA
BRANCH  30  32
ATOM     32  C   UNL     1       2.623  -3.784  -3.081  0.00  0.00    +0.059 A 
ATOM     33  C   UNL     1       3.265  -3.770  -4.308  0.00  0.00    +0.019 A 
ATOM     34  C   UNL     1       4.154  -4.796  -4.529  0.00  0.00    +0.008 A 
ATOM     35  C   UNL     1       4.339  -5.727  -3.562  0.00  0.00    +0.046 A 
ATOM     36  S   UNL     1       3.320  -5.237  -2.319  0.00  0.00    -0.093 S 
ENDBRANCH  30  32
ENDBRANCH   8  30
TORSDOF 6
