REMARK  Name = ZINC66085804
REMARK  12 active torsions:
REMARK  status: ('A' for Active; 'I' for Inactive)
REMARK    1  A    between atoms: C_1  and  C_2
REMARK    2  A    between atoms: C_2  and  C_3
REMARK    3  A    between atoms: C_2  and  C_4
REMARK    4  A    between atoms: C_2  and  N_5
REMARK    5  A    between atoms: C_6  and  C_8
REMARK    6  A    between atoms: C_11  and  N_14
REMARK    7  A    between atoms: N_14  and  C_15
REMARK    8  A    between atoms: C_15  and  C_16
REMARK    9  A    between atoms: N_18  and  C_19
REMARK   10  A    between atoms: C_22  and  C_25
REMARK   11  A    between atoms: N_27  and  C_28
REMARK   12  A    between atoms: C_28  and  C_29
REMARK                            x       y       z     vdW  Elec       q    Type
REMARK                         _______ _______ _______ _____ _____    ______ ____
ROOT
ATOM      1  C   UNL     1       6.472  -2.192  -7.601  0.00  0.00    +0.234 C 
ATOM      2  O   UNL     1       5.714  -2.875  -8.256  0.00  0.00    -0.274 OA
ATOM      3  N   UNL     1       7.733  -1.983  -8.031  0.00  0.00    -0.284 N 
ATOM      4  H   UNL     1       8.318  -1.383  -7.543  0.00  0.00    +0.155 HD
ENDROOT
BRANCH   3   5
ATOM      5  C   UNL     1       8.195  -2.630  -9.176  0.00  0.00    +0.033 A 
ATOM      6  C   UNL     1       7.330  -2.857 -10.242  0.00  0.00    +0.024 A 
ATOM      7  C   UNL     1       7.784  -3.496 -11.374  0.00  0.00    +0.015 A 
ATOM      8  C   UNL     1       9.114  -3.916 -11.452  0.00  0.00    +0.037 A 
ATOM      9  C   UNL     1       9.980  -3.687 -10.380  0.00  0.00    +0.015 A 
ATOM     10  C   UNL     1       9.522  -3.043  -9.252  0.00  0.00    +0.024 A 
BRANCH   8  11
ATOM     11  C   UNL     1       9.604  -4.602 -12.664  0.00  0.00    +0.244 C 
ATOM     12  O   UNL     1       8.849  -4.801 -13.597  0.00  0.00    -0.270 OA
ATOM     13  N   UNL     1      10.887  -5.006 -12.738  0.00  0.00    -0.304 N 
ATOM     14  H   UNL     1      11.489  -4.847 -11.994  0.00  0.00    +0.149 HD
BRANCH  13  15
ATOM     15  C   UNL     1      11.373  -5.687 -13.941  0.00  0.00    +0.179 C 
BRANCH  15  16
ATOM     16  C   UNL     1      12.829  -6.032 -13.769  0.00  0.00    +0.122 A 
ATOM     17  C   UNL     1      13.311  -7.177 -13.253  0.00  0.00    +0.046 A 
ATOM     18  C   UNL     1      14.721  -7.077 -13.280  0.00  0.00    +0.041 A 
ATOM     19  C   UNL     1      15.017  -5.877 -13.812  0.00  0.00    +0.195 A 
ATOM     20  O   UNL     1      13.867  -5.251 -14.111  0.00  0.00    -0.466 OA
ENDBRANCH  15  16
ENDBRANCH  13  15
ENDBRANCH   8  11
ENDBRANCH   3   5
BRANCH   1  21
ATOM     21  C   UNL     1       6.005  -1.575  -6.308  0.00  0.00    +0.198 C 
BRANCH  21  22
ATOM     22  N   UNL     1       4.609  -1.948  -6.066  0.00  0.00    -0.335 N 
ATOM     23  H   UNL     1       4.141  -2.511  -6.701  0.00  0.00    +0.147 HD
BRANCH  22  27
ATOM     24  C   UNL     1       2.656  -0.589  -2.651  0.00  0.00    +0.037 A 
ATOM     25  C   UNL     1       1.982  -1.402  -3.567  0.00  0.00    +0.015 A 
ATOM     26  C   UNL     1       2.630  -1.849  -4.696  0.00  0.00    +0.023 A 
ATOM     27  C   UNL     1       3.957  -1.494  -4.925  0.00  0.00    +0.028 A 
ATOM     28  C   UNL     1       4.631  -0.685  -4.014  0.00  0.00    +0.023 A 
ATOM     29  C   UNL     1       3.986  -0.230  -2.887  0.00  0.00    +0.015 A 
BRANCH  24  31
ATOM     30  N   UNL     1       0.681  -0.455  -1.215  0.00  0.00    -0.307 N 
ATOM     31  C   UNL     1       1.964  -0.107  -1.441  0.00  0.00    +0.244 C 
ATOM     32  O   UNL     1       2.550   0.603  -0.647  0.00  0.00    -0.270 OA
ATOM     33  H   UNL     1       0.213  -1.022  -1.848  0.00  0.00    +0.150 HD
BRANCH  30  35
ATOM     34  C   UNL     1      -0.033   1.553  -0.016  0.00  0.00    +0.031 C 
ATOM     35  C   UNL     1      -0.006   0.023  -0.013  0.00  0.00    +0.026 C 
ATOM     36  C   UNL     1       0.735  -0.472   1.230  0.00  0.00    +0.031 C 
ATOM     37  C   UNL     1      -1.440  -0.512   0.002  0.00  0.00    +0.031 C 
ENDBRANCH  30  35
ENDBRANCH  24  31
ENDBRANCH  22  27
ENDBRANCH  21  22
ENDBRANCH   1  21
TORSDOF 9
