REMARK  Name = ZINC06763770
REMARK  5 active torsions:
REMARK  status: ('A' for Active; 'I' for Inactive)
REMARK    1  A    between atoms: C_1  and  C_2
REMARK    2  A    between atoms: C_4  and  C_13
REMARK    3  A    between atoms: C_14  and  C_15
REMARK    4  A    between atoms: N_17  and  C_18
REMARK    5  A    between atoms: C_22  and  N_24
REMARK                            x       y       z     vdW  Elec       q    Type
REMARK                         _______ _______ _______ _____ _____    ______ ____
ROOT
ATOM      1  C   UNL     1       3.506  -0.878  -0.341  0.00  0.00    +0.012 C 
ATOM      2  C   UNL     1       3.426  -2.157  -0.792  0.00  0.00    +0.068 C 
ENDROOT
BRANCH   1   5
ATOM      3  C   UNL     1       3.875   1.900  -0.286  0.00  0.00    +0.057 C 
ATOM      4  C   UNL     1       2.468   1.396   0.043  0.00  0.00    +0.201 C 
ATOM      5  C   UNL     1       2.360  -0.056  -0.345  0.00  0.00    -0.007 C 
ATOM      6  C   UNL     1       1.152  -0.570  -0.700  0.00  0.00    +0.018 C 
ATOM      7  C   UNL     1      -0.005   0.338  -0.705  0.00  0.00    +0.017 A 
ATOM      8  C   UNL     1      -1.312  -0.148  -0.725  0.00  0.00    +0.011 A 
ATOM      9  C   UNL     1      -2.368   0.740  -0.728  0.00  0.00    +0.001 A 
ATOM     10  C   UNL     1      -2.133   2.106  -0.711  0.00  0.00    +0.004 A 
ATOM     11  C   UNL     1      -0.842   2.599  -0.699  0.00  0.00    +0.046 A 
ATOM     12  C   UNL     1       0.230   1.724  -0.689  0.00  0.00    +0.128 A 
ATOM     13  O   UNL     1       1.508   2.176  -0.669  0.00  0.00    -0.484 OA
ENDBRANCH   1   5
BRANCH   2  14
ATOM     14  C   UNL     1       4.547  -3.014  -0.688  0.00  0.00    +0.241 C 
ATOM     15  O   UNL     1       5.583  -2.606  -0.196  0.00  0.00    -0.270 OA
ATOM     16  N   UNL     1       4.467  -4.284  -1.135  0.00  0.00    -0.282 N 
ATOM     17  H   UNL     1       3.620  -4.635  -1.450  0.00  0.00    +0.155 HD
BRANCH  16  18
ATOM     18  C   UNL     1       5.607  -5.094  -1.146  0.00  0.00    +0.036 A 
ATOM     19  C   UNL     1       6.869  -4.519  -1.235  0.00  0.00    +0.023 A 
ATOM     20  C   UNL     1       7.992  -5.322  -1.241  0.00  0.00    +0.004 A 
ATOM     21  C   UNL     1       7.862  -6.697  -1.168  0.00  0.00    +0.033 A 
ATOM     22  C   UNL     1       6.607  -7.272  -1.084  0.00  0.00    +0.128 A 
ATOM     23  C   UNL     1       5.479  -6.475  -1.073  0.00  0.00    +0.056 A 
BRANCH  22  24
ATOM     24  N   UNL     1       6.473  -8.744  -1.006  0.00  0.00    +0.056 N 
ATOM     25  O   UNL     1       5.368  -9.252  -0.932  0.00  0.00    -0.126 OA
ATOM     26  O   UNL     1       7.467  -9.448  -1.016  0.00  0.00    -0.126 OA
ENDBRANCH  22  24
ENDBRANCH  16  18
ENDBRANCH   2  14
TORSDOF 4
