REMARK  Name = ZINC29087987
REMARK  8 active torsions:
REMARK  status: ('A' for Active; 'I' for Inactive)
REMARK    1  A    between atoms: C_1  and  C_2
REMARK    2  A    between atoms: C_3  and  C_12
REMARK    3  A    between atoms: C_12  and  C_13
REMARK    4  A    between atoms: C_13  and  C_14
REMARK    5  A    between atoms: N_16  and  C_17
REMARK    6  A    between atoms: C_17  and  C_19
REMARK    7  A    between atoms: C_17  and  C_26
REMARK    8  A    between atoms: N_30  and  C_31
REMARK                            x       y       z     vdW  Elec       q    Type
REMARK                         _______ _______ _______ _____ _____    ______ ____
ROOT
ATOM      1  C   UNL     1       0.041   0.991   0.467  0.00  0.00    +0.214 C 
ATOM      2  O   UNL     1       0.152  -0.214   0.384  0.00  0.00    -0.276 OA
ATOM      3  N   UNL     1       1.118   1.780   0.284  0.00  0.00    -0.301 N 
ATOM      4  H   UNL     1       1.018   2.873   0.360  0.00  0.00    +0.150 HD
ENDROOT
BRANCH   1   5
ATOM      5  C   UNL     1      -1.301   1.605   0.769  0.00  0.00    +0.100 C 
BRANCH   5   6
ATOM      6  C   UNL     1      -2.346   0.498   0.924  0.00  0.00    +0.051 C 
BRANCH   6   9
ATOM      7  C   UNL     1      -4.209   1.026  -1.195  0.00  0.00    +0.064 C 
ATOM      8  C   UNL     1      -4.566   1.362   0.230  0.00  0.00    +0.026 A 
ATOM      9  C   UNL     1      -3.688   1.113   1.225  0.00  0.00    +0.036 A 
ATOM     10  C   UNL     1      -4.044   1.442   2.556  0.00  0.00    +0.257 A 
ATOM     11  O   UNL     1      -3.267   1.231   3.470  0.00  0.00    -0.267 OA
ATOM     12  N   UNL     1      -5.251   1.991   2.801  0.00  0.00    -0.275 N 
ATOM     13  H   UNL     1      -5.537   2.251   3.831  0.00  0.00    +0.173 HD
ATOM     14  C   UNL     1      -6.108   2.224   1.790  0.00  0.00    +0.327 A 
ATOM     15  O   UNL     1      -7.193   2.720   2.027  0.00  0.00    -0.247 OA
ATOM     16  N   UNL     1      -5.782   1.916   0.522  0.00  0.00    -0.311 N 
ATOM     17  H   UNL     1      -6.505   2.113  -0.284  0.00  0.00    +0.170 HD
ENDBRANCH   6   9
ENDBRANCH   5   6
ENDBRANCH   1   5
BRANCH   3  18
ATOM     18  C   UNL     1       2.422   1.183  -0.015  0.00  0.00    +0.172 C 
BRANCH  18  19
ATOM     19  C   UNL     1       3.517   2.101   0.466  0.00  0.00    +0.015 A 
ATOM     20  C   UNL     1       3.295   3.463   0.539  0.00  0.00    +0.009 A 
ATOM     21  C   UNL     1       4.299   4.304   0.980  0.00  0.00    +0.001 A 
ATOM     22  C   UNL     1       5.526   3.785   1.349  0.00  0.00    +0.003 A 
ATOM     23  C   UNL     1       5.750   2.423   1.276  0.00  0.00    +0.039 A 
ATOM     24  C   UNL     1       4.743   1.579   0.840  0.00  0.00    +0.129 A 
ATOM     25  F   UNL     1       4.960   0.247   0.774  0.00  0.00    -0.205 F 
ENDBRANCH  18  19
BRANCH  18  26
ATOM     26  C   UNL     1       2.553   0.981  -1.502  0.00  0.00    +0.134 A 
ATOM     27  N   UNL     1       2.232   1.853  -2.419  0.00  0.00    -0.238 NA
ATOM     28  C   UNL     1       2.482   1.333  -3.630  0.00  0.00    +0.130 A 
ATOM     29  C   UNL     1       2.975   0.092  -3.457  0.00  0.00    +0.106 A 
ATOM     30  N   UNL     1       3.026  -0.129  -2.107  0.00  0.00    -0.336 N 
ATOM     31  C   UNL     1       3.501  -1.346  -1.443  0.00  0.00    +0.150 C 
ENDBRANCH  18  26
ENDBRANCH   3  18
TORSDOF 6
