REMARK  Name = ZINC63813491
REMARK  7 active torsions:
REMARK  status: ('A' for Active; 'I' for Inactive)
REMARK    1  A    between atoms: C_1  and  C_2
REMARK    2  A    between atoms: C_2  and  C_3
REMARK    3  A    between atoms: C_2  and  N_15
REMARK    4  A    between atoms: C_7  and  C_9
REMARK    5  A    between atoms: N_18  and  C_19
REMARK    6  A    between atoms: C_19  and  C_20
REMARK    7  A    between atoms: C_20  and  C_21
REMARK                            x       y       z     vdW  Elec       q    Type
REMARK                         _______ _______ _______ _____ _____    ______ ____
ROOT
ATOM      1  C   UNL     1      -0.019   1.526   0.010  0.00  0.00    +0.036 C 
ATOM      2  C   UNL     1       0.002  -0.004   0.002  0.00  0.00    +0.135 C 
ENDROOT
BRANCH   2   3
ATOM      3  C   UNL     1      -1.412  -0.526   0.013  0.00  0.00    +0.105 A 
ATOM      4  N   UNL     1      -2.156  -0.797  -1.082  0.00  0.00    -0.348 N 
ATOM      5  H   UNL     1      -1.879  -0.692  -2.005  0.00  0.00    +0.167 HD
ATOM      6  C   UNL     1      -3.372  -1.247  -0.648  0.00  0.00    +0.110 A 
ATOM      7  C   UNL     1      -3.331  -1.236   0.710  0.00  0.00    +0.064 A 
ATOM      8  N   UNL     1      -2.112  -0.793   1.079  0.00  0.00    -0.342 N 
ATOM      9  H   UNL     1      -1.805  -0.689   1.994  0.00  0.00    +0.167 HD
BRANCH   7  10
ATOM     10  C   UNL     1      -4.428  -1.643   1.622  0.00  0.00    -0.000 A 
ATOM     11  C   UNL     1      -4.251  -1.576   3.002  0.00  0.00    +0.010 A 
ATOM     12  C   UNL     1      -5.274  -1.956   3.846  0.00  0.00    +0.001 A 
ATOM     13  C   UNL     1      -6.474  -2.405   3.324  0.00  0.00    +0.000 A 
ATOM     14  C   UNL     1      -6.655  -2.474   1.954  0.00  0.00    +0.001 A 
ATOM     15  C   UNL     1      -5.641  -2.090   1.101  0.00  0.00    +0.010 A 
ENDBRANCH   7  10
ENDBRANCH   2   3
BRANCH   2  16
ATOM     16  N   UNL     1       0.688  -0.476  -1.203  0.00  0.00    -0.290 N 
ATOM     17  C   UNL     1       2.031  -0.587  -1.215  0.00  0.00    +0.300 C 
ATOM     18  O   UNL     1       2.674  -0.294  -0.225  0.00  0.00    -0.253 OA
ATOM     19  N   UNL     1       2.662  -1.022  -2.324  0.00  0.00    -0.299 N 
ATOM     20  H   UNL     1       0.175  -0.710  -1.993  0.00  0.00    +0.151 HD
ATOM     21  H   UNL     1       2.149  -1.255  -3.114  0.00  0.00    +0.150 HD
BRANCH  19  22
ATOM     22  C   UNL     1       4.122  -1.142  -2.336  0.00  0.00    +0.110 C 
BRANCH  22  23
ATOM     23  C   UNL     1       4.580  -1.652  -3.704  0.00  0.00    +0.054 C 
BRANCH  23  24
ATOM     24  C   UNL     1       6.082  -1.776  -3.717  0.00  0.00    -0.046 A 
ATOM     25  C   UNL     1       6.859  -0.702  -4.109  0.00  0.00    +0.006 A 
ATOM     26  C   UNL     1       8.237  -0.814  -4.121  0.00  0.00    +0.038 A 
ATOM     27  C   UNL     1       8.838  -2.002  -3.740  0.00  0.00    +0.123 A 
ATOM     28  C   UNL     1       8.058  -3.077  -3.348  0.00  0.00    +0.038 A 
ATOM     29  C   UNL     1       6.681  -2.961  -3.332  0.00  0.00    +0.006 A 
ATOM     30  F   UNL     1      10.184  -2.113  -3.752  0.00  0.00    -0.205 F 
ENDBRANCH  23  24
ENDBRANCH  22  23
ENDBRANCH  19  22
ENDBRANCH   2  16
TORSDOF 6
