REMARK  Name = ZINC37165537
REMARK  4 active torsions:
REMARK  status: ('A' for Active; 'I' for Inactive)
REMARK    1  A    between atoms: C_2  and  C_12
REMARK    2  A    between atoms: C_12  and  N_13
REMARK    3  A    between atoms: N_13  and  C_14
REMARK    4  A    between atoms: C_19  and  O_22
REMARK                            x       y       z     vdW  Elec       q    Type
REMARK                         _______ _______ _______ _____ _____    ______ ____
ROOT
ATOM      1  C   UNL     1       1.146   3.599   0.010  0.00  0.00    -0.046 C 
ENDROOT
BRANCH   1   3
ATOM      2  C   UNL     1      -0.017   1.383   0.010  0.00  0.00    +0.051 A 
ATOM      3  C   UNL     1       1.170   2.092   0.002  0.00  0.00    -0.060 A 
ATOM      4  C   UNL     1       2.378   1.421  -0.013  0.00  0.00    +0.021 A 
ATOM      5  C   UNL     1       2.405   0.038  -0.023  0.00  0.00    +0.063 A 
ATOM      6  C   UNL     1       1.217  -0.679  -0.016  0.00  0.00    +0.176 A 
ATOM      7  C   UNL     1       0.002  -0.004   0.002  0.00  0.00    +0.163 A 
ATOM      8  O   UNL     1      -1.174  -0.688   0.017  0.00  0.00    -0.485 OA
ATOM      9  C   UNL     1      -1.122  -2.066  -0.368  0.00  0.00    +0.270 C 
ATOM     10  C   UNL     1       0.061  -2.723   0.356  0.00  0.00    +0.270 C 
ATOM     11  O   UNL     1       1.258  -2.039  -0.029  0.00  0.00    -0.484 OA
ATOM     12 BR   UNL     1       4.060  -0.875  -0.046  0.00  0.00    -0.046 Br
ENDBRANCH   1   3
BRANCH   1  13
ATOM     13  N   UNL     1       1.151   4.081   1.398  0.00  0.00    +0.384 N 
ATOM     14  H   UNL     1       0.337   3.729   1.879  0.00  0.00    -0.085 HD
ATOM     15  H   UNL     1       1.984   3.755   1.864  0.00  0.00    -0.085 HD
BRANCH  13  16
ATOM     16  C   UNL     1       1.127   5.550   1.406  0.00  0.00    -0.069 C 
ATOM     17  C   UNL     1       2.420   6.084   0.787  0.00  0.00    -0.016 C 
ATOM     18  C   UNL     1       2.396   7.614   0.795  0.00  0.00    +0.001 C 
ATOM     19  C   UNL     1       2.276   8.114   2.236  0.00  0.00    +0.031 C 
ATOM     20  C   UNL     1       0.983   7.580   2.855  0.00  0.00    +0.113 C 
ATOM     21  C   UNL     1       1.007   6.050   2.847  0.00  0.00    +0.015 C 
BRANCH  20  22
ATOM     22  O   UNL     1       0.870   8.047   4.201  0.00  0.00    -0.392 OA
ATOM     23  H   UNL     1       0.849   9.010   4.282  0.00  0.00    +0.210 HD
ENDBRANCH  20  22
ENDBRANCH  13  16
ENDBRANCH   1  13
TORSDOF 4
