REMARK  Name = ZINC64622740
REMARK  3 active torsions:
REMARK  status: ('A' for Active; 'I' for Inactive)
REMARK    1  A    between atoms: C_1  and  C_2
REMARK    2  A    between atoms: C_5  and  N_9
REMARK    3  A    between atoms: C_25  and  C_27
REMARK                            x       y       z     vdW  Elec       q    Type
REMARK                         _______ _______ _______ _____ _____    ______ ____
ROOT
ATOM      1  N   UNL     1      -0.172  -4.646  -0.448  0.00  0.00    -0.269 N 
ATOM      2  C   UNL     1       0.057  -5.109   0.797  0.00  0.00    +0.307 C 
ATOM      3  O   UNL     1       0.169  -4.330   1.724  0.00  0.00    -0.252 OA
ATOM      4  N   UNL     1       0.162  -6.434   1.015  0.00  0.00    -0.276 N 
ATOM      5  C   UNL     1       0.135  -7.361  -0.122  0.00  0.00    +0.114 C 
ATOM      6  C   UNL     1      -1.016  -8.366   0.063  0.00  0.00    +0.052 C 
ATOM      7  C   UNL     1      -0.951  -8.840   1.493  0.00  0.00    -0.035 C 
ATOM      8  C   UNL     1      -0.924 -10.062   2.013  0.00  0.00    -0.001 A 
ATOM      9  C   UNL     1      -1.058 -11.392   1.397  0.00  0.00    +0.010 A 
ATOM     10  C   UNL     1      -0.960 -12.454   2.239  0.00  0.00    +0.001 A 
ATOM     11  C   UNL     1      -0.745 -12.329   3.615  0.00  0.00    +0.002 A 
ATOM     12  C   UNL     1      -0.618 -11.146   4.266  0.00  0.00    +0.026 A 
ATOM     13  C   UNL     1      -0.712  -9.955   3.489  0.00  0.00    +0.043 A 
ATOM     14  N   UNL     1      -0.651  -8.707   3.850  0.00  0.00    -0.375 N 
ATOM     15  C   UNL     1      -0.878  -7.873   2.670  0.00  0.00    +0.131 C 
ATOM     16  C   UNL     1       0.308  -6.937   2.390  0.00  0.00    +0.135 C 
ATOM     17  H   UNL     1      -0.313  -5.269  -1.179  0.00  0.00    +0.156 HD
ATOM     18  H   UNL     1      -0.485  -8.385   4.750  0.00  0.00    +0.160 HD
ENDROOT
BRANCH   1  23
ATOM     19  C   UNL     1      -0.306   0.942  -1.423  0.00  0.00    +0.045 C 
ATOM     20  C   UNL     1      -0.270  -0.542  -1.164  0.00  0.00    -0.032 A 
ATOM     21  C   UNL     1       0.302  -1.391  -2.093  0.00  0.00    +0.006 A 
ATOM     22  C   UNL     1       0.336  -2.752  -1.859  0.00  0.00    +0.024 A 
ATOM     23  C   UNL     1      -0.205  -3.268  -0.688  0.00  0.00    +0.036 A 
ATOM     24  C   UNL     1      -0.778  -2.413   0.244  0.00  0.00    +0.043 A 
ATOM     25  C   UNL     1      -0.804  -1.052   0.007  0.00  0.00    +0.046 A 
ATOM     26 CL   UNL     1      -1.515   0.019   1.174  0.00  0.00    -0.083 Cl
ENDBRANCH   1  23
BRANCH  16  27
ATOM     27  C   UNL     1       1.604  -7.695   2.521  0.00  0.00    -0.007 A 
ATOM     28  C   UNL     1       1.911  -8.718   1.637  0.00  0.00    +0.008 A 
ATOM     29  C   UNL     1       3.114  -9.388   1.796  0.00  0.00    +0.020 A 
ATOM     30  C   UNL     1       3.961  -9.017   2.823  0.00  0.00    +0.111 A 
ATOM     31  N   UNL     1       3.636  -8.040   3.646  0.00  0.00    -0.263 NA
ATOM     32  C   UNL     1       2.503  -7.376   3.521  0.00  0.00    +0.116 A 
ENDBRANCH  16  27
TORSDOF 2
