REMARK  Name = ZINC36805087
REMARK  7 active torsions:
REMARK  status: ('A' for Active; 'I' for Inactive)
REMARK    1  A    between atoms: C_1  and  C_2
REMARK    2  A    between atoms: C_2  and  C_3
REMARK    3  A    between atoms: C_3  and  C_5
REMARK    4  A    between atoms: C_3  and  N_6
REMARK    5  A    between atoms: N_6  and  S_7
REMARK    6  A    between atoms: S_7  and  C_10
REMARK    7  A    between atoms: C_14  and  C_17
REMARK                            x       y       z     vdW  Elec       q    Type
REMARK                         _______ _______ _______ _____ _____    ______ ____
ROOT
ATOM      1  C   UNL     1      -4.575  -1.250   0.861  0.00  0.00    +0.142 A 
ATOM      2  C   UNL     1      -5.413  -1.850   1.782  0.00  0.00    +0.046 A 
ATOM      3  C   UNL     1      -6.110  -3.000   1.450  0.00  0.00    +0.021 A 
ATOM      4  C   UNL     1      -5.973  -3.557   0.195  0.00  0.00    +0.033 A 
ATOM      5  C   UNL     1      -5.128  -2.958  -0.744  0.00  0.00    +0.101 A 
ATOM      6  C   UNL     1      -4.431  -1.792  -0.403  0.00  0.00    +0.164 A 
ATOM      7  F   UNL     1      -3.617  -1.202  -1.305  0.00  0.00    -0.203 F 
ATOM      8 BR   UNL     1      -7.252  -3.810   2.720  0.00  0.00    -0.050 Br
ENDROOT
BRANCH   1   9
ATOM      9  S   UNL     1      -3.694   0.213   1.295  0.00  0.00    +0.061 S 
ATOM     10  O   UNL     1      -4.026   0.500   2.647  0.00  0.00    -0.153 OA
ATOM     11  O   UNL     1      -3.910   1.144   0.244  0.00  0.00    -0.153 OA
BRANCH   9  12
ATOM     12  N   UNL     1      -2.082  -0.162   1.273  0.00  0.00    -0.187 NA
ATOM     13  H   UNL     1      -1.566  -0.135   2.094  0.00  0.00    +0.148 HD
BRANCH  12  14
ATOM     14  C   UNL     1      -1.433  -0.534   0.013  0.00  0.00    +0.073 C 
ATOM     15  C   UNL     1      -1.416  -2.058  -0.121  0.00  0.00    +0.025 C 
BRANCH  14  17
ATOM     16  C   UNL     1      -0.019   1.526   0.010  0.00  0.00    +0.005 C 
ATOM     17  C   UNL     1       0.002  -0.004   0.002  0.00  0.00    +0.017 C 
ENDBRANCH  14  17
ENDBRANCH  12  14
ENDBRANCH   9  12
ENDBRANCH   1   9
BRANCH   5  18
ATOM     18  C   UNL     1      -4.976  -3.546  -2.086  0.00  0.00    +0.389 C 
ATOM     19  O   UNL     1      -5.590  -4.563  -2.381  0.00  0.00    -0.240 OA
ATOM     20  O   UNL     1      -4.236  -3.019  -2.905  0.00  0.00    -0.240 OA
ENDBRANCH   5  18
TORSDOF 5
