REMARK  Name = ZINC39920502
REMARK  8 active torsions:
REMARK  status: ('A' for Active; 'I' for Inactive)
REMARK    1  A    between atoms: C_1  and  C_2
REMARK    2  A    between atoms: C_2  and  C_4
REMARK    3  A    between atoms: C_2  and  O_23
REMARK    4  A    between atoms: N_6  and  N_7
REMARK    5  A    between atoms: C_8  and  C_20
REMARK    6  A    between atoms: C_20  and  C_21
REMARK    7  A    between atoms: C_20  and  C_22
REMARK    8  A    between atoms: O_23  and  C_24
REMARK                            x       y       z     vdW  Elec       q    Type
REMARK                         _______ _______ _______ _____ _____    ______ ____
ROOT
ATOM      1  N   UNL     1      -3.544  -1.209   0.938  0.00  0.00    -0.195 N 
ATOM      2  C   UNL     1      -4.657  -0.261   0.885  0.00  0.00    +0.183 C 
ATOM      3  N   UNL     1      -5.761  -0.814   0.091  0.00  0.00    -0.324 N 
ATOM      4  C   UNL     1      -6.126  -2.140   0.296  0.00  0.00    +0.041 A 
ATOM      5  C   UNL     1      -7.424  -2.581   0.104  0.00  0.00    +0.025 A 
ATOM      6  C   UNL     1      -7.735  -3.909   0.325  0.00  0.00    +0.017 A 
ATOM      7  C   UNL     1      -6.758  -4.803   0.737  0.00  0.00    +0.019 A 
ATOM      8  C   UNL     1      -5.458  -4.380   0.931  0.00  0.00    +0.030 A 
ATOM      9  C   UNL     1      -5.132  -3.044   0.711  0.00  0.00    +0.060 A 
ATOM     10  C   UNL     1      -3.758  -2.540   0.890  0.00  0.00    +0.266 C 
ATOM     11  O   UNL     1      -2.828  -3.317   0.998  0.00  0.00    -0.268 OA
ATOM     12 BR   UNL     1      -7.209  -6.615   1.034  0.00  0.00    -0.050 Br
ATOM     13  H   UNL     1      -6.225  -0.267  -0.561  0.00  0.00    +0.148 HD
ENDROOT
BRANCH   1  16
ATOM     14  C   UNL     1      -1.426  -0.749  -0.046  0.00  0.00    +0.270 C 
ATOM     15  O   UNL     1      -1.835  -1.187  -1.100  0.00  0.00    -0.270 OA
ATOM     16  N   UNL     1      -2.233  -0.726   1.034  0.00  0.00    -0.227 N 
ATOM     17  H   UNL     1      -1.905  -0.376   1.877  0.00  0.00    +0.173 HD
BRANCH  14  19
ATOM     18  C   UNL     1      -0.044   1.273   0.345  0.00  0.00    +0.062 C 
ATOM     19  C   UNL     1      -0.015  -0.229   0.058  0.00  0.00    +0.257 C 
BRANCH  19  20
ATOM     20  O   UNL     1       0.671  -0.465  -1.174  0.00  0.00    -0.480 OA
BRANCH  20  21
ATOM     21  C   UNL     1       2.026  -0.553  -1.118  0.00  0.00    +0.122 A 
ATOM     22  C   UNL     1       2.690  -0.309   0.075  0.00  0.00    +0.045 A 
ATOM     23  C   UNL     1       4.067  -0.400   0.129  0.00  0.00    +0.004 A 
ATOM     24  C   UNL     1       4.784  -0.733  -1.005  0.00  0.00    +0.000 A 
ATOM     25  C   UNL     1       4.125  -0.976  -2.196  0.00  0.00    +0.004 A 
ATOM     26  C   UNL     1       2.747  -0.893  -2.253  0.00  0.00    +0.045 A 
ENDBRANCH  20  21
ENDBRANCH  19  20
ENDBRANCH  14  19
ENDBRANCH   1  16
BRANCH   2  27
ATOM     27  C   UNL     1      -5.150   0.021   2.305  0.00  0.00    +0.023 C 
ATOM     28  C   UNL     1      -4.009   0.616   3.133  0.00  0.00    +0.011 C 
ATOM     29  C   UNL     1      -6.314   1.013   2.254  0.00  0.00    +0.011 C 
ENDBRANCH   2  27
TORSDOF 5
