REMARK  Name = ZINC07068075
REMARK  11 active torsions:
REMARK  status: ('A' for Active; 'I' for Inactive)
REMARK    1  A    between atoms: C_1  and  C_2
REMARK    2  A    between atoms: C_5  and  O_27
REMARK    3  A    between atoms: C_6  and  C_8
REMARK    4  A    between atoms: C_8  and  O_10
REMARK    5  A    between atoms: O_10  and  C_11
REMARK    6  A    between atoms: C_11  and  C_12
REMARK    7  A    between atoms: C_15  and  C_17
REMARK    8  A    between atoms: C_20  and  O_25
REMARK    9  A    between atoms: C_21  and  O_23
REMARK   10  A    between atoms: O_23  and  C_24
REMARK   11  A    between atoms: O_25  and  C_26
REMARK                            x       y       z     vdW  Elec       q    Type
REMARK                         _______ _______ _______ _____ _____    ______ ____
ROOT
ATOM      1  C   UNL     1       3.435   7.474   0.009  0.00  0.00    +0.086 A 
ATOM      2  C   UNL     1       2.168   7.968   0.018  0.00  0.00    +0.074 A 
ATOM      3  S   UNL     1       2.499   9.725   0.029  0.00  0.00    -0.075 S 
ATOM      4  C   UNL     1       4.283   9.612   0.012  0.00  0.00    +0.109 A 
ATOM      5  N   UNL     1       4.457   8.297   0.003  0.00  0.00    -0.241 NA
ENDROOT
BRANCH   4   6
ATOM      6  C   UNL     1       5.292  10.692   0.007  0.00  0.00    +0.011 A 
ATOM      7  C   UNL     1       6.652  10.379  -0.008  0.00  0.00    +0.014 A 
ATOM      8  C   UNL     1       7.592  11.388  -0.012  0.00  0.00    +0.050 A 
ATOM      9  C   UNL     1       7.190  12.715  -0.003  0.00  0.00    +0.162 A 
ATOM     10  C   UNL     1       5.834  13.035   0.011  0.00  0.00    +0.162 A 
ATOM     11  C   UNL     1       4.886  12.028   0.012  0.00  0.00    +0.060 A 
BRANCH  10  12
ATOM     12  O   UNL     1       5.442  14.337   0.020  0.00  0.00    -0.491 OA
ATOM     13  C   UNL     1       4.036  14.591   0.035  0.00  0.00    +0.277 C 
ENDBRANCH  10  12
BRANCH   9  14
ATOM     14  O   UNL     1       8.120  13.706  -0.008  0.00  0.00    -0.491 OA
ATOM     15  C   UNL     1       9.492  13.308  -0.023  0.00  0.00    +0.277 C 
ENDBRANCH   9  14
ENDBRANCH   4   6
BRANCH   1  16
ATOM     16  C   UNL     1       3.664   5.985  -0.001  0.00  0.00    +0.288 C 
BRANCH  16  17
ATOM     17  O   UNL     1       2.385   5.298   0.007  0.00  0.00    -0.455 OA
BRANCH  17  18
ATOM     18  C   UNL     1       2.414   3.951   0.000  0.00  0.00    +0.343 C 
ATOM     19  O   UNL     1       3.480   3.366  -0.012  0.00  0.00    -0.245 OA
BRANCH  18  25
ATOM     20  C   UNL     1      -2.570   3.856   0.045  0.00  0.00    +0.044 C 
ATOM     21  C   UNL     1      -1.248   3.134   0.030  0.00  0.00    -0.049 A 
ATOM     22  C   UNL     1      -1.218   1.749   0.017  0.00  0.00    +0.007 A 
ATOM     23  C   UNL     1      -0.013   1.076   0.008  0.00  0.00    +0.046 A 
ATOM     24  C   UNL     1       1.180   1.785   0.000  0.00  0.00    +0.131 A 
ATOM     25  C   UNL     1       1.154   3.186   0.008  0.00  0.00    +0.101 A 
ATOM     26  C   UNL     1      -0.073   3.855   0.022  0.00  0.00    +0.022 A 
BRANCH  24  27
ATOM     27  O   UNL     1       2.365   1.125  -0.015  0.00  0.00    -0.506 OA
ATOM     28  H   UNL     1       2.700   0.938  -0.902  0.00  0.00    +0.292 HD
ENDBRANCH  24  27
ENDBRANCH  18  25
ENDBRANCH  17  18
ENDBRANCH  16  17
ENDBRANCH   1  16
TORSDOF 8
