REMARK  Name = ZINC05600620
REMARK  3 active torsions:
REMARK  status: ('A' for Active; 'I' for Inactive)
REMARK    1  A    between atoms: C_2  and  O_28
REMARK    2  A    between atoms: C_7  and  O_21
REMARK    3  A    between atoms: C_10  and  O_11
REMARK                            x       y       z     vdW  Elec       q    Type
REMARK                         _______ _______ _______ _____ _____    ______ ____
ROOT
ATOM      1  C   UNL     1       1.706  -1.247   1.236  0.00  0.00    +0.132 C 
ATOM      2  C   UNL     1       1.065  -2.631   1.071  0.00  0.00    +0.309 C 
ATOM      3  O   UNL     1       1.688  -3.287  -0.034  0.00  0.00    -0.459 OA
ATOM      4  C   UNL     1       1.808  -2.600  -1.201  0.00  0.00    +0.177 A 
ATOM      5  C   UNL     1       1.681  -1.224  -1.254  0.00  0.00    +0.090 A 
ATOM      6  C   UNL     1       1.816  -0.552  -2.468  0.00  0.00    +0.171 A 
ATOM      7  C   UNL     1       2.078  -1.246  -3.641  0.00  0.00    +0.182 A 
ATOM      8  C   UNL     1       2.204  -2.646  -3.592  0.00  0.00    +0.077 A 
ATOM      9  C   UNL     1       2.068  -3.317  -2.370  0.00  0.00    +0.171 A 
ATOM     10  C   UNL     1       2.471  -3.074  -4.962  0.00  0.00    +0.036 A 
ATOM     11  C   UNL     1       2.681  -4.311  -5.518  0.00  0.00    +0.067 C 
ATOM     12  C   UNL     1       2.917  -4.350  -6.919  0.00  0.00    +0.226 C 
ATOM     13  O   UNL     1       3.110  -5.416  -7.469  0.00  0.00    -0.284 OA
ATOM     14  C   UNL     1       2.929  -3.089  -7.719  0.00  0.00    +0.229 C 
ATOM     15  O   UNL     1       3.134  -3.142  -8.916  0.00  0.00    -0.284 OA
ATOM     16  C   UNL     1       2.706  -1.827  -7.104  0.00  0.00    +0.101 C 
ATOM     17  C   UNL     1       2.483  -1.816  -5.761  0.00  0.00    +0.140 A 
ATOM     18  O   UNL     1       2.246  -0.808  -4.917  0.00  0.00    -0.451 OA
ATOM     19  C   UNL     1       1.394  -0.421  -0.011  0.00  0.00    +0.170 C 
ATOM     20  C   UNL     1       2.214   0.845  -0.014  0.00  0.00    +0.032 C 
ATOM     21  C   UNL     1       1.355   1.861  -0.001  0.00  0.00    +0.091 C 
ATOM     22  C   UNL     1      -0.016   1.343   0.009  0.00  0.00    +0.333 C 
ATOM     23  O   UNL     1      -1.021   2.027   0.018  0.00  0.00    -0.246 OA
ATOM     24  O   UNL     1       0.002  -0.004   0.002  0.00  0.00    -0.445 OA
ENDROOT
BRANCH   9  25
ATOM     25  O   UNL     1       2.189  -4.668  -2.323  0.00  0.00    -0.503 OA
ATOM     26  H   UNL     1       1.356  -5.142  -2.451  0.00  0.00    +0.292 HD
ENDBRANCH   9  25
BRANCH   6  27
ATOM     27  O   UNL     1       1.691   0.801  -2.503  0.00  0.00    -0.503 OA
ATOM     28  H   UNL     1       0.787   1.108  -2.656  0.00  0.00    +0.292 HD
ENDBRANCH   6  27
BRANCH   2  29
ATOM     29  O   UNL     1       1.261  -3.398   2.260  0.00  0.00    -0.358 OA
ATOM     30  H   UNL     1       0.879  -4.285   2.223  0.00  0.00    +0.214 HD
ENDBRANCH   2  29
TORSDOF 3
