REMARK  Name = ZINC58153408
REMARK  8 active torsions:
REMARK  status: ('A' for Active; 'I' for Inactive)
REMARK    1  A    between atoms: C_1  and  C_2
REMARK    2  A    between atoms: C_2  and  C_4
REMARK    3  A    between atoms: C_2  and  O_18
REMARK    4  A    between atoms: N_6  and  C_7
REMARK    5  A    between atoms: C_8  and  C_15
REMARK    6  A    between atoms: O_18  and  C_19
REMARK    7  A    between atoms: C_19  and  C_21
REMARK    8  A    between atoms: C_26  and  O_27
REMARK                            x       y       z     vdW  Elec       q    Type
REMARK                         _______ _______ _______ _____ _____    ______ ____
ROOT
ATOM      1  C   UNL     1       0.707  -0.490  -1.238  0.00  0.00    +0.258 C 
ATOM      2  O   UNL     1       0.095  -1.114  -2.078  0.00  0.00    -0.271 OA
ATOM      3  N   UNL     1       2.018  -0.231  -1.413  0.00  0.00    -0.276 N 
ATOM      4  H   UNL     1       2.508   0.269  -0.741  0.00  0.00    +0.155 HD
ENDROOT
BRANCH   3   5
ATOM      5  C   UNL     1       2.667  -0.678  -2.554  0.00  0.00    +0.084 A 
ATOM      6  C   UNL     1       3.997  -0.512  -2.896  0.00  0.00    +0.068 A 
ATOM      7  C   UNL     1       4.438  -1.085  -4.166  0.00  0.00    -0.023 A 
ATOM      8  C   UNL     1       3.466  -1.714  -4.852  0.00  0.00    -0.004 A 
ATOM      9  S   UNL     1       2.022  -1.551  -3.832  0.00  0.00    -0.077 S 
ATOM     10  C   UNL     1       3.972  -2.280  -6.150  0.00  0.00    +0.043 C 
ATOM     11  C   UNL     1       5.312  -1.553  -6.398  0.00  0.00    +0.010 C 
ATOM     12  C   UNL     1       5.737  -1.179  -4.964  0.00  0.00    +0.037 C 
BRANCH   6  13
ATOM     13  C   UNL     1       4.926   0.210  -2.021  0.00  0.00    +0.244 C 
ATOM     14  O   UNL     1       5.550  -0.392  -1.167  0.00  0.00    -0.270 OA
ATOM     15  N   UNL     1       5.087   1.541  -2.161  0.00  0.00    -0.325 N 
ATOM     16  H   UNL     1       4.589   2.021  -2.841  0.00  0.00    +0.145 HD
ATOM     17  H   UNL     1       5.702   2.018  -1.583  0.00  0.00    +0.145 HD
ENDBRANCH   6  13
ENDBRANCH   3   5
BRANCH   1  19
ATOM     18  C   UNL     1      -0.019   1.526   0.010  0.00  0.00    +0.062 C 
ATOM     19  C   UNL     1       0.002  -0.004   0.002  0.00  0.00    +0.259 C 
BRANCH  19  20
ATOM     20  O   UNL     1      -1.339  -0.499   0.012  0.00  0.00    -0.449 OA
BRANCH  20  21
ATOM     21  C   UNL     1      -1.901  -0.717   1.217  0.00  0.00    +0.343 C 
ATOM     22  O   UNL     1      -1.270  -0.493   2.231  0.00  0.00    -0.245 OA
BRANCH  21  23
ATOM     23  C   UNL     1      -3.281  -1.227   1.305  0.00  0.00    +0.102 A 
ATOM     24  C   UNL     1      -4.008  -1.491   0.140  0.00  0.00    +0.038 A 
ATOM     25  C   UNL     1      -5.299  -1.968   0.230  0.00  0.00    +0.042 A 
ATOM     26  C   UNL     1      -5.879  -2.187   1.470  0.00  0.00    +0.023 A 
ATOM     27  C   UNL     1      -5.172  -1.930   2.627  0.00  0.00    +0.047 A 
ATOM     28  C   UNL     1      -3.870  -1.455   2.556  0.00  0.00    +0.131 A 
ATOM     29 CL   UNL     1      -6.201  -2.295  -1.217  0.00  0.00    -0.084 Cl
BRANCH  28  30
ATOM     30  O   UNL     1      -3.172  -1.208   3.693  0.00  0.00    -0.506 OA
ATOM     31  H   UNL     1      -3.276  -0.307   4.030  0.00  0.00    +0.292 HD
ENDBRANCH  28  30
ENDBRANCH  21  23
ENDBRANCH  20  21
ENDBRANCH  19  20
ENDBRANCH   1  19
TORSDOF 7
