REMARK  Name = ZINC09638699
REMARK  7 active torsions:
REMARK  status: ('A' for Active; 'I' for Inactive)
REMARK    1  A    between atoms: C_3  and  C_6
REMARK    2  A    between atoms: C_6  and  C_8
REMARK    3  A    between atoms: C_6  and  N_62
REMARK    4  A    between atoms: C_8  and  N_9
REMARK    5  A    between atoms: C_10  and  C_12
REMARK    6  A    between atoms: C_16  and  S_18
REMARK    7  A    between atoms: S_18  and  N_21
REMARK                            x       y       z     vdW  Elec       q    Type
REMARK                         _______ _______ _______ _____ _____    ______ ____
ROOT
ATOM      1  N   UNL     1      -7.689   2.725  -0.031  0.00  0.00    -0.312 N 
ATOM      2  C   UNL     1      -6.595   3.045   0.688  0.00  0.00    +0.244 C 
ATOM      3  O   UNL     1      -6.709   3.388   1.849  0.00  0.00    -0.270 OA
ATOM      4  H   UNL     1      -7.597   2.451  -0.957  0.00  0.00    +0.149 HD
ENDROOT
BRANCH   2   5
ATOM      5  C   UNL     1      -5.256   2.980   0.065  0.00  0.00    +0.039 A 
ATOM      6  C   UNL     1      -5.121   2.587  -1.268  0.00  0.00    +0.014 A 
ATOM      7  C   UNL     1      -3.870   2.528  -1.843  0.00  0.00    +0.023 A 
ATOM      8  C   UNL     1      -2.747   2.857  -1.101  0.00  0.00    +0.067 A 
ATOM      9  C   UNL     1      -2.874   3.248   0.221  0.00  0.00    +0.124 A 
ATOM     10  C   UNL     1      -4.121   3.306   0.809  0.00  0.00    +0.043 A 
ATOM     11 CL   UNL     1      -1.175   2.781  -1.833  0.00  0.00    -0.082 Cl
BRANCH   9  12
ATOM     12  S   UNL     1      -1.441   3.665   1.157  0.00  0.00    +0.062 S 
ATOM     13  O   UNL     1      -1.893   4.028   2.454  0.00  0.00    -0.153 OA
ATOM     14  O   UNL     1      -0.668   4.540   0.347  0.00  0.00    -0.153 OA
BRANCH  12  15
ATOM     15  N   UNL     1      -0.553   2.278   1.336  0.00  0.00    -0.177 NA
ATOM     16  C   UNL     1       0.609   1.993   0.427  0.00  0.00    +0.109 C 
ATOM     17  C   UNL     1       1.831   2.127   1.217  0.00  0.00    +0.017 C 
ATOM     18  C   UNL     1       1.899   1.208   2.432  0.00  0.00    +0.001 C 
ATOM     19  C   UNL     1       1.266   1.978   3.554  0.00  0.00    +0.001 C 
ATOM     20  C   UNL     1      -0.214   1.562   3.740  0.00  0.00    +0.017 C 
ATOM     21  C   UNL     1      -0.880   1.331   2.361  0.00  0.00    +0.109 C 
ENDBRANCH  12  15
ENDBRANCH   9  12
ENDBRANCH   2   5
BRANCH   1  22
ATOM     22  C   UNL     1      -9.016   2.789   0.586  0.00  0.00    +0.097 C 
BRANCH  22  23
ATOM     23  C   UNL     1     -10.075   2.379  -0.439  0.00  0.00    +0.016 C 
BRANCH  23  28
ATOM     24  C   UNL     1      -9.509   0.076   0.112  0.00  0.00    -0.078 C 
ATOM     25  C   UNL     1      -9.706  -1.292  -0.589  0.00  0.00    -0.020 C 
ATOM     26  C   UNL     1     -10.872  -1.016  -1.565  0.00  0.00    -0.020 C 
ATOM     27  C   UNL     1     -10.870   0.510  -1.772  0.00  0.00    -0.078 C 
ATOM     28  N   UNL     1      -9.750   1.027  -0.985  0.00  0.00    +0.387 N 
ATOM     29  H   UNL     1      -8.912   1.095  -1.575  0.00  0.00    -0.081 HD
ENDBRANCH  23  28
BRANCH  23  32
ATOM     30  C   UNL     1     -13.494   2.788   0.876  0.00  0.00    +0.041 A 
ATOM     31  C   UNL     1     -12.415   3.225   0.074  0.00  0.00    +0.043 A 
ATOM     32  C   UNL     1     -11.425   2.327   0.229  0.00  0.00    +0.093 A 
ATOM     33  O   UNL     1     -11.843   1.378   1.083  0.00  0.00    -0.469 OA
ATOM     34  C   UNL     1     -13.097   1.653   1.478  0.00  0.00    +0.195 A 
ENDBRANCH  23  32
ENDBRANCH  22  23
ENDBRANCH   1  22
TORSDOF 7
