REMARK  Name = ZINC13349125
REMARK  7 active torsions:
REMARK  status: ('A' for Active; 'I' for Inactive)
REMARK    1  A    between atoms: C_1  and  C_2
REMARK    2  A    between atoms: C_5  and  S_10
REMARK    3  A    between atoms: C_7  and  C_8
REMARK    4  A    between atoms: S_10  and  N_13
REMARK    5  A    between atoms: N_13  and  N_14
REMARK    6  A    between atoms: C_15  and  C_17
REMARK    7  A    between atoms: C_19  and  C_27
REMARK                            x       y       z     vdW  Elec       q    Type
REMARK                         _______ _______ _______ _____ _____    ______ ____
ROOT
ATOM      1  N   UNL     1      -3.445   2.549  -2.028  0.00  0.00    -0.228 N 
ATOM      2  C   UNL     1      -4.638   2.170  -2.528  0.00  0.00    +0.259 C 
ATOM      3  O   UNL     1      -5.585   2.931  -2.482  0.00  0.00    -0.269 OA
ATOM      4  H   UNL     1      -2.689   1.942  -2.065  0.00  0.00    +0.171 HD
ENDROOT
BRANCH   2   5
ATOM      5  C   UNL     1      -4.795   0.830  -3.132  0.00  0.00    +0.049 A 
ATOM      6  C   UNL     1      -3.768  -0.100  -3.086  0.00  0.00    +0.042 A 
ATOM      7  C   UNL     1      -3.953  -1.363  -3.670  0.00  0.00    +0.072 A 
ATOM      8  N   UNL     1      -5.082  -1.691  -4.265  0.00  0.00    -0.247 NA
ATOM      9  C   UNL     1      -6.108  -0.841  -4.343  0.00  0.00    +0.072 A 
ATOM     10  C   UNL     1      -6.005   0.453  -3.772  0.00  0.00    +0.013 A 
ATOM     11  C   UNL     1      -7.085   1.339  -3.865  0.00  0.00    +0.011 A 
ATOM     12  C   UNL     1      -8.229   0.946  -4.492  0.00  0.00    +0.001 A 
ATOM     13  C   UNL     1      -8.337  -0.326  -5.049  0.00  0.00    +0.002 A 
ATOM     14  C   UNL     1      -7.306  -1.211  -4.983  0.00  0.00    +0.028 A 
BRANCH   7  15
ATOM     15  C   UNL     1      -2.850  -2.353  -3.616  0.00  0.00    +0.000 A 
ATOM     16  C   UNL     1      -1.645  -2.024  -2.997  0.00  0.00    +0.011 A 
ATOM     17  C   UNL     1      -0.624  -2.950  -2.945  0.00  0.00    +0.020 A 
ATOM     18  C   UNL     1      -0.790  -4.200  -3.517  0.00  0.00    +0.041 A 
ATOM     19  C   UNL     1      -1.983  -4.530  -4.138  0.00  0.00    +0.020 A 
ATOM     20  C   UNL     1      -3.012  -3.613  -4.191  0.00  0.00    +0.011 A 
ATOM     21 CL   UNL     1       0.502  -5.359  -3.455  0.00  0.00    -0.084 Cl
ENDBRANCH   7  15
ENDBRANCH   2   5
BRANCH   1  22
ATOM     22  N   UNL     1      -3.296   3.819  -1.456  0.00  0.00    -0.108 NA
ATOM     23  H   UNL     1      -3.531   4.611  -1.964  0.00  0.00    +0.172 HD
BRANCH  22  24
ATOM     24  S   UNL     1      -2.717   3.968   0.089  0.00  0.00    +0.074 S 
ATOM     25  O   UNL     1      -3.539   3.151   0.911  0.00  0.00    -0.152 OA
ATOM     26  O   UNL     1      -2.546   5.359   0.326  0.00  0.00    -0.152 OA
BRANCH  24  31
ATOM     27  C   UNL     1       2.790   1.481   0.184  0.00  0.00    +0.044 C 
ATOM     28  C   UNL     1       1.418   2.105   0.159  0.00  0.00    -0.036 A 
ATOM     29  C   UNL     1       0.305   1.337   0.428  0.00  0.00    +0.006 A 
ATOM     30  C   UNL     1      -0.956   1.906   0.401  0.00  0.00    +0.029 A 
ATOM     31  C   UNL     1      -1.108   3.251   0.114  0.00  0.00    +0.108 A 
ATOM     32  C   UNL     1      -0.003   4.031  -0.157  0.00  0.00    +0.044 A 
ATOM     33  C   UNL     1       1.272   3.462  -0.136  0.00  0.00    +0.068 A 
BRANCH  33  34
ATOM     34  C   UNL     1       2.460   4.291  -0.425  0.00  0.00    +0.387 C 
ATOM     35  O   UNL     1       3.554   3.772  -0.521  0.00  0.00    -0.241 OA
ATOM     36  O   UNL     1       2.330   5.622  -0.582  0.00  0.00    -0.241 OA
ENDBRANCH  33  34
ENDBRANCH  24  31
ENDBRANCH  22  24
ENDBRANCH   1  22
TORSDOF 6
