REMARK  Name = ZINC05687098
REMARK  7 active torsions:
REMARK  status: ('A' for Active; 'I' for Inactive)
REMARK    1  A    between atoms: C_1  and  C_2
REMARK    2  A    between atoms: C_9  and  C_24
REMARK    3  A    between atoms: C_10  and  C_22
REMARK    4  A    between atoms: C_11  and  C_13
REMARK    5  A    between atoms: C_16  and  C_19
REMARK    6  A    between atoms: C_19  and  C_20
REMARK    7  A    between atoms: C_19  and  C_21
REMARK                            x       y       z     vdW  Elec       q    Type
REMARK                         _______ _______ _______ _____ _____    ______ ____
ROOT
ATOM      1  C   UNL     1      -0.018   1.503   0.010  0.00  0.00    +0.086 C 
ATOM      2  C   UNL     1       0.002  -0.004   0.002  0.00  0.00    +0.108 A 
ATOM      3  N   UNL     1       0.008  -0.785  -1.104  0.00  0.00    -0.342 N 
ATOM      4  H   UNL     1      -0.001  -0.481  -2.025  0.00  0.00    +0.167 HD
ATOM      5  C   UNL     1       0.029  -2.077  -0.677  0.00  0.00    +0.093 A 
ATOM      6  C   UNL     1       0.034  -2.050   0.681  0.00  0.00    +0.243 A 
ATOM      7  N   UNL     1       0.023  -0.771   1.063  0.00  0.00    -0.198 NA
ATOM      8  O   UNL     1       0.050  -3.181   1.435  0.00  0.00    -0.424 OA
ATOM      9  C   UNL     1      -0.214  -4.352   0.812  0.00  0.00    +0.220 C 
ATOM     10  C   UNL     1      -0.234  -4.500  -0.528  0.00  0.00    +0.095 C 
ATOM     11  C   UNL     1       0.045  -3.355  -1.471  0.00  0.00    +0.116 C 
ENDROOT
BRANCH  11  12
ATOM     12  C   UNL     1       1.397  -3.541  -2.109  0.00  0.00    -0.033 A 
ATOM     13  C   UNL     1       2.527  -3.634  -1.318  0.00  0.00    +0.005 A 
ATOM     14  C   UNL     1       3.768  -3.804  -1.903  0.00  0.00    +0.004 A 
ATOM     15  C   UNL     1       3.879  -3.881  -3.279  0.00  0.00    -0.045 A 
ATOM     16  C   UNL     1       2.749  -3.788  -4.069  0.00  0.00    +0.004 A 
ATOM     17  C   UNL     1       1.508  -3.623  -3.484  0.00  0.00    +0.005 A 
BRANCH  15  18
ATOM     18  C   UNL     1       5.232  -4.065  -3.917  0.00  0.00    +0.013 C 
ATOM     19  C   UNL     1       5.241  -5.362  -4.727  0.00  0.00    +0.012 C 
ATOM     20  C   UNL     1       5.524  -2.883  -4.843  0.00  0.00    +0.012 C 
ENDBRANCH  15  18
ENDBRANCH  11  12
BRANCH  10  21
ATOM     21  C   UNL     1      -0.531  -5.789  -1.077  0.00  0.00    +0.100 C 
ATOM     22  N   UNL     1      -0.767  -6.812  -1.511  0.00  0.00    -0.191 NA
ENDBRANCH  10  21
BRANCH   9  23
ATOM     23  C   UNL     1      -0.488  -5.500   1.622  0.00  0.00    +0.139 C 
ATOM     24  N   UNL     1      -0.706  -6.412   2.264  0.00  0.00    -0.188 NA
ENDBRANCH   9  23
TORSDOF 4
