REMARK  Name = ZINC04595699
REMARK  3 active torsions:
REMARK  status: ('A' for Active; 'I' for Inactive)
REMARK    1  A    between atoms: C_1  and  C_2
REMARK    2  A    between atoms: C_2  and  N_10
REMARK    3  A    between atoms: N_10  and  N_11
REMARK                            x       y       z     vdW  Elec       q    Type
REMARK                         _______ _______ _______ _____ _____    ______ ____
ROOT
ATOM      1  N   UNL     1       0.074  -0.301  -2.390  0.00  0.00    -0.235 N 
ATOM      2  C   UNL     1      -0.024  -1.113  -3.507  0.00  0.00    +0.235 A 
ATOM      3  N   UNL     1       0.054  -0.567  -4.711  0.00  0.00    -0.199 NA
ATOM      4  C   UNL     1      -0.036  -1.319  -5.803  0.00  0.00    +0.123 A 
ATOM      5  C   UNL     1      -0.214  -2.696  -5.665  0.00  0.00    +0.083 A 
ATOM      6  C   UNL     1      -0.290  -3.226  -4.390  0.00  0.00    +0.136 A 
ATOM      7  N   UNL     1      -0.187  -2.417  -3.344  0.00  0.00    -0.202 NA
ATOM      8 CL   UNL     1      -0.511  -4.933  -4.160  0.00  0.00    -0.062 Cl
ATOM      9  N   UNL     1       0.045  -0.744  -7.061  0.00  0.00    -0.343 N 
ATOM     10  H   UNL     1       0.194   0.656  -2.495  0.00  0.00    +0.173 HD
ATOM     11  H   UNL     1       0.169   0.214  -7.149  0.00  0.00    +0.144 HD
ATOM     12  H   UNL     1      -0.021  -1.299  -7.854  0.00  0.00    +0.144 HD
ENDROOT
BRANCH   1  13
ATOM     13  N   UNL     1      -0.000  -0.861  -1.108  0.00  0.00    -0.268 N 
ATOM     14  H   UNL     1      -0.044  -1.824  -1.001  0.00  0.00    +0.170 HD
BRANCH  13  16
ATOM     15  C   UNL     1      -0.068   1.431  -0.196  0.00  0.00    +0.062 C 
ATOM     16  C   UNL     1      -0.011  -0.065  -0.029  0.00  0.00    +0.026 C 
ATOM     17  C   UNL     1       0.031  -0.625   1.254  0.00  0.00    -0.007 C 
ATOM     18  C   UNL     1      -0.030  -2.027   1.416  0.00  0.00    +0.013 C 
ATOM     19  C   UNL     1       0.011  -2.567   2.660  0.00  0.00    +0.051 C 
ATOM     20  C   UNL     1       0.114  -1.732   3.788  0.00  0.00    +0.179 C 
ATOM     21  O   UNL     1       0.151  -2.221   4.910  0.00  0.00    -0.288 OA
ATOM     22  C   UNL     1       0.176  -0.334   3.629  0.00  0.00    +0.051 C 
ATOM     23  C   UNL     1       0.140   0.211   2.387  0.00  0.00    +0.013 C 
ENDBRANCH  13  16
ENDBRANCH   1  13
TORSDOF 2
