REMARK  Name = ZINC37978332
REMARK  5 active torsions:
REMARK  status: ('A' for Active; 'I' for Inactive)
REMARK    1  A    between atoms: C_1  and  C_2
REMARK    2  A    between atoms: C_4  and  C_15
REMARK    3  A    between atoms: C_7  and  C_8
REMARK    4  A    between atoms: N_11  and  C_12
REMARK    5  A    between atoms: C_12  and  C_13
REMARK                            x       y       z     vdW  Elec       q    Type
REMARK                         _______ _______ _______ _____ _____    ______ ____
ROOT
ATOM      1  C   UNL     1      -0.014   1.502   0.031  0.00  0.00    +0.045 C 
ATOM      2  C   UNL     1       0.004  -0.004   0.012  0.00  0.00    -0.031 A 
ATOM      3  C   UNL     1      -0.101  -0.699  -1.179  0.00  0.00    +0.025 A 
ATOM      4  C   UNL     1      -0.081  -2.083  -1.166  0.00  0.00    +0.015 A 
ATOM      5  N   UNL     1       0.037  -2.755  -0.037  0.00  0.00    -0.347 N 
ATOM      6  C   UNL     1       0.141  -2.142   1.132  0.00  0.00    +0.112 A 
ATOM      7  C   UNL     1       0.134  -0.736   1.200  0.00  0.00    +0.104 A 
ATOM      8  N   UNL     1       0.262  -2.885   2.290  0.00  0.00    -0.319 N 
ATOM      9  C   UNL     1      -0.195  -2.836  -2.466  0.00  0.00    +0.063 C 
ATOM     10  H   UNL     1       0.261  -2.443   3.153  0.00  0.00    +0.148 HD
ATOM     11  H   UNL     1       0.047  -3.724  -0.064  0.00  0.00    +0.167 HD
ENDROOT
BRANCH   7  12
ATOM     12  C   UNL     1       0.255  -0.048   2.494  0.00  0.00    +0.390 C 
ATOM     13  O   UNL     1      -0.740   0.145   3.180  0.00  0.00    -0.240 OA
ATOM     14  O   UNL     1       1.350   0.331   2.885  0.00  0.00    -0.240 OA
ENDBRANCH   7  12
BRANCH   8  15
ATOM     15  C   UNL     1       0.390  -4.343   2.214  0.00  0.00    +0.192 C 
BRANCH  15  16
ATOM     16  C   UNL     1       0.503  -4.897   3.573  0.00  0.00    -0.087 C 
ATOM     17  C   UNL     1       0.594  -5.338   4.657  0.00  0.00    +0.005 C 
ENDBRANCH  15  16
ENDBRANCH   8  15
TORSDOF 3
