REMARK  Name = ZINC17193974
REMARK  5 active torsions:
REMARK  status: ('A' for Active; 'I' for Inactive)
REMARK    1  A    between atoms: C_1  and  C_2
REMARK    2  A    between atoms: N_4  and  C_15
REMARK    3  A    between atoms: C_8  and  N_9
REMARK    4  A    between atoms: N_9  and  N_10
REMARK    5  A    between atoms: C_18  and  C_21
REMARK                            x       y       z     vdW  Elec       q    Type
REMARK                         _______ _______ _______ _____ _____    ______ ____
ROOT
ATOM      1  C   UNL     1       0.039  -3.180  -1.607  0.00  0.00    +0.060 A 
ATOM      2  C   UNL     1       0.053  -4.489  -1.145  0.00  0.00    +0.026 A 
ATOM      3  C   UNL     1       0.064  -5.538  -2.044  0.00  0.00    +0.006 A 
ATOM      4  C   UNL     1       0.060  -5.285  -3.404  0.00  0.00    -0.041 A 
ATOM      5  C   UNL     1       0.046  -3.982  -3.867  0.00  0.00    +0.006 A 
ATOM      6  C   UNL     1       0.029  -2.929  -2.973  0.00  0.00    +0.026 A 
ENDROOT
BRANCH   4   7
ATOM      7  C   UNL     1       0.071  -6.431  -4.382  0.00  0.00    -0.003 C 
ATOM      8  C   UNL     1       1.330  -7.274  -4.165  0.00  0.00    +0.015 C 
ATOM      9  C   UNL     1       1.342  -8.437  -5.158  0.00  0.00    -0.010 C 
ATOM     10  C   UNL     1       1.335  -7.889  -6.587  0.00  0.00    +0.007 C 
ATOM     11  C   UNL     1       0.076  -7.046  -6.803  0.00  0.00    -0.010 C 
ATOM     12  C   UNL     1       0.065  -5.883  -5.810  0.00  0.00    +0.015 C 
ATOM     13  C   UNL     1      -1.163  -7.916  -6.585  0.00  0.00    +0.007 C 
ATOM     14  C   UNL     1      -1.157  -8.464  -5.157  0.00  0.00    -0.010 C 
ATOM     15  C   UNL     1       0.102  -9.307  -4.940  0.00  0.00    +0.007 C 
ATOM     16  C   UNL     1      -1.168  -7.300  -4.163  0.00  0.00    +0.015 C 
ENDBRANCH   4   7
BRANCH   1  20
ATOM     17  C   UNL     1      -0.018   1.503   0.010  0.00  0.00    +0.068 C 
ATOM     18  C   UNL     1       0.002  -0.004   0.002  0.00  0.00    +0.070 C 
ATOM     19  N   UNL     1       0.008  -0.765  -1.049  0.00  0.00    -0.176 NA
ATOM     20  N   UNL     1       0.029  -2.115  -0.698  0.00  0.00    -0.156 N 
ATOM     21  C   UNL     1       0.036  -2.244   0.644  0.00  0.00    +0.273 C 
ATOM     22  O   UNL     1       0.054  -3.285   1.280  0.00  0.00    -0.268 OA
ATOM     23  C   UNL     1       0.025  -0.879   1.184  0.00  0.00    +0.077 C 
ATOM     24  C   UNL     1       0.033  -0.499   2.515  0.00  0.00    +0.105 C 
BRANCH  24  25
ATOM     25  N   UNL     1       0.055  -1.436   3.484  0.00  0.00    -0.257 N 
ATOM     26  H   UNL     1       0.065  -2.377   3.248  0.00  0.00    +0.172 HD
BRANCH  25  27
ATOM     27  N   UNL     1       0.062  -1.051   4.831  0.00  0.00    -0.237 N 
ATOM     28  C   UNL     1       0.043   0.213   5.317  0.00  0.00    +0.244 A 
ATOM     29  N   UNL     1       0.059   0.128   6.620  0.00  0.00    -0.137 NA
ATOM     30  N   UNL     1       0.085  -1.108   6.973  0.00  0.00    -0.137 NA
ATOM     31  C   UNL     1       0.083  -1.868   5.912  0.00  0.00    +0.244 A 
ENDBRANCH  25  27
ENDBRANCH  24  25
ENDBRANCH   1  20
TORSDOF 4
