REMARK  Name = ZINC46253344
REMARK  9 active torsions:
REMARK  status: ('A' for Active; 'I' for Inactive)
REMARK    1  A    between atoms: C_1  and  C_2
REMARK    2  A    between atoms: C_2  and  N_3
REMARK    3  A    between atoms: N_3  and  C_4
REMARK    4  A    between atoms: N_3  and  C_6
REMARK    5  A    between atoms: C_4  and  C_5
REMARK    6  A    between atoms: C_6  and  C_8
REMARK    7  A    between atoms: C_6  and  C_17
REMARK    8  A    between atoms: C_8  and  N_9
REMARK    9  A    between atoms: N_12  and  N_13
REMARK                            x       y       z     vdW  Elec       q    Type
REMARK                         _______ _______ _______ _____ _____    ______ ____
ROOT
ATOM      1  C   UNL     1       0.961  -2.712  -2.661  0.00  0.00    +0.095 C 
ENDROOT
BRANCH   1   2
ATOM      2  N   UNL     1       2.389  -2.408  -2.774  0.00  0.00    -0.299 N 
ATOM      3  C   UNL     1       3.050  -2.688  -3.914  0.00  0.00    +0.316 C 
ATOM      4  O   UNL     1       2.460  -3.193  -4.850  0.00  0.00    -0.251 OA
ATOM      5  N   UNL     1       4.365  -2.409  -4.018  0.00  0.00    -0.217 N 
ATOM      6  H   UNL     1       2.860  -2.006  -2.027  0.00  0.00    +0.150 HD
ATOM      7  H   UNL     1       4.840  -2.611  -4.839  0.00  0.00    +0.174 HD
BRANCH   5   8
ATOM      8  N   UNL     1       5.044  -1.828  -2.940  0.00  0.00    -0.217 N 
ATOM      9  C   UNL     1       6.359  -1.548  -3.043  0.00  0.00    +0.313 C 
ATOM     10  O   UNL     1       6.949  -1.044  -2.107  0.00  0.00    -0.252 OA
ATOM     11  N   UNL     1       7.019  -1.828  -4.184  0.00  0.00    -0.312 N 
ATOM     12  H   UNL     1       4.569  -1.626  -2.119  0.00  0.00    +0.174 HD
ATOM     13  H   UNL     1       6.549  -2.231  -4.931  0.00  0.00    +0.147 HD
ATOM     14  H   UNL     1       7.965  -1.627  -4.258  0.00  0.00    +0.147 HD
ENDBRANCH   5   8
ENDBRANCH   1   2
BRANCH   1  15
ATOM     15  C   UNL     1       0.423  -2.153  -1.342  0.00  0.00    -0.020 C 
BRANCH  15  16
ATOM     16  C   UNL     1      -0.987  -2.641  -1.128  0.00  0.00    -0.052 A 
ATOM     17  C   UNL     1      -1.240  -3.702  -0.278  0.00  0.00    +0.009 A 
ATOM     18  C   UNL     1      -2.519  -4.116  -0.107  0.00  0.00    +0.045 A 
ATOM     19  S   UNL     1      -3.416  -2.992  -1.166  0.00  0.00    -0.105 S 
ATOM     20  C   UNL     1      -2.026  -2.043  -1.760  0.00  0.00    +0.047 A 
ENDBRANCH  15  16
BRANCH  15  21
ATOM     21  N   UNL     1       0.430  -0.685  -1.393  0.00  0.00    +0.385 N 
ATOM     22  H   UNL     1      -0.064  -0.375  -2.216  0.00  0.00    -0.081 HD
BRANCH  21  24
ATOM     23  C   UNL     1      -0.347   1.371  -0.314  0.00  0.00    -0.017 C 
ATOM     24  C   UNL     1      -0.229  -0.150  -0.195  0.00  0.00    -0.081 C 
ENDBRANCH  21  24
BRANCH  21  25
ATOM     25  C   UNL     1       1.817  -0.204  -1.445  0.00  0.00    -0.081 C 
ATOM     26  C   UNL     1       2.595  -0.762  -0.252  0.00  0.00    -0.017 C 
ENDBRANCH  21  25
ENDBRANCH  15  21
ENDBRANCH   1  15
TORSDOF 7
