REMARK  Name = ZINC36542057
REMARK  14 active torsions:
REMARK  status: ('A' for Active; 'I' for Inactive)
REMARK    1  A    between atoms: C_1  and  C_2
REMARK    2  A    between atoms: C_2  and  C_3
REMARK    3  A    between atoms: C_3  and  C_4
REMARK    4  A    between atoms: C_4  and  C_5
REMARK    5  A    between atoms: C_5  and  C_6
REMARK    6  A    between atoms: C_7  and  C_8
REMARK    7  A    between atoms: N_10  and  C_11
REMARK    8  A    between atoms: N_10  and  C_18
REMARK    9  A    between atoms: C_18  and  C_20
REMARK   10  A    between atoms: C_18  and  C_29
REMARK   11  A    between atoms: C_21  and  O_28
REMARK   12  A    between atoms: C_23  and  O_27
REMARK   13  A    between atoms: C_25  and  O_26
REMARK   14  A    between atoms: N_31  and  C_32
REMARK                            x       y       z     vdW  Elec       q    Type
REMARK                         _______ _______ _______ _____ _____    ______ ____
ROOT
ATOM      1  C   UNL     1      -1.021  -3.853  -6.718  0.00  0.00    +0.204 C 
ENDROOT
BRANCH   1   2
ATOM      2  C   UNL     1      -0.662  -4.397  -8.077  0.00  0.00    +0.065 A 
ATOM      3  C   UNL     1      -0.779  -5.755  -8.334  0.00  0.00    +0.129 A 
ATOM      4  C   UNL     1      -0.449  -6.255  -9.584  0.00  0.00    +0.091 A 
ATOM      5  C   UNL     1      -0.003  -5.397 -10.579  0.00  0.00    +0.124 A 
ATOM      6  C   UNL     1       0.113  -4.040 -10.322  0.00  0.00    +0.091 A 
ATOM      7  C   UNL     1      -0.221  -3.539  -9.073  0.00  0.00    +0.129 A 
BRANCH   7   8
ATOM      8  O   UNL     1      -0.112  -2.207  -8.824  0.00  0.00    -0.506 OA
ATOM      9  H   UNL     1       0.753  -1.940  -8.484  0.00  0.00    +0.292 HD
ENDBRANCH   7   8
BRANCH   5  10
ATOM     10  O   UNL     1       0.321  -5.888 -11.804  0.00  0.00    -0.507 OA
ATOM     11  H   UNL     1      -0.418  -5.908 -12.427  0.00  0.00    +0.292 HD
ENDBRANCH   5  10
BRANCH   3  12
ATOM     12  O   UNL     1      -1.216  -6.595  -7.359  0.00  0.00    -0.506 OA
ATOM     13  H   UNL     1      -2.176  -6.716  -7.345  0.00  0.00    +0.292 HD
ENDBRANCH   3  12
ENDBRANCH   1   2
BRANCH   1  14
ATOM     14  C   UNL     1      -2.405  -4.315  -6.341  0.00  0.00    +0.239 C 
ATOM     15  O   UNL     1      -2.570  -4.984  -5.344  0.00  0.00    -0.273 OA
ATOM     16  N   UNL     1      -3.459  -3.983  -7.113  0.00  0.00    -0.311 N 
ATOM     17  H   UNL     1      -3.327  -3.448  -7.911  0.00  0.00    +0.149 HD
BRANCH  16  18
ATOM     18  C   UNL     1      -4.805  -4.432  -6.747  0.00  0.00    +0.073 C 
ATOM     19  C   UNL     1      -5.037  -5.843  -7.290  0.00  0.00    +0.022 C 
ATOM     20  C   UNL     1      -6.442  -6.312  -6.908  0.00  0.00    +0.002 C 
ATOM     21  C   UNL     1      -7.479  -5.358  -7.505  0.00  0.00    +0.000 C 
ATOM     22  C   UNL     1      -7.246  -3.947  -6.962  0.00  0.00    +0.002 C 
ATOM     23  C   UNL     1      -5.841  -3.478  -7.345  0.00  0.00    +0.022 C 
ENDBRANCH  16  18
ENDBRANCH   1  14
BRANCH   1  26
ATOM     24  C   UNL     1       0.584  -3.467  -4.926  0.00  0.00    +0.244 C 
ATOM     25  O   UNL     1       0.363  -2.275  -5.025  0.00  0.00    -0.270 OA
ATOM     26  N   UNL     1      -0.057  -4.340  -5.728  0.00  0.00    -0.250 N 
BRANCH  26  27
ATOM     27  C   UNL     1       0.197  -5.711  -5.614  0.00  0.00    +0.056 A 
ATOM     28  C   UNL     1      -0.574  -6.494  -4.766  0.00  0.00    +0.025 A 
ATOM     29  C   UNL     1      -0.320  -7.847  -4.656  0.00  0.00    +0.002 A 
ATOM     30  C   UNL     1       0.701  -8.423  -5.390  0.00  0.00    +0.002 A 
ATOM     31  C   UNL     1       1.471  -7.647  -6.236  0.00  0.00    +0.022 A 
ATOM     32  C   UNL     1       1.219  -6.293  -6.355  0.00  0.00    +0.062 A 
ATOM     33 CL   UNL     1       2.181  -5.321  -7.424  0.00  0.00    -0.082 Cl
ENDBRANCH  26  27
BRANCH  24  35
ATOM     34  C   UNL     1       2.079  -3.114  -3.047  0.00  0.00    -0.022 C 
ATOM     35  C   UNL     1       1.552  -3.955  -3.932  0.00  0.00    +0.063 C 
BRANCH  34  36
ATOM     36  C   UNL     1       1.441  -1.768  -2.814  0.00  0.00    +0.027 C 
BRANCH  36  37
ATOM     37  C   UNL     1       1.217  -1.562  -1.315  0.00  0.00    +0.004 C 
BRANCH  37  38
ATOM     38  C   UNL     1       0.570  -0.197  -1.079  0.00  0.00    +0.000 C 
BRANCH  38  40
ATOM     39  C   UNL     1      -0.301   1.375   0.657  0.00  0.00    +0.004 C 
ATOM     40  C   UNL     1       0.346   0.009   0.421  0.00  0.00    -0.003 C 
ENDBRANCH  38  40
ENDBRANCH  37  38
ENDBRANCH  36  37
ENDBRANCH  34  36
ENDBRANCH  24  35
ENDBRANCH   1  26
TORSDOF 13
