REMARK  Name = ZINC16619331
REMARK  4 active torsions:
REMARK  status: ('A' for Active; 'I' for Inactive)
REMARK    1  A    between atoms: C_4  and  N_9
REMARK    2  A    between atoms: C_5  and  C_6
REMARK    3  A    between atoms: C_10  and  C_12
REMARK    4  A    between atoms: C_12  and  N_13
REMARK                            x       y       z     vdW  Elec       q    Type
REMARK                         _______ _______ _______ _____ _____    ______ ____
ROOT
ATOM      1  C   UNL     1      -3.253   5.160   0.043  0.00  0.00    +0.222 C 
ENDROOT
BRANCH   1   2
ATOM      2  N   UNL     1      -2.906   3.736   0.035  0.00  0.00    -0.290 N 
ATOM      3  C   UNL     1      -3.909   2.827   0.036  0.00  0.00    +0.203 A 
ATOM      4  N   UNL     1      -3.700   1.528   0.043  0.00  0.00    -0.230 NA
ATOM      5  C   UNL     1      -2.436   1.114   0.030  0.00  0.00    +0.116 A 
ATOM      6  C   UNL     1      -1.323   1.983   0.019  0.00  0.00    +0.076 A 
ATOM      7  C   UNL     1      -1.596   3.392   0.027  0.00  0.00    +0.263 A 
ATOM      8  O   UNL     1      -0.706   4.225   0.027  0.00  0.00    -0.267 OA
ATOM      9  C   UNL     1      -0.016   1.350   0.009  0.00  0.00    -0.023 A 
ATOM     10  C   UNL     1       0.002  -0.004   0.002  0.00  0.00    -0.004 A 
ATOM     11  S   UNL     1      -1.705  -0.492   0.016  0.00  0.00    -0.073 S 
ATOM     12  C   UNL     1       1.206  -0.895  -0.014  0.00  0.00    +0.043 C 
ATOM     13  C   UNL     1       2.430  -0.051  -0.396  0.00  0.00    +0.005 C 
ATOM     14  C   UNL     1       2.428   1.226   0.449  0.00  0.00    +0.005 C 
ATOM     15  C   UNL     1       1.288   2.142   0.001  0.00  0.00    +0.037 C 
ENDBRANCH   1   2
BRANCH   1  17
ATOM     16  N   UNL     1      -3.695   6.942  -1.615  0.00  0.00    -0.278 N 
ATOM     17  C   UNL     1      -3.380   5.654  -1.376  0.00  0.00    +0.237 C 
ATOM     18  O   UNL     1      -3.197   4.892  -2.302  0.00  0.00    -0.273 OA
ATOM     19  H   UNL     1      -3.841   7.551  -0.875  0.00  0.00    +0.155 HD
BRANCH  16  23
ATOM     20  C   UNL     1      -4.179   8.871  -4.793  0.00  0.00    +0.022 A 
ATOM     21  C   UNL     1      -3.922   7.803  -5.570  0.00  0.00    +0.048 A 
ATOM     22  S   UNL     1      -3.600   6.508  -4.391  0.00  0.00    -0.081 S 
ATOM     23  C   UNL     1      -3.811   7.396  -2.920  0.00  0.00    +0.084 A 
ATOM     24  C   UNL     1      -4.131   8.674  -3.364  0.00  0.00    +0.065 A 
BRANCH  24  25
ATOM     25  C   UNL     1      -4.402   9.768  -2.427  0.00  0.00    +0.244 C 
ATOM     26  O   UNL     1      -4.350   9.569  -1.227  0.00  0.00    -0.270 OA
ATOM     27  N   UNL     1      -4.709  10.995  -2.894  0.00  0.00    -0.325 N 
ATOM     28  H   UNL     1      -4.750  11.153  -3.850  0.00  0.00    +0.145 HD
ATOM     29  H   UNL     1      -4.888  11.719  -2.274  0.00  0.00    +0.145 HD
ENDBRANCH  24  25
ENDBRANCH  16  23
ENDBRANCH   1  17
TORSDOF 4
