REMARK  Name = ZINC19877653
REMARK  6 active torsions:
REMARK  status: ('A' for Active; 'I' for Inactive)
REMARK    1  A    between atoms: C_1  and  C_2
REMARK    2  A    between atoms: C_9  and  C_10
REMARK    3  A    between atoms: C_9  and  C_11
REMARK    4  A    between atoms: C_12  and  S_16
REMARK    5  A    between atoms: S_16  and  O_19
REMARK    6  A    between atoms: O_19  and  N_20
REMARK                            x       y       z     vdW  Elec       q    Type
REMARK                         _______ _______ _______ _____ _____    ______ ____
ROOT
ATOM      1  C   UNL     1      -2.732   3.717  -1.309  0.00  0.00    +0.009 C 
ATOM      2  C   UNL     1      -1.372   3.389  -0.690  0.00  0.00    +0.002 C 
ATOM      3  C   UNL     1      -0.950   1.930  -1.045  0.00  0.00    +0.061 C 
ATOM      4  C   UNL     1      -0.034   1.585   0.182  0.00  0.00    +0.017 C 
ATOM      5  C   UNL     1      -1.096   1.948   1.280  0.00  0.00    +0.030 C 
ATOM      6  C   UNL     1      -1.464   3.402   0.854  0.00  0.00    -0.027 C 
ATOM      7  C   UNL     1      -0.462   4.399   1.440  0.00  0.00    +0.011 C 
ATOM      8  C   UNL     1      -2.886   3.747   1.300  0.00  0.00    +0.011 C 
ATOM      9  C   UNL     1      -2.303   1.088   0.794  0.00  0.00    +0.231 C 
ATOM     10  C   UNL     1      -2.182   1.067  -0.737  0.00  0.00    +0.163 C 
ATOM     11  O   UNL     1      -2.904   0.512  -1.531  0.00  0.00    -0.295 OA
ENDROOT
BRANCH   9  12
ATOM     12  S   UNL     1      -2.178  -0.601   1.446  0.00  0.00    +0.108 S 
ATOM     13  O   UNL     1      -3.378  -1.315   1.187  0.00  0.00    -0.145 OA
ATOM     14  O   UNL     1      -0.915  -1.161   1.113  0.00  0.00    -0.145 OA
BRANCH  12  15
ATOM     15  O   UNL     1      -2.143  -0.434   2.958  0.00  0.00    -0.148 OA
BRANCH  15  16
ATOM     16  N   UNL     1      -3.432  -0.072   3.547  0.00  0.00    -0.188 NA
ATOM     17  H   UNL     1      -3.323   0.028   4.636  0.00  0.00    +0.152 HD
ATOM     18  H   UNL     1      -3.773   0.884   3.123  0.00  0.00    +0.152 HD
ENDBRANCH  15  16
ENDBRANCH  12  15
ENDBRANCH   9  12
TORSDOF 3
