REMARK  Name = ZINC06108440
REMARK  8 active torsions:
REMARK  status: ('A' for Active; 'I' for Inactive)
REMARK    1  A    between atoms: C_1  and  C_2
REMARK    2  A    between atoms: C_5  and  O_29
REMARK    3  A    between atoms: C_6  and  N_8
REMARK    4  A    between atoms: C_9  and  C_11
REMARK    5  A    between atoms: C_11  and  N_12
REMARK    6  A    between atoms: C_15  and  C_19
REMARK    7  A    between atoms: C_15  and  C_20
REMARK    8  A    between atoms: O_29  and  C_30
REMARK                            x       y       z     vdW  Elec       q    Type
REMARK                         _______ _______ _______ _____ _____    ______ ____
ROOT
ATOM      1  N   UNL     1       1.789   4.832   1.811  0.00  0.00    -0.215 N 
ATOM      2  C   UNL     1       2.339   4.133   0.799  0.00  0.00    +0.251 C 
ATOM      3  O   UNL     1       3.519   3.975   0.574  0.00  0.00    -0.272 OA
ATOM      4  C   UNL     1       1.173   3.583  -0.000  0.00  0.00    +0.135 C 
ATOM      5  N   UNL     1      -0.009   4.084   0.723  0.00  0.00    -0.281 N 
ATOM      6  C   UNL     1       0.452   4.801   1.763  0.00  0.00    +0.310 C 
ATOM      7  O   UNL     1      -0.266   5.359   2.570  0.00  0.00    -0.252 OA
ATOM      8  C   UNL     1       1.196   4.122  -1.432  0.00  0.00    +0.047 C 
ATOM      9  H   UNL     1      -0.938   3.926   0.494  0.00  0.00    +0.152 HD
ENDROOT
BRANCH   4  10
ATOM     10  C   UNL     1       1.195   2.076  -0.002  0.00  0.00    -0.015 A 
ATOM     11  C   UNL     1       2.401   1.402  -0.004  0.00  0.00    +0.006 A 
ATOM     12  C   UNL     1       2.419   0.021  -0.006  0.00  0.00    +0.004 A 
ATOM     13  C   UNL     1       1.231  -0.691  -0.005  0.00  0.00    -0.044 A 
ATOM     14  C   UNL     1       0.025  -0.017  -0.001  0.00  0.00    -0.044 A 
ATOM     15  C   UNL     1       0.009   1.368   0.001  0.00  0.00    +0.010 A 
ATOM     16  C   UNL     1      -1.117  -1.010   0.000  0.00  0.00    +0.036 C 
ATOM     17  C   UNL     1      -0.487  -2.350   0.437  0.00  0.00    +0.009 C 
ATOM     18  C   UNL     1       0.982  -2.184  -0.007  0.00  0.00    +0.036 C 
ENDBRANCH   4  10
BRANCH   1  19
ATOM     19  C   UNL     1       2.560   5.538   2.837  0.00  0.00    +0.214 C 
BRANCH  19  21
ATOM     20  N   UNL     1       3.519   5.046   5.064  0.00  0.00    -0.281 N 
ATOM     21  C   UNL     1       2.822   4.610   3.996  0.00  0.00    +0.235 C 
ATOM     22  O   UNL     1       2.406   3.471   3.967  0.00  0.00    -0.274 OA
ATOM     23  H   UNL     1       3.907   5.935   5.060  0.00  0.00    +0.155 HD
BRANCH  20  29
ATOM     24  C   UNL     1       4.118   0.538   6.933  0.00  0.00    +0.044 C 
ATOM     25  C   UNL     1       3.976   2.027   7.116  0.00  0.00    -0.048 A 
ATOM     26  C   UNL     1       4.006   2.572   8.386  0.00  0.00    +0.007 A 
ATOM     27  C   UNL     1       3.876   3.937   8.560  0.00  0.00    +0.048 A 
ATOM     28  C   UNL     1       3.720   4.764   7.460  0.00  0.00    +0.141 A 
ATOM     29  C   UNL     1       3.683   4.215   6.180  0.00  0.00    +0.076 A 
ATOM     30  C   UNL     1       3.814   2.844   6.013  0.00  0.00    +0.030 A 
BRANCH  28  31
ATOM     31  O   UNL     1       3.598   6.108   7.629  0.00  0.00    -0.493 OA
ATOM     32  C   UNL     1       3.645   6.600   8.970  0.00  0.00    +0.277 C 
ENDBRANCH  28  31
ENDBRANCH  20  29
ENDBRANCH  19  21
ENDBRANCH   1  19
TORSDOF 5
