REMARK  Name = ZINC40357883
REMARK  7 active torsions:
REMARK  status: ('A' for Active; 'I' for Inactive)
REMARK    1  A    between atoms: C_1  and  C_2
REMARK    2  A    between atoms: C_2  and  C_4
REMARK    3  A    between atoms: N_8  and  C_18
REMARK    4  A    between atoms: C_9  and  C_11
REMARK    5  A    between atoms: C_16  and  O_17
REMARK    6  A    between atoms: C_18  and  C_19
REMARK    7  A    between atoms: C_19  and  C_20
REMARK                            x       y       z     vdW  Elec       q    Type
REMARK                         _______ _______ _______ _____ _____    ______ ____
ROOT
ATOM      1  C   UNL     1      -1.214  -0.742   0.110  0.00  0.00    +0.071 C 
ATOM      2  C   UNL     1      -1.355  -2.086   0.222  0.00  0.00    +0.249 C 
ATOM      3  C   UNL     1      -2.794  -2.414   0.326  0.00  0.00    +0.288 C 
ATOM      4  O   UNL     1      -3.247  -3.536   0.437  0.00  0.00    -0.266 OA
ATOM      5  N   UNL     1      -3.527  -1.287   0.279  0.00  0.00    -0.283 N 
ATOM      6  C   UNL     1      -2.605  -0.153   0.148  0.00  0.00    +0.148 C 
ATOM      7  O   UNL     1      -0.344  -2.982   0.235  0.00  0.00    -0.282 OA
ENDROOT
BRANCH   6   8
ATOM      8  C   UNL     1      -2.886   0.594  -1.130  0.00  0.00    +0.019 A 
ATOM      9  C   UNL     1      -2.131   0.340  -2.260  0.00  0.00    +0.009 A 
ATOM     10  C   UNL     1      -2.388   1.025  -3.433  0.00  0.00    +0.001 A 
ATOM     11  C   UNL     1      -3.401   1.965  -3.479  0.00  0.00    +0.004 A 
ATOM     12  C   UNL     1      -4.159   2.222  -2.353  0.00  0.00    +0.046 A 
ATOM     13  C   UNL     1      -3.906   1.532  -1.176  0.00  0.00    +0.122 A 
BRANCH  13  14
ATOM     14  O   UNL     1      -4.654   1.779  -0.068  0.00  0.00    -0.506 OA
ATOM     15  H   UNL     1      -4.263   2.427   0.534  0.00  0.00    +0.292 HD
ENDBRANCH  13  14
ENDBRANCH   6   8
BRANCH   1  17
ATOM     16  C   UNL     1      -0.004   1.479   0.002  0.00  0.00    +0.091 C 
ATOM     17  C   UNL     1       0.002  -0.028  -0.011  0.00  0.00    +0.162 C 
ATOM     18  O   UNL     1       1.050  -0.630  -0.127  0.00  0.00    -0.292 OA
ENDBRANCH   1  17
BRANCH   5  19
ATOM     19  C   UNL     1      -4.988  -1.205   0.353  0.00  0.00    +0.114 C 
BRANCH  19  20
ATOM     20  C   UNL     1      -5.418  -1.066   1.815  0.00  0.00    +0.054 C 
BRANCH  20  21
ATOM     21  C   UNL     1      -6.921  -0.982   1.890  0.00  0.00    -0.046 A 
ATOM     22  C   UNL     1      -7.548   0.248   1.824  0.00  0.00    +0.004 A 
ATOM     23  C   UNL     1      -8.927   0.325   1.893  0.00  0.00    +0.000 A 
ATOM     24  C   UNL     1      -9.678  -0.828   2.029  0.00  0.00    +0.000 A 
ATOM     25  C   UNL     1      -9.050  -2.058   2.094  0.00  0.00    +0.000 A 
ATOM     26  C   UNL     1      -7.672  -2.135   2.020  0.00  0.00    +0.004 A 
ENDBRANCH  20  21
ENDBRANCH  19  20
ENDBRANCH   5  19
TORSDOF 6
