REMARK  Name = ZINC05658574
REMARK  6 active torsions:
REMARK  status: ('A' for Active; 'I' for Inactive)
REMARK    1  A    between atoms: C_1  and  C_2
REMARK    2  A    between atoms: C_2  and  C_4
REMARK    3  A    between atoms: C_2  and  N_10
REMARK    4  A    between atoms: C_11  and  C_13
REMARK    5  A    between atoms: C_14  and  N_28
REMARK    6  A    between atoms: C_18  and  C_22
REMARK                            x       y       z     vdW  Elec       q    Type
REMARK                         _______ _______ _______ _____ _____    ______ ____
ROOT
ATOM      1  C   UNL     1      -6.098   3.159   0.049  0.00  0.00    +0.097 A 
ATOM      2  C   UNL     1      -5.047   4.050   0.049  0.00  0.00    +0.053 A 
ATOM      3  C   UNL     1      -3.693   3.520   0.039  0.00  0.00    +0.029 A 
ATOM      4  C   UNL     1      -2.465   4.231   0.037  0.00  0.00    +0.014 A 
ATOM      5  C   UNL     1      -1.294   3.536   0.033  0.00  0.00    +0.029 A 
ATOM      6  C   UNL     1      -1.300   2.138   0.020  0.00  0.00    +0.072 A 
ATOM      7  N   UNL     1      -2.449   1.475   0.022  0.00  0.00    -0.239 NA
ATOM      8  C   UNL     1      -3.600   2.108   0.031  0.00  0.00    +0.111 A 
ATOM      9  S   UNL     1      -5.292   1.569   0.036  0.00  0.00    -0.062 S 
ENDROOT
BRANCH   6  10
ATOM     10  C   UNL     1      -0.017   1.394   0.010  0.00  0.00    +0.003 A 
ATOM     11  C   UNL     1       1.206   2.071   0.002  0.00  0.00    +0.030 A 
ATOM     12  C   UNL     1       2.376   1.339  -0.014  0.00  0.00    +0.111 A 
ATOM     13  N   UNL     1       2.350   0.020  -0.021  0.00  0.00    -0.263 NA
ATOM     14  C   UNL     1       1.218  -0.657  -0.013  0.00  0.00    +0.111 A 
ATOM     15  C   UNL     1       0.002  -0.004   0.002  0.00  0.00    +0.030 A 
ENDBRANCH   6  10
BRANCH   1  17
ATOM     16  N   UNL     1      -8.379   2.429   0.057  0.00  0.00    -0.304 N 
ATOM     17  C   UNL     1      -7.487   3.439   0.058  0.00  0.00    +0.253 C 
ATOM     18  O   UNL     1      -7.875   4.594   0.065  0.00  0.00    -0.270 OA
ATOM     19  H   UNL     1      -8.070   1.509   0.050  0.00  0.00    +0.150 HD
BRANCH  16  21
ATOM     20  C   UNL     1     -10.283   2.936   1.506  0.00  0.00    +0.033 C 
ATOM     21  C   UNL     1      -9.815   2.719   0.065  0.00  0.00    +0.100 C 
BRANCH  21  22
ATOM     22  C   UNL     1     -10.565   1.559  -0.538  0.00  0.00    -0.027 A 
ATOM     23  C   UNL     1     -10.175   0.263  -0.258  0.00  0.00    +0.005 A 
ATOM     24  C   UNL     1     -10.866  -0.801  -0.807  0.00  0.00    +0.000 A 
ATOM     25  C   UNL     1     -11.941  -0.568  -1.644  0.00  0.00    +0.000 A 
ATOM     26  C   UNL     1     -12.329   0.728  -1.928  0.00  0.00    +0.000 A 
ATOM     27  C   UNL     1     -11.640   1.792  -1.375  0.00  0.00    +0.005 A 
ENDBRANCH  21  22
ENDBRANCH  16  21
ENDBRANCH   1  17
BRANCH   2  28
ATOM     28  N   UNL     1      -5.275   5.419   0.058  0.00  0.00    -0.356 N 
ATOM     29  H   UNL     1      -4.526   6.035   0.058  0.00  0.00    +0.142 HD
ATOM     30  H   UNL     1      -6.183   5.759   0.064  0.00  0.00    +0.142 HD
ENDBRANCH   2  28
TORSDOF 5
