REMARK  Name = ZINC04230027
REMARK  10 active torsions:
REMARK  status: ('A' for Active; 'I' for Inactive)
REMARK    1  A    between atoms: C_1  and  C_2
REMARK    2  A    between atoms: C_6  and  O_8
REMARK    3  A    between atoms: O_8  and  C_9
REMARK    4  A    between atoms: C_9  and  C_10
REMARK    5  A    between atoms: N_12  and  N_13
REMARK    6  A    between atoms: C_14  and  C_15
REMARK    7  A    between atoms: C_18  and  O_21
REMARK    8  A    between atoms: O_21  and  C_22
REMARK    9  A    between atoms: C_22  and  C_24
REMARK   10  A    between atoms: C_29  and  C_30
REMARK                            x       y       z     vdW  Elec       q    Type
REMARK                         _______ _______ _______ _____ _____    ______ ____
ROOT
ATOM      1  C   UNL     1      -0.067   1.851   6.922  0.00  0.00    -0.005 A 
ATOM      2  C   UNL     1       0.049   0.459   6.970  0.00  0.00    +0.013 A 
ATOM      3  C   UNL     1       0.030  -0.272   5.802  0.00  0.00    +0.047 A 
ATOM      4  C   UNL     1      -0.103   0.372   4.579  0.00  0.00    +0.132 A 
ATOM      5  C   UNL     1      -0.212   1.756   4.526  0.00  0.00    +0.047 A 
ATOM      6  C   UNL     1      -0.200   2.495   5.689  0.00  0.00    +0.013 A 
ENDROOT
BRANCH   1   8
ATOM      7  N   UNL     1      -0.155   3.930   8.122  0.00  0.00    -0.188 NA
ATOM      8  C   UNL     1      -0.048   2.637   8.169  0.00  0.00    +0.138 C 
BRANCH   7  11
ATOM      9  C   UNL     1      -0.248   6.020   9.259  0.00  0.00    +0.270 C 
ATOM     10  O   UNL     1      -0.364   6.581   8.189  0.00  0.00    -0.270 OA
ATOM     11  N   UNL     1      -0.137   4.677   9.307  0.00  0.00    -0.204 N 
ATOM     12  H   UNL     1      -0.044   4.229  10.162  0.00  0.00    +0.177 HD
BRANCH   9  13
ATOM     13  C   UNL     1      -0.229   6.824  10.533  0.00  0.00    +0.326 C 
BRANCH  13  14
ATOM     14  O   UNL     1      -0.361   8.212  10.222  0.00  0.00    -0.483 OA
BRANCH  14  20
ATOM     15  C   UNL     1      -0.624  12.805  11.854  0.00  0.00    +0.044 C 
ATOM     16  C   UNL     1      -0.488  11.325  12.102  0.00  0.00    -0.047 A 
ATOM     17  C   UNL     1      -0.365  10.850  13.395  0.00  0.00    +0.003 A 
ATOM     18  C   UNL     1      -0.241   9.492  13.626  0.00  0.00    +0.004 A 
ATOM     19  C   UNL     1      -0.244   8.607  12.565  0.00  0.00    +0.045 A 
ATOM     20  C   UNL     1      -0.363   9.081  11.267  0.00  0.00    +0.121 A 
ATOM     21  C   UNL     1      -0.487  10.444  11.038  0.00  0.00    +0.049 A 
ENDBRANCH  14  20
ENDBRANCH  13  14
ENDBRANCH   9  13
ENDBRANCH   7  11
ENDBRANCH   1   8
BRANCH   4  22
ATOM     22  O   UNL     1      -0.121  -0.353   3.430  0.00  0.00    -0.422 OA
BRANCH  22  23
ATOM     23  C   UNL     1      -1.289  -0.930   3.089  0.00  0.00    +0.345 C 
ATOM     24  O   UNL     1      -2.291  -0.702   3.736  0.00  0.00    -0.245 OA
BRANCH  23  25
ATOM     25  C   UNL     1      -1.352  -1.842   1.928  0.00  0.00    +0.062 A 
ATOM     26  C   UNL     1      -0.233  -2.014   1.110  0.00  0.00    +0.015 A 
ATOM     27  C   UNL     1      -0.298  -2.866   0.028  0.00  0.00    +0.001 A 
ATOM     28  C   UNL     1      -1.469  -3.551  -0.248  0.00  0.00    +0.000 A 
ATOM     29  C   UNL     1      -2.579  -3.389   0.562  0.00  0.00    +0.004 A 
ATOM     30  C   UNL     1      -2.530  -2.535   1.644  0.00  0.00    -0.036 A 
ATOM     31  C   UNL     1      -3.742  -2.356   2.521  0.00  0.00    +0.044 C 
ENDBRANCH  23  25
ENDBRANCH  22  23
ENDBRANCH   4  22
TORSDOF 8
