REMARK  Name = ZINC40789358
REMARK  6 active torsions:
REMARK  status: ('A' for Active; 'I' for Inactive)
REMARK    1  A    between atoms: C_1  and  C_2
REMARK    2  A    between atoms: C_7  and  C_8
REMARK    3  A    between atoms: C_8  and  N_9
REMARK    4  A    between atoms: C_11  and  N_14
REMARK    5  A    between atoms: C_15  and  C_17
REMARK    6  A    between atoms: C_17  and  C_18
REMARK                            x       y       z     vdW  Elec       q    Type
REMARK                         _______ _______ _______ _____ _____    ______ ____
ROOT
ATOM      1  N   UNL     1      -4.191   0.430   5.026  0.00  0.00    -0.283 N 
ATOM      2  C   UNL     1      -5.418   0.957   4.847  0.00  0.00    +0.221 C 
ATOM      3  O   UNL     1      -5.689   1.526   3.811  0.00  0.00    -0.275 OA
ATOM      4  H   UNL     1      -3.974  -0.025   5.854  0.00  0.00    +0.155 HD
ENDROOT
BRANCH   1   7
ATOM      5  N   UNL     1      -1.352   0.373   2.882  0.00  0.00    -0.265 N 
ATOM      6  C   UNL     1      -1.955   0.058   4.058  0.00  0.00    +0.132 A 
ATOM      7  C   UNL     1      -3.223   0.540   4.010  0.00  0.00    +0.071 A 
ATOM      8  C   UNL     1      -3.397   1.168   2.767  0.00  0.00    +0.157 A 
ATOM      9  N   UNL     1      -2.278   1.071   2.097  0.00  0.00    -0.177 NA
BRANCH   5  10
ATOM     10  C   UNL     1       0.025   0.045   2.504  0.00  0.00    +0.178 C 
BRANCH  10  17
ATOM     11  C   UNL     1      -0.018   1.503   0.010  0.00  0.00    +0.044 C 
ATOM     12  C   UNL     1       0.002  -0.004   0.002  0.00  0.00    -0.046 A 
ATOM     13  C   UNL     1       0.006  -0.689  -1.199  0.00  0.00    +0.004 A 
ATOM     14  C   UNL     1       0.025  -2.071  -1.207  0.00  0.00    +0.000 A 
ATOM     15  C   UNL     1       0.040  -2.768  -0.013  0.00  0.00    +0.000 A 
ATOM     16  C   UNL     1       0.037  -2.084   1.188  0.00  0.00    +0.006 A 
ATOM     17  C   UNL     1       0.023  -0.702   1.195  0.00  0.00    -0.023 A 
ENDBRANCH  10  17
ENDBRANCH   5  10
ENDBRANCH   1   7
BRANCH   2  18
ATOM     18  C   UNL     1      -6.454   0.839   5.935  0.00  0.00    +0.150 C 
BRANCH  18  19
ATOM     19  C   UNL     1      -7.749   1.515   5.482  0.00  0.00    +0.268 C 
ATOM     20  C   UNL     1      -8.744   1.507   6.615  0.00  0.00    +0.259 C 
ATOM     21  O   UNL     1      -8.813   2.453   7.371  0.00  0.00    -0.271 OA
ATOM     22  N   UNL     1      -9.556   0.443   6.785  0.00  0.00    -0.280 N 
ATOM     23  C   UNL     1      -9.550  -0.582   5.829  0.00  0.00    +0.076 A 
ATOM     24  C   UNL     1     -10.193  -1.783   6.079  0.00  0.00    +0.027 A 
ATOM     25  C   UNL     1     -10.166  -2.789   5.131  0.00  0.00    +0.002 A 
ATOM     26  C   UNL     1      -9.499  -2.599   3.935  0.00  0.00    +0.004 A 
ATOM     27  C   UNL     1      -8.859  -1.401   3.676  0.00  0.00    +0.047 A 
ATOM     28  C   UNL     1      -8.887  -0.387   4.619  0.00  0.00    +0.143 A 
ATOM     29  O   UNL     1      -8.290   0.807   4.364  0.00  0.00    -0.477 OA
ATOM     30  H   UNL     1     -10.137   0.388   7.559  0.00  0.00    +0.155 HD
ENDBRANCH  18  19
ENDBRANCH   2  18
TORSDOF 5
