REMARK  Name = ZINC05371497
REMARK  10 active torsions:
REMARK  status: ('A' for Active; 'I' for Inactive)
REMARK    1  A    between atoms: C_1  and  O_2
REMARK    2  A    between atoms: O_2  and  C_3
REMARK    3  A    between atoms: C_3  and  C_4
REMARK    4  A    between atoms: C_4  and  C_6
REMARK    5  A    between atoms: C_6  and  O_32
REMARK    6  A    between atoms: C_10  and  O_27
REMARK    7  A    between atoms: C_13  and  O_14
REMARK    8  A    between atoms: C_21  and  O_25
REMARK    9  A    between atoms: O_25  and  C_26
REMARK   10  A    between atoms: C_28  and  O_31
REMARK                            x       y       z     vdW  Elec       q    Type
REMARK                         _______ _______ _______ _____ _____    ______ ____
ROOT
ATOM      1  C   UNL     1       3.550  10.348  -0.399  0.00  0.00    +0.133 C 
ATOM      2  C   UNL     1       2.236   9.707   0.041  0.00  0.00    +0.082 C 
ATOM      3  C   UNL     1       2.342   8.204   0.011  0.00  0.00    +0.007 A 
ATOM      4  C   UNL     1       3.547   7.549  -0.008  0.00  0.00    +0.030 A 
ATOM      5  C   UNL     1       3.585   6.148  -0.019  0.00  0.00    +0.134 A 
ATOM      6  C   UNL     1       2.405   5.407  -0.016  0.00  0.00    +0.078 A 
ATOM      7  C   UNL     1       1.167   6.080  -0.002  0.00  0.00    +0.078 A 
ATOM      8  C   UNL     1       1.146   7.474   0.012  0.00  0.00    +0.132 A 
ATOM      9  C   UNL     1      -0.090   5.313  -0.002  0.00  0.00    +0.198 C 
ATOM     10  O   UNL     1      -1.158   5.893   0.009  0.00  0.00    -0.286 OA
ATOM     11  C   UNL     1      -0.050   3.836  -0.015  0.00  0.00    +0.037 A 
ATOM     12  C   UNL     1      -1.232   3.102  -0.015  0.00  0.00    +0.012 A 
ATOM     13  C   UNL     1      -1.189   1.718  -0.034  0.00  0.00    +0.004 A 
ATOM     14  C   UNL     1       0.020   1.054  -0.043  0.00  0.00    +0.046 A 
ATOM     15  C   UNL     1       1.215   1.767  -0.043  0.00  0.00    +0.132 A 
ATOM     16  C   UNL     1       1.187   3.165  -0.029  0.00  0.00    +0.075 A 
ATOM     17  C   UNL     1       2.445   3.934  -0.029  0.00  0.00    +0.202 C 
ATOM     18  O   UNL     1       3.514   3.354  -0.039  0.00  0.00    -0.286 OA
ATOM     19  C   UNL     1       4.866   8.278  -0.027  0.00  0.00    +0.152 C 
ATOM     20  C   UNL     1       4.687   9.727   0.420  0.00  0.00    +0.079 C 
ENDROOT
BRANCH   1  21
ATOM     21  C   UNL     1       3.498  11.834  -0.152  0.00  0.00    +0.190 C 
ATOM     22  O   UNL     1       3.934  12.290   0.878  0.00  0.00    -0.292 OA
BRANCH  21  23
ATOM     23  C   UNL     1       2.903  12.751  -1.189  0.00  0.00    +0.236 C 
BRANCH  23  25
ATOM     24  C   UNL     1       2.427  15.056  -1.641  0.00  0.00    +0.194 C 
ATOM     25  O   UNL     1       2.969  14.101  -0.727  0.00  0.00    -0.375 OA
ENDBRANCH  23  25
ENDBRANCH  21  23
ENDBRANCH   1  21
BRANCH   8  26
ATOM     26  O   UNL     1      -0.042   8.128   0.025  0.00  0.00    -0.506 OA
ATOM     27  H   UNL     1      -0.381   8.310   0.912  0.00  0.00    +0.292 HD
ENDBRANCH   8  26
BRANCH  15  28
ATOM     28  O   UNL     1       2.401   1.110  -0.056  0.00  0.00    -0.494 OA
ATOM     29  C   UNL     1       2.351  -0.318  -0.070  0.00  0.00    +0.277 C 
ENDBRANCH  15  28
BRANCH   5  30
ATOM     30  O   UNL     1       4.781   5.508  -0.032  0.00  0.00    -0.506 OA
ATOM     31  H   UNL     1       5.122   5.329  -0.920  0.00  0.00    +0.292 HD
ENDBRANCH   5  30
BRANCH  19  32
ATOM     32  O   UNL     1       5.779   7.623   0.855  0.00  0.00    -0.387 OA
ATOM     33  H   UNL     1       6.676   7.985   0.834  0.00  0.00    +0.210 HD
ENDBRANCH  19  32
BRANCH   1  34
ATOM     34  O   UNL     1       3.766  10.099  -1.789  0.00  0.00    -0.381 OA
ATOM     35  H   UNL     1       3.082  10.466  -2.366  0.00  0.00    +0.211 HD
ENDBRANCH   1  34
TORSDOF 8
