REMARK  Name = ZINC45748186
REMARK  6 active torsions:
REMARK  status: ('A' for Active; 'I' for Inactive)
REMARK    1  A    between atoms: C_1  and  C_2
REMARK    2  A    between atoms: C_4  and  C_14
REMARK    3  A    between atoms: N_16  and  C_17
REMARK    4  A    between atoms: C_19  and  S_24
REMARK    5  A    between atoms: C_22  and  O_23
REMARK    6  A    between atoms: S_24  and  N_27
REMARK                            x       y       z     vdW  Elec       q    Type
REMARK                         _______ _______ _______ _____ _____    ______ ____
ROOT
ATOM      1  C   UNL     1      -0.423   1.793  -4.156  0.00  0.00    +0.077 A 
ATOM      2  C   UNL     1      -1.099   0.902  -4.978  0.00  0.00    +0.055 A 
ATOM      3  C   UNL     1      -1.748   1.361  -6.108  0.00  0.00    +0.107 A 
ATOM      4  C   UNL     1      -1.726   2.707  -6.424  0.00  0.00    +0.032 A 
ATOM      5  C   UNL     1      -1.054   3.601  -5.610  0.00  0.00    +0.049 A 
ATOM      6  C   UNL     1      -0.406   3.149  -4.472  0.00  0.00    +0.138 A 
ENDROOT
BRANCH   1   9
ATOM      7  C   UNL     1       0.326   0.006  -2.773  0.00  0.00    +0.262 C 
ATOM      8  O   UNL     1      -0.122  -0.786  -3.575  0.00  0.00    -0.271 OA
ATOM      9  N   UNL     1       0.235   1.330  -3.009  0.00  0.00    -0.279 N 
ATOM     10  H   UNL     1       0.625   1.962  -2.386  0.00  0.00    +0.155 HD
BRANCH   7  13
ATOM     11  C   UNL     1       2.122  -2.322  -2.788  0.00  0.00    +0.056 C 
ATOM     12  C   UNL     1       2.336  -1.132  -1.851  0.00  0.00    +0.220 C 
ATOM     13  C   UNL     1       0.984  -0.490  -1.511  0.00  0.00    +0.299 C 
ATOM     14  O   UNL     1       1.220   0.608  -0.624  0.00  0.00    -0.472 OA
ATOM     15  C   UNL     1       2.063   0.381   0.420  0.00  0.00    +0.163 A 
ATOM     16  C   UNL     1       2.059   1.251   1.500  0.00  0.00    +0.049 A 
ATOM     17  C   UNL     1       2.912   1.036   2.566  0.00  0.00    +0.004 A 
ATOM     18  C   UNL     1       3.772  -0.046   2.558  0.00  0.00    +0.004 A 
ATOM     19  C   UNL     1       3.781  -0.918   1.485  0.00  0.00    +0.049 A 
ATOM     20  C   UNL     1       2.926  -0.709   0.413  0.00  0.00    +0.163 A 
ATOM     21  O   UNL     1       2.940  -1.580  -0.632  0.00  0.00    -0.481 OA
ENDBRANCH   7  13
ENDBRANCH   1   9
BRANCH   3  22
ATOM     22  S   UNL     1      -2.606   0.228  -7.150  0.00  0.00    +0.061 S 
ATOM     23  O   UNL     1      -2.670   0.829  -8.437  0.00  0.00    -0.153 OA
ATOM     24  O   UNL     1      -2.018  -1.047  -6.934  0.00  0.00    -0.153 OA
BRANCH  22  25
ATOM     25  N   UNL     1      -4.162   0.133  -6.594  0.00  0.00    -0.177 NA
ATOM     26  C   UNL     1      -4.654  -0.811  -5.580  0.00  0.00    +0.109 C 
ATOM     27  C   UNL     1      -6.164  -0.548  -5.402  0.00  0.00    +0.018 C 
ATOM     28  C   UNL     1      -6.554   0.147  -6.733  0.00  0.00    +0.018 C 
ATOM     29  C   UNL     1      -5.284   0.986  -7.028  0.00  0.00    +0.109 C 
ENDBRANCH  22  25
ENDBRANCH   3  22
BRANCH   6  30
ATOM     30  O   UNL     1       0.250   4.028  -3.667  0.00  0.00    -0.505 OA
ATOM     31  H   UNL     1       1.177   4.163  -3.906  0.00  0.00    +0.292 HD
ENDBRANCH   6  30
TORSDOF 5
