REMARK  Name = ZINC08430528
REMARK  8 active torsions:
REMARK  status: ('A' for Active; 'I' for Inactive)
REMARK    1  A    between atoms: C_1  and  C_2
REMARK    2  A    between atoms: C_2  and  O_3
REMARK    3  A    between atoms: O_3  and  C_4
REMARK    4  A    between atoms: C_7  and  C_12
REMARK    5  A    between atoms: C_9  and  O_10
REMARK    6  A    between atoms: O_10  and  C_11
REMARK    7  A    between atoms: C_17  and  C_27
REMARK    8  A    between atoms: C_31  and  O_33
REMARK                            x       y       z     vdW  Elec       q    Type
REMARK                         _______ _______ _______ _____ _____    ______ ____
ROOT
ATOM      1  C   UNL     1      -2.489   0.944  -0.084  0.00  0.00    +0.032 C 
ATOM      2  C   UNL     1      -2.591   0.027  -1.302  0.00  0.00    +0.059 C 
ATOM      3  C   UNL     1      -3.897  -0.750  -1.256  0.00  0.00    +0.017 C 
ATOM      4  C   UNL     1      -4.424  -1.121  -0.077  0.00  0.00    +0.036 C 
ATOM      5  C   UNL     1      -5.689  -1.924   0.114  0.00  0.00    +0.136 C 
ATOM      6  N   UNL     1      -6.491  -2.071  -1.082  0.00  0.00    -0.331 N 
ATOM      7  C   UNL     1      -6.014  -2.773  -2.187  0.00  0.00    +0.049 A 
ATOM      8  C   UNL     1      -6.574  -3.980  -2.574  0.00  0.00    +0.025 A 
ATOM      9  C   UNL     1      -5.999  -4.696  -3.610  0.00  0.00    +0.002 A 
ATOM     10  C   UNL     1      -4.877  -4.212  -4.256  0.00  0.00    +0.002 A 
ATOM     11  C   UNL     1      -4.327  -2.996  -3.887  0.00  0.00    +0.025 A 
ATOM     12  C   UNL     1      -4.911  -2.272  -2.862  0.00  0.00    +0.052 A 
ATOM     13  N   UNL     1      -4.437  -1.025  -2.470  0.00  0.00    -0.316 N 
ATOM     14  C   UNL     1      -3.789  -0.759   1.134  0.00  0.00    +0.163 C 
ATOM     15  O   UNL     1      -4.278  -1.125   2.184  0.00  0.00    -0.292 OA
ATOM     16  C   UNL     1      -2.534   0.061   1.169  0.00  0.00    +0.088 C 
ATOM     17  H   UNL     1      -7.376  -1.675  -1.114  0.00  0.00    +0.147 HD
ATOM     18  H   UNL     1      -4.496  -0.299  -3.111  0.00  0.00    +0.152 HD
ENDROOT
BRANCH   1  22
ATOM     19  C   UNL     1       1.201   3.101  -0.208  0.00  0.00    +0.162 A 
ATOM     20  C   UNL     1       1.205   1.715  -0.205  0.00  0.00    +0.050 A 
ATOM     21  C   UNL     1       0.011   1.021  -0.162  0.00  0.00    +0.008 A 
ATOM     22  C   UNL     1      -1.190   1.706  -0.126  0.00  0.00    -0.040 A 
ATOM     23  C   UNL     1      -1.201   3.088  -0.123  0.00  0.00    +0.053 A 
ATOM     24  C   UNL     1      -0.007   3.790  -0.166  0.00  0.00    +0.162 A 
BRANCH  24  25
ATOM     25  O   UNL     1      -0.016   5.150  -0.168  0.00  0.00    -0.491 OA
ATOM     26  C   UNL     1      -1.292   5.790  -0.124  0.00  0.00    +0.277 C 
ENDBRANCH  24  25
BRANCH  19  27
ATOM     27  O   UNL     1       2.375   3.785  -0.251  0.00  0.00    -0.489 OA
BRANCH  27  29
ATOM     28  C   UNL     1       4.785   3.949  -0.338  0.00  0.00    +0.048 C 
ATOM     29  C   UNL     1       3.576   3.012  -0.293  0.00  0.00    +0.226 C 
ENDBRANCH  27  29
ENDBRANCH  19  27
ENDBRANCH   1  22
BRANCH   5  30
ATOM     30  C   UNL     1      -5.314  -3.296   0.611  0.00  0.00    -0.019 A 
ATOM     31  C   UNL     1      -4.556  -4.136  -0.184  0.00  0.00    +0.006 A 
ATOM     32  C   UNL     1      -4.210  -5.395   0.269  0.00  0.00    +0.004 A 
ATOM     33  C   UNL     1      -4.622  -5.818   1.518  0.00  0.00    +0.045 A 
ATOM     34  C   UNL     1      -5.383  -4.978   2.318  0.00  0.00    +0.117 A 
ATOM     35  C   UNL     1      -5.724  -3.712   1.863  0.00  0.00    +0.051 A 
BRANCH  34  36
ATOM     36  O   UNL     1      -5.789  -5.392   3.547  0.00  0.00    -0.507 OA
ATOM     37  H   UNL     1      -5.168  -5.181   4.258  0.00  0.00    +0.292 HD
ENDBRANCH  34  36
ENDBRANCH   5  30
TORSDOF 6
