REMARK  Name = ZINC14902403
REMARK  5 active torsions:
REMARK  status: ('A' for Active; 'I' for Inactive)
REMARK    1  A    between atoms: C_7  and  C_11
REMARK    2  A    between atoms: C_14  and  S_16
REMARK    3  A    between atoms: S_16  and  C_17
REMARK    4  A    between atoms: C_17  and  C_18
REMARK    5  A    between atoms: N_26  and  C_27
REMARK                            x       y       z     vdW  Elec       q    Type
REMARK                         _______ _______ _______ _____ _____    ______ ____
ROOT
ATOM      1  C   UNL     1       3.031   7.522   1.706  0.00  0.00    +0.251 A 
ATOM      2  N   UNL     1       2.939   7.266   0.423  0.00  0.00    -0.106 NA
ATOM      3  N   UNL     1       2.567   6.046   0.256  0.00  0.00    -0.101 NA
ATOM      4  C   UNL     1       2.407   5.474   1.425  0.00  0.00    +0.278 A 
ATOM      5  O   UNL     1       2.691   6.394   2.368  0.00  0.00    -0.411 OA
ENDROOT
BRANCH   1  12
ATOM      6  C   UNL     1       4.266  11.658  -0.093  0.00  0.00    +0.001 A 
ATOM      7  C   UNL     1       4.561  12.598   0.884  0.00  0.00    +0.002 A 
ATOM      8  C   UNL     1       4.477  12.273   2.220  0.00  0.00    +0.026 A 
ATOM      9  C   UNL     1       4.092  10.989   2.596  0.00  0.00    +0.047 A 
ATOM     10  C   UNL     1       3.794  10.042   1.602  0.00  0.00    +0.012 A 
ATOM     11  C   UNL     1       3.886  10.391   0.256  0.00  0.00    +0.011 A 
ATOM     12  C   UNL     1       3.428   8.806   2.315  0.00  0.00    +0.063 A 
ATOM     13  C   UNL     1       3.520   9.082   3.642  0.00  0.00    +0.097 A 
ATOM     14  N   UNL     1       3.918  10.375   3.817  0.00  0.00    -0.360 N 
ATOM     15  H   UNL     1       4.056  10.801   4.677  0.00  0.00    +0.165 HD
ENDBRANCH   1  12
BRANCH   4  16
ATOM     16  S   UNL     1       1.905   3.809   1.711  0.00  0.00    -0.058 S 
BRANCH  16  17
ATOM     17  C   UNL     1       1.714   3.241   0.003  0.00  0.00    +0.153 C 
BRANCH  17  18
ATOM     18  C   UNL     1       1.276   1.799  -0.001  0.00  0.00    +0.125 A 
ATOM     19  N   UNL     1       2.081   0.776  -0.014  0.00  0.00    -0.231 NA
ATOM     20  C   UNL     1       1.358  -0.373  -0.013  0.00  0.00    +0.089 A 
ATOM     21  C   UNL     1       1.701  -1.728  -0.024  0.00  0.00    +0.030 A 
ATOM     22  C   UNL     1       0.720  -2.679  -0.019  0.00  0.00    +0.002 A 
ATOM     23  C   UNL     1      -0.619  -2.314  -0.005  0.00  0.00    +0.002 A 
ATOM     24  C   UNL     1      -0.981  -0.984   0.006  0.00  0.00    +0.028 A 
ATOM     25  C   UNL     1       0.002  -0.004   0.002  0.00  0.00    +0.074 A 
ATOM     26  N   UNL     1      -0.017   1.376   0.010  0.00  0.00    -0.270 N 
BRANCH  26  27
ATOM     27  C   UNL     1      -1.208   2.228   0.020  0.00  0.00    +0.449 C 
ATOM     28  F   UNL     1      -0.926   3.433  -0.634  0.00  0.00    -0.185 F 
ATOM     29  F   UNL     1      -2.255   1.574  -0.638  0.00  0.00    -0.185 F 
ENDBRANCH  26  27
ENDBRANCH  17  18
ENDBRANCH  16  17
ENDBRANCH   4  16
TORSDOF 5
