REMARK  Name = ZINC28295934
REMARK  11 active torsions:
REMARK  status: ('A' for Active; 'I' for Inactive)
REMARK    1  A    between atoms: C_1  and  C_2
REMARK    2  A    between atoms: C_2  and  C_3
REMARK    3  A    between atoms: C_3  and  O_4
REMARK    4  A    between atoms: O_4  and  C_5
REMARK    5  A    between atoms: C_10  and  S_15
REMARK    6  A    between atoms: S_15  and  N_18
REMARK    7  A    between atoms: N_18  and  C_19
REMARK    8  A    between atoms: C_21  and  C_27
REMARK    9  A    between atoms: C_21  and  C_28
REMARK   10  A    between atoms: C_23  and  C_25
REMARK   11  A    between atoms: C_23  and  C_26
REMARK                            x       y       z     vdW  Elec       q    Type
REMARK                         _______ _______ _______ _____ _____    ______ ____
ROOT
ATOM      1  S   UNL     1       0.256   5.849  -2.661  0.00  0.00    +0.059 S 
ATOM      2  O   UNL     1       0.249   7.238  -2.358  0.00  0.00    -0.153 OA
ATOM      3  O   UNL     1       1.215   5.264  -3.530  0.00  0.00    -0.153 OA
ENDROOT
BRANCH   1   9
ATOM      4  C   UNL     1      -5.246   3.531  -5.728  0.00  0.00    +0.121 A 
ATOM      5  C   UNL     1      -4.153   2.715  -6.036  0.00  0.00    +0.046 A 
ATOM      6  C   UNL     1      -2.918   2.979  -5.531  0.00  0.00    +0.012 A 
ATOM      7  C   UNL     1      -2.734   4.088  -4.686  0.00  0.00    -0.016 A 
ATOM      8  C   UNL     1      -1.471   4.395  -4.152  0.00  0.00    +0.037 A 
ATOM      9  C   UNL     1      -1.329   5.473  -3.334  0.00  0.00    +0.106 A 
ATOM     10  C   UNL     1      -2.417   6.288  -3.025  0.00  0.00    +0.029 A 
ATOM     11  C   UNL     1      -3.654   6.025  -3.528  0.00  0.00    +0.010 A 
ATOM     12  C   UNL     1      -3.840   4.917  -4.372  0.00  0.00    -0.014 A 
ATOM     13  C   UNL     1      -5.102   4.615  -4.911  0.00  0.00    +0.054 A 
BRANCH   4  14
ATOM     14  O   UNL     1      -6.467   3.240  -6.248  0.00  0.00    -0.492 OA
BRANCH  14  15
ATOM     15  C   UNL     1      -6.555   2.093  -7.096  0.00  0.00    +0.229 C 
BRANCH  15  17
ATOM     16  C   UNL     1      -8.090   0.699  -8.489  0.00  0.00    +0.007 C 
ATOM     17  C   UNL     1      -7.996   1.927  -7.582  0.00  0.00    +0.038 C 
ENDBRANCH  15  17
ENDBRANCH  14  15
ENDBRANCH   4  14
ENDBRANCH   1   9
BRANCH   1  18
ATOM     18  N   UNL     1       0.376   5.050  -1.216  0.00  0.00    -0.187 NA
ATOM     19  H   UNL     1       0.285   5.617  -0.278  0.00  0.00    +0.148 HD
BRANCH  18  20
ATOM     20  C   UNL     1       0.383   3.582  -1.188  0.00  0.00    +0.074 C 
ATOM     21  C   UNL     1       1.307   3.104  -0.068  0.00  0.00    +0.007 C 
ATOM     22  C   UNL     1       1.318   1.579  -0.002  0.00  0.00    -0.072 C 
ATOM     23  N   UNL     1      -0.012   1.005   0.008  0.00  0.00    +0.386 N 
ATOM     24  C   UNL     1      -1.049   1.551  -0.842  0.00  0.00    -0.072 C 
ATOM     25  C   UNL     1      -1.030   3.077  -0.900  0.00  0.00    +0.007 C 
ATOM     26  C   UNL     1      -0.958   0.983  -2.263  0.00  0.00    -0.010 C 
ATOM     27  C   UNL     1      -2.418   1.125  -0.266  0.00  0.00    -0.010 C 
ATOM     28  C   UNL     1       2.027   1.175   1.309  0.00  0.00    -0.010 C 
ATOM     29  C   UNL     1       2.153   1.022  -1.161  0.00  0.00    -0.010 C 
ATOM     30  H   UNL     1       0.043  -0.052  -0.292  0.00  0.00    -0.084 HD
ATOM     31  H   UNL     1      -0.435   1.078   1.020  0.00  0.00    -0.084 HD
ENDBRANCH  18  20
ENDBRANCH   1  18
TORSDOF 6
