REMARK  Name = ZINC41043997
REMARK  4 active torsions:
REMARK  status: ('A' for Active; 'I' for Inactive)
REMARK    1  A    between atoms: C_1  and  N_2
REMARK    2  A    between atoms: N_7  and  S_8
REMARK    3  A    between atoms: S_8  and  C_11
REMARK    4  A    between atoms: C_13  and  N_16
REMARK                            x       y       z     vdW  Elec       q    Type
REMARK                         _______ _______ _______ _____ _____    ______ ____
ROOT
ATOM      1  S   UNL     1       0.060  -3.043   3.191  0.00  0.00    +0.080 S 
ATOM      2  O   UNL     1       0.054  -4.356   3.735  0.00  0.00    -0.149 OA
ATOM      3  O   UNL     1       1.074  -2.096   3.498  0.00  0.00    -0.149 OA
ENDROOT
BRANCH   1  10
ATOM      4  C   UNL     1      -0.018   1.461   0.010  0.00  0.00    +0.172 C 
ATOM      5  N   UNL     1       0.002  -0.004   0.002  0.00  0.00    -0.273 N 
ATOM      6  C   UNL     1       0.008  -0.791  -1.095  0.00  0.00    +0.110 A 
ATOM      7  C   UNL     1       0.028  -2.078  -0.681  0.00  0.00    +0.066 A 
ATOM      8  C   UNL     1       0.035  -2.080   0.723  0.00  0.00    +0.160 A 
ATOM      9  N   UNL     1       0.025  -0.833   1.131  0.00  0.00    -0.155 NA
ATOM     10  N   UNL     1       0.055  -3.214   1.544  0.00  0.00    -0.198 N 
ATOM     11  H   UNL     1       0.065  -4.099   1.148  0.00  0.00    +0.175 HD
ENDBRANCH   1  10
BRANCH   1  12
ATOM     12  C   UNL     1      -1.474  -2.304   3.644  0.00  0.00    +0.148 A 
ATOM     13  C   UNL     1      -2.646  -2.902   3.968  0.00  0.00    +0.059 A 
ATOM     14  C   UNL     1      -3.736  -2.110   4.295  0.00  0.00    +0.034 A 
ATOM     15  C   UNL     1      -3.593  -0.759   4.278  0.00  0.00    +0.069 A 
ATOM     16  S   UNL     1      -1.883  -0.573   3.800  0.00  0.00    -0.075 S 
BRANCH  14  17
ATOM     17  N   UNL     1      -4.969  -2.696   4.637  0.00  0.00    -0.358 N 
ATOM     18  H   UNL     1      -5.062  -3.662   4.645  0.00  0.00    +0.142 HD
ATOM     19  H   UNL     1      -5.726  -2.134   4.864  0.00  0.00    +0.142 HD
ENDBRANCH  14  17
ENDBRANCH   1  12
TORSDOF 3
