REMARK  Name = ZINC61888133
REMARK  5 active torsions:
REMARK  status: ('A' for Active; 'I' for Inactive)
REMARK    1  A    between atoms: C_2  and  S_8
REMARK    2  A    between atoms: S_8  and  N_11
REMARK    3  A    between atoms: N_11  and  C_12
REMARK    4  A    between atoms: C_17  and  C_19
REMARK    5  A    between atoms: N_20  and  O_21
REMARK                            x       y       z     vdW  Elec       q    Type
REMARK                         _______ _______ _______ _____ _____    ______ ____
ROOT
ATOM      1  N   UNL     1       2.057   4.076   1.350  0.00  0.00    -0.186 NA
ATOM      2  H   UNL     1       1.507   4.431   2.066  0.00  0.00    +0.148 HD
ENDROOT
BRANCH   1   3
ATOM      3  C   UNL     1       3.478   3.807   1.583  0.00  0.00    +0.087 C 
ATOM      4  C   UNL     1       3.650   2.438   2.266  0.00  0.00    +0.021 C 
ATOM      5  C   UNL     1       4.334   2.706   3.623  0.00  0.00    +0.002 C 
ATOM      6  C   UNL     1       5.063   4.058   3.421  0.00  0.00    +0.013 C 
ATOM      7  C   UNL     1       4.064   4.859   2.548  0.00  0.00    +0.074 C 
BRANCH   7   8
ATOM      8  C   UNL     1       4.781   5.938   1.778  0.00  0.00    +0.136 C 
ATOM      9  N   UNL     1       4.727   7.164   2.183  0.00  0.00    -0.076 NA
ATOM     10  N   UNL     1       5.494   5.617   0.645  0.00  0.00    -0.344 N 
ATOM     11  H   UNL     1       5.535   4.697   0.341  0.00  0.00    +0.144 HD
ATOM     12  H   UNL     1       5.956   6.312   0.150  0.00  0.00    +0.144 HD
BRANCH   9  13
ATOM     13  O   UNL     1       4.087   7.478   3.406  0.00  0.00    -0.408 OA
ATOM     14  H   UNL     1       4.097   8.420   3.624  0.00  0.00    +0.328 HD
ENDBRANCH   9  13
ENDBRANCH   7   8
ENDBRANCH   1   3
BRANCH   1  15
ATOM     15  S   UNL     1       1.389   3.774  -0.135  0.00  0.00    +0.061 S 
ATOM     16  O   UNL     1       0.035   4.199  -0.066  0.00  0.00    -0.153 OA
ATOM     17  O   UNL     1       1.754   2.445  -0.481  0.00  0.00    -0.153 OA
BRANCH  15  19
ATOM     18  C   UNL     1       2.965   4.304  -2.310  0.00  0.00    +0.057 A 
ATOM     19  C   UNL     1       2.192   4.833  -1.292  0.00  0.00    +0.132 A 
ATOM     20  C   UNL     1       2.061   6.180  -1.198  0.00  0.00    +0.106 A 
ATOM     21  S   UNL     1       3.048   6.744  -2.575  0.00  0.00    -0.063 S 
ATOM     22  C   UNL     1       3.568   5.148  -3.183  0.00  0.00    +0.081 A 
ATOM     23 CL   UNL     1       4.585   4.774  -4.540  0.00  0.00    -0.076 Cl
ATOM     24 CL   UNL     1       1.166   7.113  -0.041  0.00  0.00    -0.074 Cl
ENDBRANCH  15  19
ENDBRANCH   1  15
TORSDOF 5
