REMARK  Name = ZINC42028465
REMARK  5 active torsions:
REMARK  status: ('A' for Active; 'I' for Inactive)
REMARK    1  A    between atoms: C_1  and  C_2
REMARK    2  A    between atoms: C_2  and  C_4
REMARK    3  A    between atoms: C_2  and  N_10
REMARK    4  A    between atoms: C_11  and  C_15
REMARK    5  A    between atoms: C_17  and  N_22
REMARK                            x       y       z     vdW  Elec       q    Type
REMARK                         _______ _______ _______ _____ _____    ______ ____
ROOT
ATOM      1  N   UNL     1       0.618  -0.611  -1.203  0.00  0.00    -0.220 N 
ATOM      2  C   UNL     1       1.852  -1.169  -1.271  0.00  0.00    +0.184 A 
ATOM      3  N   UNL     1       2.166  -1.256  -2.546  0.00  0.00    -0.108 NA
ATOM      4  N   UNL     1       1.217  -0.792  -3.276  0.00  0.00    -0.023 NA
ATOM      5  N   UNL     1       0.240  -0.387  -2.538  0.00  0.00    -0.043 NA
ENDROOT
BRANCH   2   6
ATOM      6  C   UNL     1       2.688  -1.599  -0.127  0.00  0.00    +0.041 A 
ATOM      7  C   UNL     1       2.871  -0.749   0.963  0.00  0.00    +0.035 A 
ATOM      8  C   UNL     1       3.655  -1.158   2.030  0.00  0.00    +0.025 A 
ATOM      9  C   UNL     1       4.255  -2.412   2.013  0.00  0.00    +0.024 A 
ATOM     10  C   UNL     1       4.073  -3.255   0.932  0.00  0.00    +0.022 A 
ATOM     11  C   UNL     1       3.289  -2.858  -0.134  0.00  0.00    +0.052 A 
ATOM     12 CL   UNL     1       3.059  -3.923  -1.486  0.00  0.00    -0.083 Cl
BRANCH   8  13
ATOM     13  N   UNL     1       3.842  -0.310   3.125  0.00  0.00    -0.358 N 
ATOM     14  H   UNL     1       3.424   0.565   3.138  0.00  0.00    +0.142 HD
ATOM     15  H   UNL     1       4.391  -0.596   3.872  0.00  0.00    +0.142 HD
ENDBRANCH   8  13
ENDBRANCH   2   6
BRANCH   1  17
ATOM     16  C   UNL     1      -0.336   1.202   0.134  0.00  0.00    +0.035 C 
ATOM     17  C   UNL     1      -0.159  -0.312   0.004  0.00  0.00    +0.137 C 
BRANCH  17  18
ATOM     18  C   UNL     1      -1.531  -0.981  -0.095  0.00  0.00    +0.143 C 
ATOM     19  C   UNL     1      -2.355  -0.675   1.174  0.00  0.00    +0.036 C 
ATOM     20  C   UNL     1      -3.075  -2.027   1.434  0.00  0.00    +0.031 C 
ATOM     21  C   UNL     1      -1.996  -3.031   0.955  0.00  0.00    +0.160 C 
ATOM     22  O   UNL     1      -1.375  -2.402  -0.180  0.00  0.00    -0.374 OA
ENDBRANCH  17  18
ENDBRANCH   1  17
TORSDOF 4
