REMARK  Name = ZINC16870721
REMARK  7 active torsions:
REMARK  status: ('A' for Active; 'I' for Inactive)
REMARK    1  A    between atoms: C_1  and  C_2
REMARK    2  A    between atoms: C_2  and  C_4
REMARK    3  A    between atoms: C_2  and  O_19
REMARK    4  A    between atoms: N_6  and  C_7
REMARK    5  A    between atoms: O_19  and  C_20
REMARK    6  A    between atoms: C_20  and  C_22
REMARK    7  A    between atoms: C_31  and  O_34
REMARK                            x       y       z     vdW  Elec       q    Type
REMARK                         _______ _______ _______ _____ _____    ______ ____
ROOT
ATOM      1  C   UNL     1      -0.009   1.520   0.022  0.00  0.00    +0.062 C 
ATOM      2  C   UNL     1       0.004  -0.009   0.005  0.00  0.00    +0.259 C 
ENDROOT
BRANCH   2   3
ATOM      3  C   UNL     1      -1.412  -0.524   0.012  0.00  0.00    +0.258 C 
ATOM      4  O   UNL     1      -1.839  -1.137  -0.943  0.00  0.00    -0.271 OA
ATOM      5  N   UNL     1      -2.204  -0.302   1.079  0.00  0.00    -0.282 N 
ATOM      6  H   UNL     1      -1.844   0.130   1.870  0.00  0.00    +0.155 HD
BRANCH   5   7
ATOM      7  C   UNL     1      -3.549  -0.694   1.048  0.00  0.00    +0.036 A 
ATOM      8  C   UNL     1      -4.513   0.080   1.683  0.00  0.00    +0.025 A 
ATOM      9  C   UNL     1      -5.839  -0.301   1.655  0.00  0.00    +0.029 A 
ATOM     10  C   UNL     1      -6.213  -1.460   0.992  0.00  0.00    +0.067 A 
ATOM     11  C   UNL     1      -5.247  -2.240   0.352  0.00  0.00    +0.069 A 
ATOM     12  C   UNL     1      -3.916  -1.851   0.377  0.00  0.00    +0.051 A 
ATOM     13  N   UNL     1      -5.915  -3.322  -0.217  0.00  0.00    -0.306 N 
ATOM     14  H   UNL     1      -5.504  -4.037  -0.728  0.00  0.00    +0.170 HD
ATOM     15  C   UNL     1      -7.226  -3.206   0.062  0.00  0.00    +0.325 A 
ATOM     16  O   UNL     1      -8.089  -3.988  -0.289  0.00  0.00    -0.247 OA
ATOM     17  N   UNL     1      -7.439  -2.093   0.790  0.00  0.00    -0.306 N 
ATOM     18  H   UNL     1      -8.298  -1.785   1.119  0.00  0.00    +0.170 HD
ENDBRANCH   5   7
ENDBRANCH   2   3
BRANCH   2  19
ATOM     19  O   UNL     1       0.671  -0.467  -1.173  0.00  0.00    -0.452 OA
BRANCH  19  20
ATOM     20  C   UNL     1       1.997  -0.660  -1.086  0.00  0.00    +0.314 C 
ATOM     21  O   UNL     1       2.572  -0.448  -0.045  0.00  0.00    -0.250 OA
BRANCH  20  22
ATOM     22  C   UNL     1       2.768  -1.142  -2.288  0.00  0.00    +0.071 C 
ATOM     23  C   UNL     1       2.225  -2.502  -2.731  0.00  0.00    +0.021 C 
ATOM     24  C   UNL     1       3.008  -2.991  -3.951  0.00  0.00    -0.007 C 
ATOM     25  C   UNL     1       2.855  -1.984  -5.093  0.00  0.00    +0.007 C 
ATOM     26  C   UNL     1       3.398  -0.624  -4.650  0.00  0.00    -0.007 C 
ATOM     27  C   UNL     1       2.615  -0.135  -3.430  0.00  0.00    +0.021 C 
ATOM     28  C   UNL     1       4.878  -0.761  -4.285  0.00  0.00    +0.038 C 
ATOM     29  C   UNL     1       5.031  -1.768  -3.143  0.00  0.00    +0.068 C 
ATOM     30  C   UNL     1       4.487  -3.127  -3.587  0.00  0.00    +0.038 C 
ATOM     31  C   UNL     1       4.248  -1.278  -1.923  0.00  0.00    +0.052 C 
BRANCH  29  32
ATOM     32  O   UNL     1       6.413  -1.895  -2.803  0.00  0.00    -0.389 OA
ATOM     33  H   UNL     1       6.971  -2.202  -3.531  0.00  0.00    +0.210 HD
ENDBRANCH  29  32
ENDBRANCH  20  22
ENDBRANCH  19  20
ENDBRANCH   2  19
TORSDOF 6
