REMARK  Name = ZINC20235865
REMARK  10 active torsions:
REMARK  status: ('A' for Active; 'I' for Inactive)
REMARK    1  A    between atoms: C_1  and  C_2
REMARK    2  A    between atoms: C_5  and  O_8
REMARK    3  A    between atoms: O_8  and  C_9
REMARK    4  A    between atoms: C_9  and  C_10
REMARK    5  A    between atoms: C_10  and  O_11
REMARK    6  A    between atoms: O_11  and  C_12
REMARK    7  A    between atoms: C_13  and  O_32
REMARK    8  A    between atoms: C_15  and  C_19
REMARK    9  A    between atoms: C_29  and  C_31
REMARK   10  A    between atoms: O_32  and  C_33
REMARK                            x       y       z     vdW  Elec       q    Type
REMARK                         _______ _______ _______ _____ _____    ______ ____
ROOT
ATOM      1  C   UNL     1       1.970  -7.886  -0.572  0.00  0.00    +0.176 A 
ATOM      2  C   UNL     1       2.312  -8.601   0.578  0.00  0.00    +0.163 A 
ATOM      3  C   UNL     1       2.336  -9.980   0.552  0.00  0.00    +0.057 A 
ATOM      4  C   UNL     1       2.016 -10.661  -0.632  0.00  0.00    -0.019 A 
ATOM      5  C   UNL     1       1.674  -9.936  -1.782  0.00  0.00    +0.027 A 
ATOM      6  C   UNL     1       1.648  -8.559  -1.744  0.00  0.00    +0.064 A 
ATOM      7 BR   UNL     1       1.179  -7.582  -3.294  0.00  0.00    -0.046 Br
ENDROOT
BRANCH   4   8
ATOM      8  C   UNL     1       2.040 -12.125  -0.666  0.00  0.00    +0.025 C 
ATOM      9  C   UNL     1       1.102 -12.812  -1.403  0.00  0.00    +0.084 C 
ATOM     10  C   UNL     1       1.187 -14.289  -1.621  0.00  0.00    +0.176 C 
ATOM     11  N   UNL     1       1.713 -15.118  -0.759  0.00  0.00    -0.280 NA
ATOM     12  N   UNL     1       0.648 -14.685  -2.838  0.00  0.00    -0.142 N 
ATOM     13  C   UNL     1      -0.276 -13.912  -3.494  0.00  0.00    +0.168 C 
ATOM     14  N   UNL     1      -0.646 -12.696  -3.098  0.00  0.00    -0.156 NA
ATOM     15  C   UNL     1      -0.063 -12.135  -2.026  0.00  0.00    +0.273 C 
ATOM     16  O   UNL     1      -0.480 -11.081  -1.572  0.00  0.00    -0.268 OA
ATOM     17  C   UNL     1      -0.692 -14.651  -4.611  0.00  0.00    +0.091 C 
ATOM     18  C   UNL     1       0.012 -15.804  -4.646  0.00  0.00    +0.134 C 
ATOM     19  O   UNL     1       0.865 -15.835  -3.609  0.00  0.00    -0.375 OA
ATOM     20  C   UNL     1      -0.138 -16.885  -5.685  0.00  0.00    +0.089 C 
ATOM     21  H   UNL     1       2.075 -14.784   0.077  0.00  0.00    +0.188 HD
ENDBRANCH   4   8
BRANCH   2  22
ATOM     22  O   UNL     1       2.621  -7.937   1.723  0.00  0.00    -0.491 OA
ATOM     23  C   UNL     1       2.961  -8.731   2.861  0.00  0.00    +0.277 C 
ENDBRANCH   2  22
BRANCH   1  24
ATOM     24  O   UNL     1       1.947  -6.529  -0.542  0.00  0.00    -0.484 OA
BRANCH  24  25
ATOM     25  C   UNL     1       0.713  -5.909  -0.176  0.00  0.00    +0.270 C 
BRANCH  25  26
ATOM     26  C   UNL     1       0.880  -4.388  -0.199  0.00  0.00    +0.270 C 
BRANCH  26  27
ATOM     27  O   UNL     1       1.137  -3.957  -1.537  0.00  0.00    -0.489 OA
BRANCH  27  32
ATOM     28  C   UNL     1       1.856   1.570  -2.350  0.00  0.00    +0.044 C 
ATOM     29  C   UNL     1       1.664   0.091  -2.132  0.00  0.00    -0.050 A 
ATOM     30  C   UNL     1       1.740  -0.780  -3.204  0.00  0.00    +0.007 A 
ATOM     31  C   UNL     1       1.564  -2.136  -3.007  0.00  0.00    +0.046 A 
ATOM     32  C   UNL     1       1.311  -2.624  -1.733  0.00  0.00    +0.121 A 
ATOM     33  C   UNL     1       1.235  -1.748  -0.660  0.00  0.00    +0.046 A 
ATOM     34  C   UNL     1       1.417  -0.393  -0.861  0.00  0.00    +0.007 A 
ENDBRANCH  27  32
ENDBRANCH  26  27
ENDBRANCH  25  26
ENDBRANCH  24  25
ENDBRANCH   1  24
TORSDOF 7
