REMARK  Name = ZINC09547196
REMARK  7 active torsions:
REMARK  status: ('A' for Active; 'I' for Inactive)
REMARK    1  A    between atoms: C_5  and  N_7
REMARK    2  A    between atoms: C_11  and  S_12
REMARK    3  A    between atoms: S_12  and  C_13
REMARK    4  A    between atoms: C_13  and  C_14
REMARK    5  A    between atoms: C_14  and  C_16
REMARK    6  A    between atoms: C_17  and  N_28
REMARK    7  A    between atoms: N_18  and  C_25
REMARK                            x       y       z     vdW  Elec       q    Type
REMARK                         _______ _______ _______ _____ _____    ______ ____
ROOT
ATOM      1  S   UNL     1      -3.457   2.246  -3.024  0.00  0.00    -0.078 S 
ENDROOT
BRANCH   1   6
ATOM      2  N   UNL     1      -3.712   3.199  -0.408  0.00  0.00    -0.257 N 
ATOM      3  C   UNL     1      -4.598   3.118   0.632  0.00  0.00    +0.225 A 
ATOM      4  N   UNL     1      -5.597   2.359   0.254  0.00  0.00    -0.112 NA
ATOM      5  N   UNL     1      -5.352   1.941  -1.060  0.00  0.00    -0.120 NA
ATOM      6  C   UNL     1      -4.213   2.462  -1.447  0.00  0.00    +0.198 A 
ATOM      7  N   UNL     1      -4.461   3.731   1.871  0.00  0.00    -0.299 N 
ATOM      8  C   UNL     1      -4.444   5.210   1.734  0.00  0.00    +0.108 C 
ATOM      9  C   UNL     1      -4.817   5.701   3.155  0.00  0.00    +0.020 C 
ATOM     10  C   UNL     1      -5.868   4.665   3.615  0.00  0.00    +0.020 C 
ATOM     11  C   UNL     1      -5.612   3.420   2.746  0.00  0.00    +0.108 C 
BRANCH   2  16
ATOM     12  C   UNL     1      -0.146   4.014  -0.007  0.00  0.00    +0.002 A 
ATOM     13  C   UNL     1      -0.129   5.333  -0.424  0.00  0.00    +0.002 A 
ATOM     14  C   UNL     1      -1.298   5.947  -0.832  0.00  0.00    +0.022 A 
ATOM     15  C   UNL     1      -2.489   5.244  -0.824  0.00  0.00    +0.065 A 
ATOM     16  C   UNL     1      -2.507   3.918  -0.412  0.00  0.00    +0.070 A 
ATOM     17  C   UNL     1      -1.332   3.306   0.002  0.00  0.00    +0.028 A 
ATOM     18 CL   UNL     1      -3.957   6.016  -1.336  0.00  0.00    -0.081 Cl
ENDBRANCH   2  16
ENDBRANCH   1   6
BRANCH   1  19
ATOM     19  C   UNL     1      -4.614   1.176  -3.923  0.00  0.00    +0.157 C 
BRANCH  19  20
ATOM     20  C   UNL     1      -4.081   0.909  -5.306  0.00  0.00    +0.182 C 
ATOM     21  O   UNL     1      -3.022   1.394  -5.653  0.00  0.00    -0.291 OA
BRANCH  20  22
ATOM     22  C   UNL     1      -4.810   0.096  -6.200  0.00  0.00    +0.120 A 
ATOM     23  C   UNL     1      -4.408  -0.054  -7.538  0.00  0.00    +0.116 A 
ATOM     24  N   UNL     1      -5.144  -0.856  -8.363  0.00  0.00    -0.278 N 
ATOM     25  C   UNL     1      -6.242  -1.489  -7.923  0.00  0.00    +0.331 A 
ATOM     26  O   UNL     1      -6.865  -2.188  -8.698  0.00  0.00    -0.246 OA
ATOM     27  N   UNL     1      -6.678  -1.379  -6.657  0.00  0.00    -0.274 N 
ATOM     28  H   UNL     1      -7.502  -1.870  -6.375  0.00  0.00    +0.173 HD
ATOM     29  C   UNL     1      -6.018  -0.616  -5.762  0.00  0.00    +0.266 A 
ATOM     30  O   UNL     1      -6.416  -0.519  -4.616  0.00  0.00    -0.267 OA
BRANCH  24  31
ATOM     31  C   UNL     1      -4.729  -1.024  -9.758  0.00  0.00    +0.094 C 
ATOM     32  C   UNL     1      -4.685  -2.448 -10.316  0.00  0.00    +0.027 C 
ATOM     33  C   UNL     1      -3.382  -1.701 -10.018  0.00  0.00    +0.027 C 
ENDBRANCH  24  31
BRANCH  23  34
ATOM     34  N   UNL     1      -3.300   0.586  -8.003  0.00  0.00    -0.344 N 
ATOM     35  H   UNL     1      -2.582   0.816  -7.393  0.00  0.00    +0.144 HD
ATOM     36  H   UNL     1      -3.229   0.811  -8.944  0.00  0.00    +0.144 HD
ENDBRANCH  23  34
ENDBRANCH  20  22
ENDBRANCH  19  20
ENDBRANCH   1  19
TORSDOF 7
