REMARK  Name = ZINC06459061
REMARK  3 active torsions:
REMARK  status: ('A' for Active; 'I' for Inactive)
REMARK    1  A    between atoms: C_1  and  O_2
REMARK    2  A    between atoms: O_2  and  C_3
REMARK    3  A    between atoms: C_8  and  C_9
REMARK                            x       y       z     vdW  Elec       q    Type
REMARK                         _______ _______ _______ _____ _____    ______ ____
ROOT
ATOM      1  C   UNL     1      -0.082   5.350   0.031  0.00  0.00    +0.096 C 
ATOM      2  C   UNL     1      -0.791   5.836  -1.198  0.00  0.00    +0.069 A 
ATOM      3  C   UNL     1      -0.141   5.826  -2.439  0.00  0.00    +0.258 A 
ATOM      4  O   UNL     1       1.008   5.425  -2.537  0.00  0.00    -0.267 OA
ATOM      5  N   UNL     1      -0.810   6.268  -3.525  0.00  0.00    -0.301 N 
ATOM      6  H   UNL     1      -0.319   6.272  -4.510  0.00  0.00    +0.171 HD
ATOM      7  C   UNL     1      -2.092   6.711  -3.405  0.00  0.00    +0.182 A 
ATOM      8  N   UNL     1      -2.707   6.723  -2.240  0.00  0.00    -0.207 NA
ATOM      9  C   UNL     1      -2.092   6.300  -1.130  0.00  0.00    +0.135 A 
ATOM     10  N   UNL     1      -2.747   6.322   0.085  0.00  0.00    -0.302 N 
ATOM     11  C   UNL     1      -2.044   6.273   1.258  0.00  0.00    +0.017 C 
ATOM     12  C   UNL     1      -0.771   5.826   1.285  0.00  0.00    +0.024 C 
ATOM     13  C   UNL     1      -0.042   5.789   2.488  0.00  0.00    +0.162 C 
ATOM     14  O   UNL     1       1.100   5.375   2.479  0.00  0.00    -0.292 OA
ATOM     15  C   UNL     1      -0.648   6.253   3.784  0.00  0.00    +0.080 C 
ATOM     16  C   UNL     1      -1.706   7.321   3.485  0.00  0.00    +0.014 C 
ATOM     17  C   UNL     1      -2.735   6.727   2.521  0.00  0.00    +0.051 C 
ATOM     18  S   UNL     1      -2.947   7.277  -4.838  0.00  0.00    -0.011 S 
ATOM     19  H   UNL     1      -3.845   6.381   0.117  0.00  0.00    +0.153 HD
ENDROOT
BRANCH   1  25
ATOM     20  C   UNL     1       1.155   3.169   0.008  0.00  0.00    +0.124 A 
ATOM     21  C   UNL     1       1.174   1.782   0.000  0.00  0.00    +0.046 A 
ATOM     22  C   UNL     1      -0.013   1.076   0.008  0.00  0.00    +0.004 A 
ATOM     23  C   UNL     1      -1.220   1.750   0.017  0.00  0.00    +0.001 A 
ATOM     24  C   UNL     1      -1.242   3.132   0.031  0.00  0.00    +0.008 A 
ATOM     25  C   UNL     1      -0.057   3.844   0.023  0.00  0.00    +0.006 A 
BRANCH  20  27
ATOM     26  C   UNL     1       3.531   3.107  -0.016  0.00  0.00    +0.277 C 
ATOM     27  O   UNL     1       2.321   3.867   0.000  0.00  0.00    -0.495 OA
ENDBRANCH  20  27
ENDBRANCH   1  25
TORSDOF 2
