REMARK  Name = ZINC66672464
REMARK  5 active torsions:
REMARK  status: ('A' for Active; 'I' for Inactive)
REMARK    1  A    between atoms: C_10  and  N_12
REMARK    2  A    between atoms: C_13  and  N_17
REMARK    3  A    between atoms: C_18  and  C_20
REMARK    4  A    between atoms: C_20  and  N_21
REMARK    5  A    between atoms: N_24  and  C_25
REMARK                            x       y       z     vdW  Elec       q    Type
REMARK                         _______ _______ _______ _____ _____    ______ ____
ROOT
ATOM      1  N   UNL     1       4.649   0.018   0.860  0.00  0.00    -0.243 N 
ATOM      2  C   UNL     1       5.813   0.616   0.520  0.00  0.00    +0.124 A 
ATOM      3  C   UNL     1       6.352   1.140   1.655  0.00  0.00    +0.065 A 
ATOM      4  C   UNL     1       5.487   0.850   2.713  0.00  0.00    +0.136 A 
ATOM      5  N   UNL     1       4.466   0.184   2.239  0.00  0.00    -0.177 NA
ENDROOT
BRANCH   1  15
ATOM      6  C   UNL     1      -0.017   1.375   0.010  0.00  0.00    +0.000 A 
ATOM      7  C   UNL     1       1.174   2.078   0.002  0.00  0.00    +0.000 A 
ATOM      8  C   UNL     1       2.372   1.395  -0.016  0.00  0.00    +0.006 A 
ATOM      9  C   UNL     1       2.393   0.006  -0.025  0.00  0.00    -0.020 A 
ATOM     10  C   UNL     1       1.208  -0.694  -0.013  0.00  0.00    -0.042 A 
ATOM     11  C   UNL     1       0.002  -0.004   0.002  0.00  0.00    +0.004 A 
ATOM     12  C   UNL     1       1.155  -2.199  -0.005  0.00  0.00    +0.035 C 
ATOM     13  C   UNL     1       2.493  -2.786  -0.452  0.00  0.00    +0.007 C 
ATOM     14  C   UNL     1       3.607  -2.135   0.376  0.00  0.00    +0.032 C 
ATOM     15  C   UNL     1       3.736  -0.675  -0.053  0.00  0.00    +0.139 C 
ENDBRANCH   1  15
BRANCH   2  16
ATOM     16  N   UNL     1       6.362   0.684  -0.760  0.00  0.00    -0.269 N 
ATOM     17  C   UNL     1       7.536   1.315  -0.958  0.00  0.00    +0.235 C 
ATOM     18  O   UNL     1       8.116   1.824  -0.022  0.00  0.00    -0.274 OA
ATOM     19  H   UNL     1       5.898   0.276  -1.509  0.00  0.00    +0.156 HD
BRANCH  17  20
ATOM     20  C   UNL     1       8.129   1.387  -2.342  0.00  0.00    +0.202 C 
BRANCH  20  21
ATOM     21  N   UNL     1       9.397   2.119  -2.292  0.00  0.00    -0.291 N 
ATOM     22  C   UNL     1      10.110   2.309  -3.420  0.00  0.00    +0.300 C 
ATOM     23  O   UNL     1       9.701   1.873  -4.479  0.00  0.00    -0.253 OA
ATOM     24  N   UNL     1      11.277   2.983  -3.374  0.00  0.00    -0.297 N 
ATOM     25  H   UNL     1       9.723   2.467  -1.447  0.00  0.00    +0.151 HD
ATOM     26  H   UNL     1      11.603   3.330  -2.529  0.00  0.00    +0.151 HD
BRANCH  24  27
ATOM     27  C   UNL     1      12.052   3.189  -4.600  0.00  0.00    +0.075 C 
ATOM     28  C   UNL     1      13.564   2.973  -4.524  0.00  0.00    +0.024 C 
ATOM     29  C   UNL     1      12.999   4.390  -4.643  0.00  0.00    +0.024 C 
ENDBRANCH  24  27
ENDBRANCH  20  21
ENDBRANCH  17  20
ENDBRANCH   2  16
TORSDOF 5
