REMARK  Name = ZINC63794307
REMARK  2 active torsions:
REMARK  status: ('A' for Active; 'I' for Inactive)
REMARK    1  A    between atoms: C_1  and  C_2
REMARK    2  A    between atoms: C_22  and  C_26
REMARK                            x       y       z     vdW  Elec       q    Type
REMARK                         _______ _______ _______ _____ _____    ______ ____
ROOT
ATOM      1  C   UNL     1      -0.018   1.503   0.010  0.00  0.00    +0.045 C 
ATOM      2  C   UNL     1       0.002  -0.004   0.002  0.00  0.00    -0.029 A 
ATOM      3  C   UNL     1       0.006  -0.720  -1.185  0.00  0.00    +0.005 A 
ATOM      4  C   UNL     1       0.026  -2.099  -1.207  0.00  0.00    +0.001 A 
ATOM      5  C   UNL     1       0.041  -2.842  -0.031  0.00  0.00    +0.008 A 
ATOM      6  C   UNL     1       0.036  -2.138   1.154  0.00  0.00    +0.005 A 
ATOM      7  C   UNL     1       0.023  -0.737   1.189  0.00  0.00    +0.042 A 
ATOM      8  N   UNL     1       0.029  -0.289   2.498  0.00  0.00    -0.283 N 
ATOM      9  C   UNL     1       0.052  -1.308   3.382  0.00  0.00    +0.244 C 
ATOM     10  O   UNL     1       0.063  -1.214   4.591  0.00  0.00    -0.273 OA
ATOM     11  C   UNL     1       0.048  -2.591   2.579  0.00  0.00    +0.148 C 
ATOM     12  C   UNL     1       1.302  -3.398   2.896  0.00  0.00    +0.140 C 
ATOM     13  C   UNL     1       1.146  -4.739   2.186  0.00  0.00    -0.027 C 
ATOM     14  C   UNL     1       2.244  -4.910   1.463  0.00  0.00    -0.000 A 
ATOM     15  C   UNL     1       2.713  -6.038   0.642  0.00  0.00    +0.010 A 
ATOM     16  C   UNL     1       3.906  -5.866   0.013  0.00  0.00    +0.001 A 
ATOM     17  C   UNL     1       4.668  -4.699   0.115  0.00  0.00    +0.002 A 
ATOM     18  C   UNL     1       4.316  -3.614   0.850  0.00  0.00    +0.026 A 
ATOM     19  C   UNL     1       3.085  -3.678   1.565  0.00  0.00    +0.043 A 
ATOM     20  N   UNL     1       2.523  -2.798   2.363  0.00  0.00    -0.375 N 
ATOM     21  C   UNL     1      -0.119  -5.554   2.303  0.00  0.00    +0.068 C 
ATOM     22  C   UNL     1      -1.284  -4.580   2.048  0.00  0.00    +0.095 C 
ATOM     23  N   UNL     1      -1.142  -3.389   2.892  0.00  0.00    -0.297 NA
ATOM     24  H   UNL     1       0.019   0.648   2.751  0.00  0.00    +0.155 HD
ATOM     25  H   UNL     1      -1.166  -3.635   3.870  0.00  0.00    +0.123 HD
ATOM     26  H   UNL     1       2.852  -1.907   2.563  0.00  0.00    +0.160 HD
ENDROOT
BRANCH  21  27
ATOM     27  C   UNL     1      -0.124  -6.653   1.272  0.00  0.00    -0.002 A 
ATOM     28  C   UNL     1      -0.189  -7.994   1.454  0.00  0.00    +0.012 A 
ATOM     29  C   UNL     1      -0.180  -8.822   0.347  0.00  0.00    +0.008 A 
ATOM     30  C   UNL     1      -0.108  -8.268  -0.888  0.00  0.00    +0.045 A 
ATOM     31  S   UNL     1      -0.056  -6.525  -0.508  0.00  0.00    -0.101 S 
ENDBRANCH  21  27
TORSDOF 1
