REMARK  Name = ZINC59309530
REMARK  9 active torsions:
REMARK  status: ('A' for Active; 'I' for Inactive)
REMARK    1  A    between atoms: C_1  and  C_2
REMARK    2  A    between atoms: C_2  and  C_26
REMARK    3  A    between atoms: N_3  and  N_4
REMARK    4  A    between atoms: C_7  and  S_10
REMARK    5  A    between atoms: S_10  and  C_11
REMARK    6  A    between atoms: C_11  and  C_12
REMARK    7  A    between atoms: N_14  and  C_15
REMARK    8  A    between atoms: C_16  and  C_24
REMARK    9  A    between atoms: C_29  and  N_32
REMARK                            x       y       z     vdW  Elec       q    Type
REMARK                         _______ _______ _______ _____ _____    ______ ____
ROOT
ATOM      1  N   UNL     1      -1.026  -1.643   1.344  0.00  0.00    -0.205 N 
ATOM      2  C   UNL     1      -1.531  -2.009   2.579  0.00  0.00    +0.232 A 
ATOM      3  N   UNL     1      -1.481  -1.289   3.680  0.00  0.00    -0.186 NA
ATOM      4  C   UNL     1      -2.067  -1.956   4.680  0.00  0.00    +0.211 A 
ATOM      5  N   UNL     1      -2.496  -3.110   4.229  0.00  0.00    -0.144 NA
ATOM      6  N   UNL     1      -2.165  -3.166   2.865  0.00  0.00    -0.245 N 
ATOM      7  H   UNL     1      -1.115  -2.242   0.587  0.00  0.00    +0.177 HD
ATOM      8  H   UNL     1      -2.354  -3.892   2.251  0.00  0.00    +0.192 HD
ENDROOT
BRANCH   1  11
ATOM      9  C   UNL     1       0.814   1.238  -0.141  0.00  0.00    +0.068 C 
ATOM     10  C   UNL     1      -0.009  -0.015   0.009  0.00  0.00    +0.063 C 
ATOM     11  N   UNL     1      -0.387  -0.406   1.188  0.00  0.00    -0.184 NA
BRANCH  10  12
ATOM     12  C   UNL     1      -0.386  -0.796  -1.183  0.00  0.00    -0.002 A 
ATOM     13  C   UNL     1      -1.655  -1.376  -1.268  0.00  0.00    +0.011 A 
ATOM     14  C   UNL     1      -2.004  -2.105  -2.383  0.00  0.00    +0.023 A 
ATOM     15  C   UNL     1      -1.095  -2.265  -3.424  0.00  0.00    +0.025 A 
ATOM     16  C   UNL     1       0.169  -1.691  -3.342  0.00  0.00    +0.023 A 
ATOM     17  C   UNL     1       0.523  -0.955  -2.232  0.00  0.00    +0.011 A 
BRANCH  15  18
ATOM     18  N   UNL     1      -1.452  -3.005  -4.552  0.00  0.00    -0.358 N 
ATOM     19  H   UNL     1      -2.333  -3.407  -4.610  0.00  0.00    +0.142 HD
ATOM     20  H   UNL     1      -0.819  -3.118  -5.278  0.00  0.00    +0.142 HD
ENDBRANCH  15  18
ENDBRANCH  10  12
ENDBRANCH   1  11
BRANCH   4  21
ATOM     21  S   UNL     1      -2.232  -1.379   6.337  0.00  0.00    -0.075 S 
BRANCH  21  22
ATOM     22  C   UNL     1      -3.102  -2.725   7.186  0.00  0.00    +0.173 C 
BRANCH  22  23
ATOM     23  C   UNL     1      -3.311  -2.356   8.632  0.00  0.00    +0.228 C 
ATOM     24  O   UNL     1      -2.912  -1.288   9.048  0.00  0.00    -0.275 OA
ATOM     25  N   UNL     1      -3.940  -3.211   9.462  0.00  0.00    -0.278 N 
ATOM     26  H   UNL     1      -4.259  -4.064   9.128  0.00  0.00    +0.155 HD
BRANCH  25  27
ATOM     27  C   UNL     1      -4.133  -2.870  10.793  0.00  0.00    +0.090 A 
ATOM     28  C   UNL     1      -4.748  -3.618  11.783  0.00  0.00    +0.084 A 
ATOM     29  C   UNL     1      -4.822  -3.033  13.110  0.00  0.00    -0.018 A 
ATOM     30  C   UNL     1      -4.268  -1.804  13.203  0.00  0.00    -0.004 A 
ATOM     31  S   UNL     1      -3.667  -1.459  11.576  0.00  0.00    -0.077 S 
ATOM     32  C   UNL     1      -4.188  -0.943  14.426  0.00  0.00    +0.043 C 
ATOM     33  C   UNL     1      -5.163  -1.502  15.473  0.00  0.00    +0.005 C 
ATOM     34  C   UNL     1      -4.955  -3.015  15.586  0.00  0.00    +0.005 C 
ATOM     35  C   UNL     1      -5.458  -3.707  14.317  0.00  0.00    +0.037 C 
BRANCH  28  36
ATOM     36  C   UNL     1      -5.288  -4.916  11.510  0.00  0.00    +0.102 C 
ATOM     37  N   UNL     1      -5.716  -5.946  11.293  0.00  0.00    -0.191 NA
ENDBRANCH  28  36
ENDBRANCH  25  27
ENDBRANCH  22  23
ENDBRANCH  21  22
ENDBRANCH   4  21
TORSDOF 8
