REMARK  Name = ZINC56806639
REMARK  6 active torsions:
REMARK  status: ('A' for Active; 'I' for Inactive)
REMARK    1  A    between atoms: C_5  and  O_7
REMARK    2  A    between atoms: O_7  and  C_8
REMARK    3  A    between atoms: C_8  and  C_9
REMARK    4  A    between atoms: N_11  and  N_12
REMARK    5  A    between atoms: N_15  and  C_16
REMARK    6  A    between atoms: N_25  and  C_27
REMARK                            x       y       z     vdW  Elec       q    Type
REMARK                         _______ _______ _______ _____ _____    ______ ____
ROOT
ATOM      1  N   UNL     1      -0.661  -6.422  -0.027  0.00  0.00    -0.218 N 
ATOM      2  C   UNL     1      -1.718  -7.259  -0.021  0.00  0.00    +0.316 C 
ATOM      3  O   UNL     1      -1.540  -8.462  -0.030  0.00  0.00    -0.251 OA
ATOM      4  N   UNL     1      -2.971  -6.763  -0.006  0.00  0.00    -0.295 N 
ATOM      5  H   UNL     1       0.240  -6.779  -0.039  0.00  0.00    +0.174 HD
ATOM      6  H   UNL     1      -3.112  -5.803   0.001  0.00  0.00    +0.151 HD
ENDROOT
BRANCH   4   7
ATOM      7  C   UNL     1      -4.116  -7.671   0.000  0.00  0.00    +0.077 C 
ATOM      8  C   UNL     1      -4.494  -8.066  -1.429  0.00  0.00    -0.007 C 
ATOM      9  C   UNL     1      -4.800  -6.822  -2.253  0.00  0.00    +0.003 C 
ATOM     10  C   UNL     1      -5.873  -5.946  -1.627  0.00  0.00    +0.001 C 
ATOM     11  C   UNL     1      -5.669  -5.713  -0.139  0.00  0.00    +0.003 C 
ATOM     12  C   UNL     1      -5.336  -6.988   0.623  0.00  0.00    -0.007 C 
ATOM     13  C   UNL     1      -6.511  -7.958   0.635  0.00  0.00    -0.073 C 
ATOM     14  N   UNL     1      -6.833  -8.483  -0.688  0.00  0.00    +0.382 N 
ATOM     15  C   UNL     1      -5.678  -9.024  -1.397  0.00  0.00    -0.073 C 
ATOM     16  H   UNL     1      -7.285  -7.775  -1.245  0.00  0.00    -0.081 HD
BRANCH  14  17
ATOM     17  C   UNL     1      -7.812  -9.565  -0.522  0.00  0.00    -0.069 C 
ATOM     18  C   UNL     1      -9.086  -9.501  -1.366  0.00  0.00    -0.017 C 
ATOM     19  C   UNL     1      -9.149  -9.214   0.135  0.00  0.00    -0.017 C 
ENDBRANCH  14  17
ENDBRANCH   4   7
BRANCH   1  22
ATOM     20  C   UNL     1       0.190  -4.199  -0.023  0.00  0.00    +0.267 C 
ATOM     21  O   UNL     1       1.318  -4.645  -0.037  0.00  0.00    -0.271 OA
ATOM     22  N   UNL     1      -0.866  -5.036  -0.018  0.00  0.00    -0.230 N 
ATOM     23  H   UNL     1      -1.768  -4.679  -0.006  0.00  0.00    +0.173 HD
BRANCH  20  24
ATOM     24  C   UNL     1      -0.030  -2.708  -0.013  0.00  0.00    +0.326 C 
BRANCH  24  25
ATOM     25  O   UNL     1       1.233  -2.040  -0.022  0.00  0.00    -0.480 OA
BRANCH  25  30
ATOM     26  C   UNL     1      -0.017   1.378   0.010  0.00  0.00    +0.004 A 
ATOM     27  C   UNL     1       1.170   2.087   0.002  0.00  0.00    +0.003 A 
ATOM     28  C   UNL     1       2.379   1.417  -0.013  0.00  0.00    +0.042 A 
ATOM     29  C   UNL     1       2.404   0.034  -0.022  0.00  0.00    +0.165 A 
ATOM     30  C   UNL     1       1.212  -0.680  -0.014  0.00  0.00    +0.156 A 
ATOM     31  C   UNL     1       0.002  -0.004   0.002  0.00  0.00    +0.048 A 
ATOM     32  F   UNL     1       3.585  -0.622  -0.038  0.00  0.00    -0.202 F 
ENDBRANCH  25  30
ENDBRANCH  24  25
ENDBRANCH  20  24
ENDBRANCH   1  22
TORSDOF 6
