REMARK  Name = ZINC05727748
REMARK  9 active torsions:
REMARK  status: ('A' for Active; 'I' for Inactive)
REMARK    1  A    between atoms: C_1  and  C_2
REMARK    2  A    between atoms: C_2  and  C_29
REMARK    3  A    between atoms: C_4  and  C_9
REMARK    4  A    between atoms: C_9  and  C_12
REMARK    5  A    between atoms: N_10  and  O_11
REMARK    6  A    between atoms: C_12  and  C_13
REMARK    7  A    between atoms: C_20  and  O_21
REMARK    8  A    between atoms: O_21  and  C_22
REMARK    9  A    between atoms: C_28  and  N_58
REMARK                            x       y       z     vdW  Elec       q    Type
REMARK                         _______ _______ _______ _____ _____    ______ ____
ROOT
ATOM      1  C   UNL     1       0.997   2.944   2.312  0.00  0.00    -0.028 C 
ATOM      2  C   UNL     1      -0.055   3.643   1.490  0.00  0.00    -0.012 A 
ATOM      3  C   UNL     1      -0.233   5.009   1.545  0.00  0.00    -0.040 A 
ATOM      4  C   UNL     1      -1.223   5.610   0.784  0.00  0.00    +0.053 A 
ATOM      5  C   UNL     1      -2.032   4.850  -0.044  0.00  0.00    +0.170 A 
ATOM      6  C   UNL     1      -1.849   3.473  -0.112  0.00  0.00    +0.208 A 
ATOM      7  C   UNL     1      -0.859   2.874   0.654  0.00  0.00    +0.167 A 
ATOM      8  O   UNL     1      -2.758   2.954  -0.990  0.00  0.00    -0.449 OA
ATOM      9  C   UNL     1      -3.227   4.074  -1.764  0.00  0.00    +0.467 C 
ATOM     10  O   UNL     1      -3.056   5.196  -0.879  0.00  0.00    -0.452 OA
ATOM     11  C   UNL     1       0.628   5.883   2.421  0.00  0.00    +0.017 C 
ATOM     12  C   UNL     1       1.336   5.027   3.477  0.00  0.00    -0.074 C 
ATOM     13  C   UNL     1       2.974   3.251   3.671  0.00  0.00    -0.095 C 
ATOM     14  N   UNL     1       2.004   3.915   2.771  0.00  0.00    +0.383 N 
ATOM     15  H   UNL     1       2.505   4.288   1.956  0.00  0.00    -0.081 HD
ENDROOT
BRANCH   7  16
ATOM     16  O   UNL     1      -0.678   1.528   0.592  0.00  0.00    -0.491 OA
ATOM     17  C   UNL     1      -1.520   0.721   1.417  0.00  0.00    +0.277 C 
ENDBRANCH   7  16
BRANCH   1  18
ATOM     18  C   UNL     1       1.686   1.882   1.454  0.00  0.00    +0.044 C 
BRANCH  18  19
ATOM     19  C   UNL     1       2.187   2.513   0.179  0.00  0.00    +0.059 C 
ATOM     20  N   UNL     1       2.096   3.778   0.013  0.00  0.00    -0.096 NA
BRANCH  19  24
ATOM     21  C   UNL     1       1.336  -1.225  -2.999  0.00  0.00    +0.041 C 
ATOM     22  C   UNL     1       2.377  -0.226  -2.488  0.00  0.00    +0.065 C 
ATOM     23  C   UNL     1       1.732   0.696  -1.450  0.00  0.00    +0.044 C 
ATOM     24  C   UNL     1       2.794   1.653  -0.899  0.00  0.00    +0.042 C 
ATOM     25  C   UNL     1       3.948   0.835  -0.313  0.00  0.00    +0.037 C 
ATOM     26  C   UNL     1       4.507  -0.093  -1.395  0.00  0.00    +0.161 C 
ATOM     27  O   UNL     1       3.462  -0.935  -1.886  0.00  0.00    -0.374 OA
ATOM     28  C   UNL     1       2.899   0.610  -3.658  0.00  0.00    +0.041 C 
ENDBRANCH  19  24
BRANCH  20  29
ATOM     29  O   UNL     1       2.454   4.357  -1.228  0.00  0.00    -0.409 OA
ATOM     30  H   UNL     1       2.352   5.318  -1.258  0.00  0.00    +0.328 HD
ENDBRANCH  20  29
ENDBRANCH  18  19
ENDBRANCH   1  18
TORSDOF 5
