REMARK  Name = ZINC66939192
REMARK  10 active torsions:
REMARK  status: ('A' for Active; 'I' for Inactive)
REMARK    1  A    between atoms: C_1  and  C_2
REMARK    2  A    between atoms: C_2  and  C_3
REMARK    3  A    between atoms: C_2  and  O_4
REMARK    4  A    between atoms: O_4  and  C_5
REMARK    5  A    between atoms: C_5  and  C_6
REMARK    6  A    between atoms: C_11  and  C_12
REMARK    7  A    between atoms: C_12  and  N_13
REMARK    8  A    between atoms: N_13  and  C_14
REMARK    9  A    between atoms: C_14  and  C_16
REMARK   10  A    between atoms: C_14  and  C_23
REMARK                            x       y       z     vdW  Elec       q    Type
REMARK                         _______ _______ _______ _____ _____    ______ ____
ROOT
ATOM      1  N   UNL     1      -2.585  -2.377  -4.011  0.00  0.00    +0.392 N 
ATOM      2  H   UNL     1      -1.845  -2.456  -3.330  0.00  0.00    -0.084 HD
ATOM      3  H   UNL     1      -3.127  -3.228  -4.020  0.00  0.00    -0.084 HD
ENDROOT
BRANCH   1   4
ATOM      4  C   UNL     1      -3.455  -1.247  -3.658  0.00  0.00    -0.045 C 
BRANCH   4  10
ATOM      5  C   UNL     1      -3.305  -1.214  -1.159  0.00  0.00    -0.021 A 
ATOM      6  C   UNL     1      -3.852  -1.421   0.093  0.00  0.00    +0.006 A 
ATOM      7  C   UNL     1      -5.144  -1.898   0.212  0.00  0.00    +0.000 A 
ATOM      8  C   UNL     1      -5.888  -2.168  -0.922  0.00  0.00    +0.000 A 
ATOM      9  C   UNL     1      -5.341  -1.960  -2.174  0.00  0.00    +0.002 A 
ATOM     10  C   UNL     1      -4.050  -1.478  -2.292  0.00  0.00    -0.059 A 
BRANCH   5  11
ATOM     11  C   UNL     1      -1.896  -0.693  -1.289  0.00  0.00    +0.195 C 
BRANCH  11  12
ATOM     12  O   UNL     1      -1.339  -0.499   0.012  0.00  0.00    -0.373 OA
BRANCH  12  14
ATOM     13  C   UNL     1      -0.019   1.526   0.010  0.00  0.00    +0.037 C 
ATOM     14  C   UNL     1       0.002  -0.004   0.002  0.00  0.00    +0.113 C 
ATOM     15  C   UNL     1       0.742  -0.511   1.242  0.00  0.00    +0.037 C 
ENDBRANCH  12  14
ENDBRANCH  11  12
ENDBRANCH   5  11
ENDBRANCH   4  10
ENDBRANCH   1   4
BRANCH   1  16
ATOM     16  C   UNL     1      -2.005  -2.151  -5.341  0.00  0.00    +0.047 C 
BRANCH  16  17
ATOM     17  C   UNL     1      -1.212  -3.363  -5.756  0.00  0.00    -0.053 A 
ATOM     18  C   UNL     1      -0.436  -4.032  -4.827  0.00  0.00    +0.005 A 
ATOM     19  C   UNL     1       0.291  -5.144  -5.205  0.00  0.00    +0.038 A 
ATOM     20  C   UNL     1       0.244  -5.588  -6.516  0.00  0.00    +0.123 A 
ATOM     21  C   UNL     1      -0.533  -4.917  -7.446  0.00  0.00    +0.038 A 
ATOM     22  C   UNL     1      -1.264  -3.809  -7.063  0.00  0.00    +0.005 A 
ATOM     23  F   UNL     1       0.956  -6.675  -6.888  0.00  0.00    -0.205 F 
ENDBRANCH  16  17
BRANCH  16  24
ATOM     24  C   UNL     1      -1.099  -0.948  -5.296  0.00  0.00    +0.201 C 
ATOM     25  O   UNL     1      -0.950  -0.339  -4.258  0.00  0.00    -0.277 OA
ATOM     26  N   UNL     1      -0.453  -0.549  -6.410  0.00  0.00    -0.330 N 
ATOM     27  H   UNL     1      -0.571  -1.036  -7.240  0.00  0.00    +0.145 HD
ATOM     28  H   UNL     1       0.131   0.225  -6.381  0.00  0.00    +0.145 HD
ENDBRANCH  16  24
ENDBRANCH   1  16
TORSDOF 8
