REMARK  Name = ZINC39665295
REMARK  10 active torsions:
REMARK  status: ('A' for Active; 'I' for Inactive)
REMARK    1  A    between atoms: C_1  and  C_2
REMARK    2  A    between atoms: C_2  and  C_4
REMARK    3  A    between atoms: C_2  and  O_33
REMARK    4  A    between atoms: C_4  and  N_5
REMARK    5  A    between atoms: C_6  and  C_8
REMARK    6  A    between atoms: C_19  and  C_21
REMARK    7  A    between atoms: C_24  and  O_31
REMARK    8  A    between atoms: C_25  and  C_27
REMARK    9  A    between atoms: O_31  and  C_32
REMARK   10  A    between atoms: O_33  and  C_34
REMARK                            x       y       z     vdW  Elec       q    Type
REMARK                         _______ _______ _______ _____ _____    ______ ____
ROOT
ATOM      1  C   UNL     1       0.999  -4.172  -2.551  0.00  0.00    +0.100 C 
ATOM      2  C   UNL     1      -0.445  -4.622  -2.867  0.00  0.00    +0.121 C 
ATOM      3  N   UNL     1      -0.468  -4.800  -4.338  0.00  0.00    -0.296 N 
ATOM      4  C   UNL     1       0.844  -5.413  -4.656  0.00  0.00    +0.115 C 
ATOM      5  C   UNL     1       1.843  -4.696  -3.725  0.00  0.00    -0.004 C 
ATOM      6  C   UNL     1       2.506  -3.535  -4.459  0.00  0.00    -0.010 C 
ATOM      7  C   UNL     1       3.383  -4.084  -5.587  0.00  0.00    -0.082 C 
ATOM      8  N   UNL     1       4.402  -4.979  -5.025  0.00  0.00    +0.379 N 
ATOM      9  C   UNL     1       3.758  -6.142  -4.401  0.00  0.00    -0.082 C 
ATOM     10  C   UNL     1       2.896  -5.679  -3.223  0.00  0.00    -0.010 C 
ATOM     11  C   UNL     1      -1.458  -4.477  -5.194  0.00  0.00    +0.247 C 
ATOM     12  O   UNL     1      -2.436  -3.877  -4.793  0.00  0.00    -0.270 OA
ATOM     13  H   UNL     1       5.016  -5.292  -5.762  0.00  0.00    -0.086 HD
ATOM     14  H   UNL     1       4.939  -4.482  -4.331  0.00  0.00    -0.086 HD
ENDROOT
BRANCH  11  15
ATOM     15  C   UNL     1      -1.353  -4.851  -6.618  0.00  0.00    +0.038 A 
ATOM     16  C   UNL     1      -0.558  -5.935  -7.001  0.00  0.00    +0.016 A 
ATOM     17  C   UNL     1      -0.464  -6.281  -8.331  0.00  0.00    +0.047 A 
ATOM     18  C   UNL     1      -1.159  -5.554  -9.291  0.00  0.00    +0.132 A 
ATOM     19  C   UNL     1      -1.950  -4.476  -8.914  0.00  0.00    +0.097 A 
ATOM     20  C   UNL     1      -2.054  -4.126  -7.586  0.00  0.00    +0.029 A 
BRANCH  19  21
ATOM     21  C   UNL     1      -2.700  -3.691  -9.959  0.00  0.00    +0.421 C 
ATOM     22  F   UNL     1      -3.421  -2.663  -9.342  0.00  0.00    -0.166 F 
ATOM     23  F   UNL     1      -1.792  -3.142 -10.871  0.00  0.00    -0.166 F 
ATOM     24  F   UNL     1      -3.584  -4.540 -10.634  0.00  0.00    -0.166 F 
ENDBRANCH  19  21
BRANCH  18  25
ATOM     25  O   UNL     1      -1.063  -5.898 -10.600  0.00  0.00    -0.495 OA
ATOM     26  C   UNL     1      -0.232  -7.016 -10.918  0.00  0.00    +0.277 C 
ENDBRANCH  18  25
ENDBRANCH  11  15
BRANCH   1  28
ATOM     27  N   UNL     1       2.096  -2.077  -1.825  0.00  0.00    -0.312 N 
ATOM     28  C   UNL     1       1.077  -2.669  -2.479  0.00  0.00    +0.218 C 
ATOM     29  O   UNL     1       0.222  -1.992  -3.009  0.00  0.00    -0.275 OA
ATOM     30  H   UNL     1       2.780  -2.619  -1.401  0.00  0.00    +0.149 HD
BRANCH  27  31
ATOM     31  C   UNL     1       2.171  -0.616  -1.755  0.00  0.00    +0.148 C 
BRANCH  31  33
ATOM     32  C   UNL     1       3.427   1.313  -0.783  0.00  0.00    +0.053 C 
ATOM     33  C   UNL     1       3.414  -0.206  -0.963  0.00  0.00    +0.187 C 
BRANCH  33  34
ATOM     34  O   UNL     1       4.587  -0.612  -1.673  0.00  0.00    -0.488 OA
BRANCH  34  35
ATOM     35  C   UNL     1       5.714  -0.809  -0.941  0.00  0.00    +0.121 A 
ATOM     36  C   UNL     1       5.669  -0.720   0.443  0.00  0.00    +0.045 A 
ATOM     37  C   UNL     1       6.816  -0.921   1.185  0.00  0.00    +0.004 A 
ATOM     38  C   UNL     1       8.010  -1.210   0.550  0.00  0.00    +0.000 A 
ATOM     39  C   UNL     1       8.058  -1.299  -0.829  0.00  0.00    +0.004 A 
ATOM     40  C   UNL     1       6.912  -1.105  -1.575  0.00  0.00    +0.045 A 
ENDBRANCH  34  35
ENDBRANCH  33  34
ENDBRANCH  31  33
ENDBRANCH  27  31
ENDBRANCH   1  28
TORSDOF 8
