REMARK  Name = ZINC44750338
REMARK  4 active torsions:
REMARK  status: ('A' for Active; 'I' for Inactive)
REMARK    1  A    between atoms: C_1  and  C_2
REMARK    2  A    between atoms: C_4  and  N_18
REMARK    3  A    between atoms: C_7  and  C_8
REMARK    4  A    between atoms: C_10  and  C_13
REMARK                            x       y       z     vdW  Elec       q    Type
REMARK                         _______ _______ _______ _____ _____    ______ ____
ROOT
ATOM      1  C   UNL     1      -0.312   1.484   0.048  0.00  0.00    +0.044 C 
ATOM      2  C   UNL     1      -0.139  -0.013   0.020  0.00  0.00    -0.036 A 
ATOM      3  C   UNL     1      -0.239  -0.697  -1.171  0.00  0.00    +0.026 A 
ATOM      4  C   UNL     1      -0.080  -2.079  -1.198  0.00  0.00    +0.025 A 
ATOM      5  C   UNL     1       0.180  -2.775  -0.021  0.00  0.00    +0.023 A 
ATOM      6  C   UNL     1       0.282  -2.097   1.173  0.00  0.00    +0.015 A 
ATOM      7  C   UNL     1       0.129  -0.708   1.202  0.00  0.00    +0.042 A 
ENDROOT
BRANCH   7   8
ATOM      8  C   UNL     1       0.243   0.022   2.480  0.00  0.00    +0.259 A 
ATOM      9  N   UNL     1      -0.330  -0.315   3.612  0.00  0.00    -0.187 NA
ATOM     10  C   UNL     1      -0.011   0.573   4.569  0.00  0.00    +0.209 A 
ATOM     11  N   UNL     1       0.774   1.490   4.050  0.00  0.00    -0.055 NA
ATOM     12  O   UNL     1       0.956   1.144   2.685  0.00  0.00    -0.332 OA
BRANCH  10  13
ATOM     13  C   UNL     1      -0.467   0.527   5.973  0.00  0.00    +0.060 A 
ATOM     14  C   UNL     1      -0.192   1.391   6.999  0.00  0.00    +0.019 A 
ATOM     15  C   UNL     1      -0.736   1.142   8.239  0.00  0.00    +0.008 A 
ATOM     16  C   UNL     1      -1.527   0.050   8.408  0.00  0.00    +0.046 A 
ATOM     17  S   UNL     1      -1.528  -0.667   6.772  0.00  0.00    -0.093 S 
ENDBRANCH  10  13
ENDBRANCH   7   8
BRANCH   4  18
ATOM     18  N   UNL     1      -0.182  -2.767  -2.404  0.00  0.00    -0.358 N 
ATOM     19  H   UNL     1      -0.364  -2.283  -3.225  0.00  0.00    +0.142 HD
ATOM     20  H   UNL     1      -0.071  -3.731  -2.423  0.00  0.00    +0.142 HD
ENDBRANCH   4  18
TORSDOF 3
