REMARK  Name = ZINC36052840
REMARK  13 active torsions:
REMARK  status: ('A' for Active; 'I' for Inactive)
REMARK    1  A    between atoms: C_1  and  C_2
REMARK    2  A    between atoms: C_2  and  C_3
REMARK    3  A    between atoms: C_4  and  C_35
REMARK    4  A    between atoms: C_5  and  C_28
REMARK    5  A    between atoms: C_8  and  C_13
REMARK    6  A    between atoms: C_14  and  N_16
REMARK    7  A    between atoms: C_20  and  C_23
REMARK    8  A    between atoms: C_23  and  O_25
REMARK    9  A    between atoms: O_25  and  C_26
REMARK   10  A    between atoms: C_26  and  C_27
REMARK   11  A    between atoms: C_32  and  C_34
REMARK   12  A    between atoms: C_35  and  O_37
REMARK   13  A    between atoms: O_37  and  C_38
REMARK                            x       y       z     vdW  Elec       q    Type
REMARK                         _______ _______ _______ _____ _____    ______ ____
ROOT
ATOM      1  C   UNL     1       0.502  -1.396  -1.587  0.00  0.00    +0.056 C 
ATOM      2  C   UNL     1       1.879  -1.445  -1.479  0.00  0.00    +0.083 C 
ATOM      3  C   UNL     1       2.681  -1.596  -2.752  0.00  0.00    +0.150 C 
ATOM      4  N   UNL     1       1.919  -1.679  -4.026  0.00  0.00    -0.267 N 
ATOM      5  C   UNL     1       2.438  -1.817  -5.298  0.00  0.00    +0.048 C 
ATOM      6  C   UNL     1       1.567  -1.874  -6.329  0.00  0.00    +0.072 C 
ATOM      7  S   UNL     1      -0.001  -1.730  -5.494  0.00  0.00    -0.060 S 
ATOM      8  C   UNL     1       0.558  -1.610  -3.916  0.00  0.00    +0.166 C 
ATOM      9  N   UNL     1      -0.081  -1.484  -2.771  0.00  0.00    -0.229 NA
ENDROOT
BRANCH   3  10
ATOM     10  C   UNL     1       3.516  -2.844  -2.629  0.00  0.00    -0.022 A 
ATOM     11  C   UNL     1       2.937  -4.085  -2.823  0.00  0.00    +0.006 A 
ATOM     12  C   UNL     1       3.703  -5.230  -2.710  0.00  0.00    +0.001 A 
ATOM     13  C   UNL     1       5.048  -5.134  -2.405  0.00  0.00    +0.003 A 
ATOM     14  C   UNL     1       5.627  -3.894  -2.212  0.00  0.00    -0.050 A 
ATOM     15  C   UNL     1       4.862  -2.749  -2.329  0.00  0.00    +0.009 A 
ATOM     16  C   UNL     1       7.093  -3.790  -1.879  0.00  0.00    +0.044 C 
ENDBRANCH   3  10
BRANCH   5  17
ATOM     17  C   UNL     1       3.889  -1.899  -5.522  0.00  0.00    +0.091 C 
ATOM     18  C   UNL     1       4.365  -2.188  -6.749  0.00  0.00    +0.241 C 
ATOM     19  O   UNL     1       3.516  -2.283  -7.801  0.00  0.00    -0.271 OA
BRANCH  18  20
ATOM     20  N   UNL     1       5.723  -2.386  -6.935  0.00  0.00    -0.297 N 
ATOM     21  C   UNL     1       6.547  -2.971  -5.869  0.00  0.00    +0.108 C 
ATOM     22  C   UNL     1       7.304  -4.176  -6.436  0.00  0.00    +0.020 C 
ATOM     23  C   UNL     1       8.093  -3.741  -7.673  0.00  0.00    +0.018 C 
ATOM     24  C   UNL     1       7.126  -3.232  -8.744  0.00  0.00    +0.115 C 
ATOM     25  C   UNL     1       6.365  -2.022  -8.206  0.00  0.00    +0.122 C 
BRANCH  24  26
ATOM     26  C   UNL     1       7.900  -2.835  -9.974  0.00  0.00    +0.312 C 
ATOM     27  O   UNL     1       9.103  -2.949  -9.993  0.00  0.00    -0.250 OA
BRANCH  26  28
ATOM     28  O   UNL     1       7.254  -2.356 -11.049  0.00  0.00    -0.465 OA
BRANCH  28  29
ATOM     29  C   UNL     1       8.051  -2.000 -12.180  0.00  0.00    +0.229 C 
ATOM     30  C   UNL     1       7.146  -1.479 -13.298  0.00  0.00    +0.048 C 
ENDBRANCH  28  29
ENDBRANCH  26  28
ENDBRANCH  24  26
ENDBRANCH  18  20
ENDBRANCH   5  17
BRANCH   1  32
ATOM     31  C   UNL     1      -0.451   0.233   0.021  0.00  0.00    +0.010 C 
ATOM     32  C   UNL     1      -0.341  -1.248  -0.347  0.00  0.00    +0.053 C 
ENDBRANCH   1  32
BRANCH   2  33
ATOM     33  C   UNL     1       2.510  -1.359  -0.232  0.00  0.00    +0.339 C 
ATOM     34  O   UNL     1       1.843  -1.316   0.787  0.00  0.00    -0.245 OA
BRANCH  33  35
ATOM     35  O   UNL     1       3.859  -1.322  -0.159  0.00  0.00    -0.465 OA
ATOM     36  C   UNL     1       4.435  -1.233   1.146  0.00  0.00    +0.280 C 
ENDBRANCH  33  35
ENDBRANCH   2  33
TORSDOF 9
