REMARK  Name = ZINC04261431
REMARK  8 active torsions:
REMARK  status: ('A' for Active; 'I' for Inactive)
REMARK    1  A    between atoms: C_1  and  C_2
REMARK    2  A    between atoms: C_2  and  C_4
REMARK    3  A    between atoms: C_2  and  N_46
REMARK    4  A    between atoms: C_4  and  N_5
REMARK    5  A    between atoms: C_6  and  C_7
REMARK    6  A    between atoms: C_6  and  C_8
REMARK    7  A    between atoms: C_9  and  O_25
REMARK    8  A    between atoms: N_16  and  C_19
REMARK                            x       y       z     vdW  Elec       q    Type
REMARK                         _______ _______ _______ _____ _____    ______ ____
ROOT
ATOM      1  C   UNL     1       1.169   1.933  -0.477  0.00  0.00    +0.102 A 
ATOM      2  C   UNL     1       1.109   3.285  -0.132  0.00  0.00    +0.140 A 
ATOM      3  C   UNL     1      -0.143   3.804   0.428  0.00  0.00    +0.041 A 
ATOM      4  C   UNL     1      -0.257   5.151   0.791  0.00  0.00    +0.013 A 
ATOM      5  C   UNL     1      -1.430   5.619   1.311  0.00  0.00    +0.001 A 
ATOM      6  C   UNL     1      -2.513   4.767   1.482  0.00  0.00    +0.002 A 
ATOM      7  C   UNL     1      -2.423   3.437   1.132  0.00  0.00    +0.027 A 
ATOM      8  C   UNL     1      -1.237   2.938   0.601  0.00  0.00    +0.061 A 
ATOM      9  N   UNL     1      -1.142   1.608   0.242  0.00  0.00    -0.276 N 
ATOM     10  C   UNL     1      -0.010   1.094  -0.269  0.00  0.00    +0.269 A 
ATOM     11  O   UNL     1       0.033  -0.087  -0.567  0.00  0.00    -0.266 OA
ENDROOT
BRANCH   9  12
ATOM     12  C   UNL     1      -2.251   0.772   0.420  0.00  0.00    +0.050 A 
ATOM     13  C   UNL     1      -2.416   0.080   1.613  0.00  0.00    +0.026 A 
ATOM     14  C   UNL     1      -3.514  -0.739   1.787  0.00  0.00    +0.002 A 
ATOM     15  C   UNL     1      -4.443  -0.879   0.772  0.00  0.00    +0.000 A 
ATOM     16  C   UNL     1      -4.277  -0.196  -0.419  0.00  0.00    +0.002 A 
ATOM     17  C   UNL     1      -3.184   0.629  -0.598  0.00  0.00    +0.026 A 
ENDBRANCH   9  12
BRANCH   1  19
ATOM     18  N   UNL     1       2.720   1.608  -2.274  0.00  0.00    -0.289 NA
ATOM     19  C   UNL     1       2.398   1.364  -1.042  0.00  0.00    +0.049 C 
ATOM     20  C   UNL     1       3.286   0.494  -0.189  0.00  0.00    +0.066 C 
BRANCH  18  21
ATOM     21  C   UNL     1       3.878   0.943  -2.875  0.00  0.00    +0.125 C 
BRANCH  21  23
ATOM     22  C   UNL     1       4.604  -0.752  -4.561  0.00  0.00    -0.012 C 
ATOM     23  C   UNL     1       3.412   0.036  -4.016  0.00  0.00    -0.057 C 
BRANCH  23  26
ATOM     24  H   UNL     1       2.767  -1.474  -2.774  0.00  0.00    -0.090 HD
ATOM     25  H   UNL     1       1.570  -0.403  -3.207  0.00  0.00    -0.090 HD
ATOM     26  N   UNL     1       2.390  -0.911  -3.535  0.00  0.00    +0.381 N 
ATOM     27  H   UNL     1       2.115  -1.530  -4.306  0.00  0.00    -0.090 HD
ENDBRANCH  23  26
ENDBRANCH  21  23
ENDBRANCH  18  21
ENDBRANCH   1  19
BRANCH   2  28
ATOM     28  O   UNL     1       2.176   4.093  -0.309  0.00  0.00    -0.505 OA
ATOM     29  H   UNL     1       2.922   3.667  -0.754  0.00  0.00    +0.292 HD
ENDBRANCH   2  28
TORSDOF 6
