REMARK  Name = ZINC20477704
REMARK  12 active torsions:
REMARK  status: ('A' for Active; 'I' for Inactive)
REMARK    1  A    between atoms: C_1  and  C_2
REMARK    2  A    between atoms: C_3  and  C_20
REMARK    3  A    between atoms: N_10  and  C_11
REMARK    4  A    between atoms: C_11  and  C_12
REMARK    5  A    between atoms: C_20  and  N_21
REMARK    6  A    between atoms: N_21  and  C_22
REMARK    7  A    between atoms: C_22  and  C_23
REMARK    8  A    between atoms: C_23  and  N_24
REMARK    9  A    between atoms: N_24  and  C_25
REMARK   10  A    between atoms: C_25  and  C_26
REMARK   11  A    between atoms: C_26  and  C_28
REMARK   12  A    between atoms: C_26  and  O_29
REMARK                            x       y       z     vdW  Elec       q    Type
REMARK                         _______ _______ _______ _____ _____    ______ ____
ROOT
ATOM      1  C   UNL     1       2.188   7.025   0.081  0.00  0.00    +0.064 C 
ATOM      2  C   UNL     1       1.637   5.623   0.059  0.00  0.00    +0.021 A 
ATOM      3  C   UNL     1       2.377   4.503   0.054  0.00  0.00    -0.005 A 
ATOM      4  C   UNL     1       1.445   3.373   0.033  0.00  0.00    +0.005 A 
ATOM      5  C   UNL     1       1.602   1.986   0.019  0.00  0.00    +0.010 A 
ATOM      6  C   UNL     1       0.500   1.179   0.000  0.00  0.00    +0.001 A 
ATOM      7  C   UNL     1      -0.776   1.727  -0.011  0.00  0.00    +0.002 A 
ATOM      8  C   UNL     1      -0.954   3.093   0.008  0.00  0.00    +0.026 A 
ATOM      9  C   UNL     1       0.155   3.934   0.027  0.00  0.00    +0.050 A 
ATOM     10  N   UNL     1       0.306   5.302   0.043  0.00  0.00    -0.339 N 
ENDROOT
BRANCH  10  11
ATOM     11  C   UNL     1      -0.793   6.271   0.043  0.00  0.00    +0.158 C 
BRANCH  11  12
ATOM     12  C   UNL     1      -1.057   6.731  -1.367  0.00  0.00    -0.009 A 
ATOM     13  C   UNL     1      -0.308   7.757  -1.911  0.00  0.00    +0.008 A 
ATOM     14  C   UNL     1      -0.546   8.175  -3.207  0.00  0.00    +0.020 A 
ATOM     15  C   UNL     1      -1.543   7.575  -3.956  0.00  0.00    +0.042 A 
ATOM     16  C   UNL     1      -2.296   6.552  -3.410  0.00  0.00    +0.040 A 
ATOM     17  C   UNL     1      -2.054   6.130  -2.115  0.00  0.00    +0.047 A 
ATOM     18 CL   UNL     1      -3.000   4.846  -1.429  0.00  0.00    -0.083 Cl
ATOM     19 CL   UNL     1      -1.847   8.105  -5.581  0.00  0.00    -0.083 Cl
ENDBRANCH  11  12
ENDBRANCH  10  11
BRANCH   3  20
ATOM     20  C   UNL     1       3.882   4.424   0.066  0.00  0.00    +0.118 C 
BRANCH  20  21
ATOM     21  N   UNL     1       4.383   4.413  -1.315  0.00  0.00    -0.314 NA
ATOM     22  H   UNL     1       3.974   3.541  -1.847  0.00  0.00    +0.122 HD
BRANCH  21  23
ATOM     23  C   UNL     1       5.850   4.336  -1.342  0.00  0.00    +0.062 C 
BRANCH  23  24
ATOM     24  C   UNL     1       6.333   4.327  -2.794  0.00  0.00    -0.067 C 
BRANCH  24  25
ATOM     25  N   UNL     1       7.800   4.250  -2.821  0.00  0.00    +0.382 N 
ATOM     26  H   UNL     1       8.223   5.122  -2.299  0.00  0.00    -0.086 HD
ATOM     27  H   UNL     1       8.128   3.328  -2.320  0.00  0.00    -0.086 HD
BRANCH  25  28
ATOM     28  C   UNL     1       8.301   4.240  -4.202  0.00  0.00    -0.051 C 
BRANCH  28  29
ATOM     29  C   UNL     1       9.829   4.159  -4.189  0.00  0.00    +0.095 C 
ATOM     30  C   UNL     1      10.351   4.148  -5.628  0.00  0.00    +0.035 C 
BRANCH  29  31
ATOM     31  O   UNL     1      10.360   5.292  -3.498  0.00  0.00    -0.394 OA
ATOM     32  H   UNL     1      11.448   5.407  -3.387  0.00  0.00    +0.210 HD
ENDBRANCH  29  31
ENDBRANCH  28  29
ENDBRANCH  25  28
ENDBRANCH  24  25
ENDBRANCH  23  24
ENDBRANCH  21  23
ENDBRANCH  20  21
ENDBRANCH   3  20
TORSDOF 10
