REMARK  Name = ZINC40258932
REMARK  5 active torsions:
REMARK  status: ('A' for Active; 'I' for Inactive)
REMARK    1  A    between atoms: C_1  and  C_2
REMARK    2  A    between atoms: C_6  and  C_7
REMARK    3  A    between atoms: C_7  and  C_9
REMARK    4  A    between atoms: C_7  and  O_20
REMARK    5  A    between atoms: N_12  and  C_14
REMARK                            x       y       z     vdW  Elec       q    Type
REMARK                         _______ _______ _______ _____ _____    ______ ____
ROOT
ATOM      1  C   UNL     1       1.410  -0.333   3.166  0.00  0.00    +0.024 A 
ATOM      2  C   UNL     1       1.957  -1.511   3.684  0.00  0.00    +0.141 A 
ATOM      3  N   UNL     1       3.172  -1.252   4.098  0.00  0.00    -0.174 NA
ATOM      4  N   UNL     1       3.437   0.102   3.855  0.00  0.00    -0.240 N 
ATOM      5  C   UNL     1       2.341   0.643   3.276  0.00  0.00    +0.121 A 
ENDROOT
BRANCH   4   6
ATOM      6  C   UNL     1       4.630   0.775   4.154  0.00  0.00    +0.065 A 
ATOM      7  C   UNL     1       4.757   2.127   3.863  0.00  0.00    +0.028 A 
ATOM      8  C   UNL     1       5.933   2.788   4.159  0.00  0.00    +0.002 A 
ATOM      9  C   UNL     1       6.983   2.105   4.744  0.00  0.00    +0.000 A 
ATOM     10  C   UNL     1       6.860   0.758   5.034  0.00  0.00    +0.002 A 
ATOM     11  C   UNL     1       5.684   0.093   4.746  0.00  0.00    +0.028 A 
ENDBRANCH   4   6
BRANCH   1  12
ATOM     12  C   UNL     1       0.030  -0.179   2.581  0.00  0.00    +0.184 C 
BRANCH  12  18
ATOM     13  C   UNL     1      -0.018   1.503   0.010  0.00  0.00    +0.044 C 
ATOM     14  C   UNL     1       0.002  -0.004   0.002  0.00  0.00    -0.037 A 
ATOM     15  C   UNL     1       0.006  -0.699  -1.193  0.00  0.00    +0.011 A 
ATOM     16  C   UNL     1       0.024  -2.054  -1.165  0.00  0.00    +0.046 A 
ATOM     17  S   UNL     1       0.037  -2.387   0.589  0.00  0.00    -0.098 S 
ATOM     18  C   UNL     1       0.023  -0.698   1.166  0.00  0.00    +0.025 A 
ENDBRANCH  12  18
BRANCH  12  19
ATOM     19  O   UNL     1      -0.906  -0.921   3.365  0.00  0.00    -0.382 OA
ATOM     20  H   UNL     1      -0.718  -1.869   3.409  0.00  0.00    +0.211 HD
ENDBRANCH  12  19
ENDBRANCH   1  12
TORSDOF 4
