REMARK  Name = ZINC66503842
REMARK  4 active torsions:
REMARK  status: ('A' for Active; 'I' for Inactive)
REMARK    1  A    between atoms: C_4  and  C_7
REMARK    2  A    between atoms: C_10  and  C_12
REMARK    3  A    between atoms: N_14  and  S_15
REMARK    4  A    between atoms: S_15  and  C_18
REMARK                            x       y       z     vdW  Elec       q    Type
REMARK                         _______ _______ _______ _____ _____    ______ ____
ROOT
ATOM      1  C   UNL     1       5.438  -1.755   1.594  0.00  0.00    +0.268 C 
ATOM      2  O   UNL     1       5.924  -0.864   2.482  0.00  0.00    -0.269 OA
ATOM      3  N   UNL     1       6.196  -2.696   1.143  0.00  0.00    -0.090 NA
ENDROOT
BRANCH   1   6
ATOM      4  C   UNL     1       3.711  -0.707  -0.038  0.00  0.00    +0.032 C 
ATOM      5  C   UNL     1       3.671  -2.222  -0.251  0.00  0.00    +0.022 C 
ATOM      6  C   UNL     1       4.008  -1.652   1.129  0.00  0.00    +0.089 C 
BRANCH   4  10
ATOM      7  C   UNL     1      -0.017   1.378   0.010  0.00  0.00    +0.000 A 
ATOM      8  C   UNL     1       1.171   2.086   0.002  0.00  0.00    +0.000 A 
ATOM      9  C   UNL     1       2.377   1.411  -0.013  0.00  0.00    +0.004 A 
ATOM     10  C   UNL     1       2.396   0.029  -0.020  0.00  0.00    -0.044 A 
ATOM     11  C   UNL     1       1.208  -0.679  -0.012  0.00  0.00    +0.004 A 
ATOM     12  C   UNL     1       0.002  -0.004   0.002  0.00  0.00    +0.000 A 
ENDBRANCH   4  10
ENDBRANCH   1   6
BRANCH   3  13
ATOM     13  S   UNL     1       7.767  -2.810   1.654  0.00  0.00    +0.105 S 
ATOM     14  O   UNL     1       8.439  -1.658   1.163  0.00  0.00    -0.146 OA
ATOM     15  O   UNL     1       7.722  -3.134   3.037  0.00  0.00    -0.146 OA
BRANCH  13  16
ATOM     16  C   UNL     1       8.482  -4.197   0.836  0.00  0.00    +0.148 A 
ATOM     17  C   UNL     1       9.518  -4.012  -0.061  0.00  0.00    +0.035 A 
ATOM     18  C   UNL     1      10.080  -5.099  -0.704  0.00  0.00    +0.040 A 
ATOM     19  C   UNL     1       9.606  -6.375  -0.450  0.00  0.00    +0.126 A 
ATOM     20  C   UNL     1       8.569  -6.562   0.448  0.00  0.00    +0.078 A 
ATOM     21  C   UNL     1       8.011  -5.473   1.095  0.00  0.00    +0.153 A 
ATOM     22  F   UNL     1       7.003  -5.654   1.976  0.00  0.00    -0.203 F 
ATOM     23  F   UNL     1      10.155  -7.437  -1.078  0.00  0.00    -0.205 F 
ENDBRANCH  13  16
ENDBRANCH   3  13
TORSDOF 4
