REMARK  Name = ZINC02839095
REMARK  7 active torsions:
REMARK  status: ('A' for Active; 'I' for Inactive)
REMARK    1  A    between atoms: C_3  and  C_10
REMARK    2  A    between atoms: C_5  and  N_7
REMARK    3  A    between atoms: N_12  and  C_13
REMARK    4  A    between atoms: C_18  and  C_19
REMARK    5  A    between atoms: N_21  and  C_22
REMARK    6  A    between atoms: C_22  and  C_23
REMARK    7  A    between atoms: C_23  and  O_24
REMARK                            x       y       z     vdW  Elec       q    Type
REMARK                         _______ _______ _______ _____ _____    ______ ____
ROOT
ATOM      1  C   UNL     1       1.123   7.402  -0.054  0.00  0.00    +0.046 A 
ATOM      2  C   UNL     1      -0.058   8.132  -0.034  0.00  0.00    +0.025 A 
ATOM      3  C   UNL     1      -0.022   9.509  -0.123  0.00  0.00    +0.022 A 
ATOM      4  C   UNL     1       1.190  10.173  -0.235  0.00  0.00    +0.042 A 
ATOM      5  C   UNL     1       2.372   9.465  -0.258  0.00  0.00    +0.035 A 
ATOM      6  C   UNL     1       2.351   8.071  -0.162  0.00  0.00    +0.059 A 
ATOM      7 CL   UNL     1       1.218  11.905  -0.347  0.00  0.00    -0.084 Cl
ENDROOT
BRANCH   1  10
ATOM      8  C   UNL     1       0.082   5.325  -0.537  0.00  0.00    +0.248 C 
ATOM      9  O   UNL     1      -0.838   5.920  -1.064  0.00  0.00    -0.270 OA
ATOM     10  N   UNL     1       1.088   6.013   0.037  0.00  0.00    -0.281 N 
ATOM     11  H   UNL     1       1.789   5.541   0.514  0.00  0.00    +0.155 HD
BRANCH   8  14
ATOM     12  C   UNL     1       1.160   1.782   0.083  0.00  0.00    +0.003 A 
ATOM     13  C   UNL     1       1.152   3.161   0.077  0.00  0.00    +0.013 A 
ATOM     14  C   UNL     1       0.097   3.847  -0.527  0.00  0.00    +0.039 A 
ATOM     15  C   UNL     1      -0.944   3.131  -1.121  0.00  0.00    +0.045 A 
ATOM     16  C   UNL     1      -0.920   1.752  -1.113  0.00  0.00    +0.127 A 
ATOM     17  C   UNL     1       0.126   1.078  -0.508  0.00  0.00    +0.033 A 
BRANCH  16  18
ATOM     18  N   UNL     1      -2.020   0.991  -1.748  0.00  0.00    +0.056 N 
ATOM     19  O   UNL     1      -2.003  -0.227  -1.738  0.00  0.00    -0.126 OA
ATOM     20  O   UNL     1      -2.941   1.583  -2.281  0.00  0.00    -0.126 OA
ENDBRANCH  16  18
ENDBRANCH   8  14
ENDBRANCH   1  10
BRANCH   6  21
ATOM     21  C   UNL     1       3.613   7.307  -0.179  0.00  0.00    +0.246 C 
ATOM     22  O   UNL     1       3.587   6.092  -0.198  0.00  0.00    -0.270 OA
ATOM     23  N   UNL     1       4.794   7.957  -0.173  0.00  0.00    -0.309 N 
ATOM     24  H   UNL     1       4.814   8.926  -0.158  0.00  0.00    +0.149 HD
BRANCH  23  25
ATOM     25  C   UNL     1       6.047   7.198  -0.190  0.00  0.00    +0.132 C 
BRANCH  25  26
ATOM     26  C   UNL     1       7.231   8.167  -0.179  0.00  0.00    +0.174 C 
BRANCH  26  27
ATOM     27  O   UNL     1       7.243   8.890   1.053  0.00  0.00    -0.393 OA
ATOM     28  H   UNL     1       7.968   9.525   1.129  0.00  0.00    +0.209 HD
ENDBRANCH  26  27
ENDBRANCH  25  26
ENDBRANCH  23  25
ENDBRANCH   6  21
TORSDOF 7
