REMARK  Name = ZINC52792214
REMARK  7 active torsions:
REMARK  status: ('A' for Active; 'I' for Inactive)
REMARK    1  A    between atoms: C_1  and  O_2
REMARK    2  A    between atoms: O_2  and  C_3
REMARK    3  A    between atoms: C_3  and  C_4
REMARK    4  A    between atoms: C_4  and  C_5
REMARK    5  A    between atoms: C_5  and  C_7
REMARK    6  A    between atoms: C_5  and  N_22
REMARK    7  A    between atoms: N_9  and  C_10
REMARK                            x       y       z     vdW  Elec       q    Type
REMARK                         _______ _______ _______ _____ _____    ______ ____
ROOT
ATOM      1  C   UNL     1       1.165  -4.202  -2.232  0.00  0.00    +0.203 C 
ATOM      2  O   UNL     1       2.079  -4.891  -1.830  0.00  0.00    -0.277 OA
ATOM      3  N   UNL     1       0.016  -4.778  -2.639  0.00  0.00    -0.286 N 
ATOM      4  H   UNL     1      -0.743  -4.225  -2.885  0.00  0.00    +0.155 HD
ENDROOT
BRANCH   3   5
ATOM      5  C   UNL     1      -0.082  -6.174  -2.708  0.00  0.00    +0.055 A 
ATOM      6  C   UNL     1       1.063  -6.942  -2.871  0.00  0.00    +0.072 A 
ATOM      7  C   UNL     1       0.964  -8.320  -2.938  0.00  0.00    +0.144 A 
ATOM      8  C   UNL     1      -0.285  -8.933  -2.844  0.00  0.00    +0.077 A 
ATOM      9  C   UNL     1      -1.426  -8.165  -2.682  0.00  0.00    +0.048 A 
ATOM     10  C   UNL     1      -1.325  -6.787  -2.609  0.00  0.00    +0.064 A 
ATOM     11 CL   UNL     1      -2.753  -5.823  -2.399  0.00  0.00    -0.082 Cl
ATOM     12  N   UNL     1      -0.369 -10.333  -2.916  0.00  0.00    -0.280 N 
ATOM     13  C   UNL     1       0.755 -11.065  -2.756  0.00  0.00    +0.255 C 
ATOM     14  O   UNL     1       0.712 -12.274  -2.844  0.00  0.00    -0.272 OA
ATOM     15  C   UNL     1       2.063 -10.373  -2.469  0.00  0.00    +0.325 C 
ATOM     16  O   UNL     1       2.075  -9.088  -3.096  0.00  0.00    -0.481 OA
ATOM     17  H   UNL     1      -1.221 -10.768  -3.077  0.00  0.00    +0.155 HD
ENDBRANCH   3   5
BRANCH   1  18
ATOM     18  C   UNL     1       1.314  -2.704  -2.276  0.00  0.00    +0.015 C 
BRANCH  18  19
ATOM     19  N   UNL     1       2.740  -2.352  -2.255  0.00  0.00    +0.386 N 
ATOM     20  H   UNL     1       3.161  -2.708  -1.409  0.00  0.00    -0.089 HD
ATOM     21  H   UNL     1       3.199  -2.759  -3.056  0.00  0.00    -0.089 HD
ATOM     22  H   UNL     1       2.840  -1.349  -2.284  0.00  0.00    -0.089 HD
ENDBRANCH  18  19
BRANCH  18  23
ATOM     23  C   UNL     1       0.618  -2.086  -1.061  0.00  0.00    +0.021 C 
BRANCH  23  24
ATOM     24  C   UNL     1       0.661  -0.561  -1.169  0.00  0.00    +0.158 C 
BRANCH  24  26
ATOM     25  C   UNL     1      -0.004   1.445  -0.037  0.00  0.00    +0.193 C 
ATOM     26  O   UNL     1       0.012   0.016  -0.034  0.00  0.00    -0.383 OA
ENDBRANCH  24  26
ENDBRANCH  23  24
ENDBRANCH  18  23
ENDBRANCH   1  18
TORSDOF 6
