REMARK  Name = ZINC12780226
REMARK  14 active torsions:
REMARK  status: ('A' for Active; 'I' for Inactive)
REMARK    1  A    between atoms: C_1  and  C_2
REMARK    2  A    between atoms: C_2  and  C_3
REMARK    3  A    between atoms: C_2  and  C_4
REMARK    4  A    between atoms: C_4  and  C_6
REMARK    5  A    between atoms: C_4  and  N_21
REMARK    6  A    between atoms: N_8  and  C_9
REMARK    7  A    between atoms: C_9  and  C_10
REMARK    8  A    between atoms: C_10  and  C_12
REMARK    9  A    between atoms: C_10  and  N_61
REMARK   10  A    between atoms: C_19  and  N_61
REMARK   11  A    between atoms: C_20  and  N_61
REMARK   12  A    between atoms: N_21  and  S_22
REMARK   13  A    between atoms: S_22  and  C_25
REMARK   14  A    between atoms: C_26  and  C_27
REMARK                            x       y       z     vdW  Elec       q    Type
REMARK                         _______ _______ _______ _____ _____    ______ ____
ROOT
ATOM      1  C   UNL     1      -0.162   4.309   0.732  0.00  0.00    +0.165 C 
ENDROOT
BRANCH   1   2
ATOM      2  C   UNL     1      -1.111   3.698   1.731  0.00  0.00    +0.232 C 
ATOM      3  O   UNL     1      -0.678   3.053   2.663  0.00  0.00    -0.274 OA
ATOM      4  N   UNL     1      -2.441   3.867   1.589  0.00  0.00    -0.315 N 
ATOM      5  H   UNL     1      -2.787   4.383   0.843  0.00  0.00    +0.149 HD
BRANCH   4   6
ATOM      6  C   UNL     1      -3.363   3.273   2.560  0.00  0.00    +0.093 C 
BRANCH   6   7
ATOM      7  C   UNL     1      -4.802   3.460   2.076  0.00  0.00    -0.020 C 
BRANCH   7   8
ATOM      8  C   UNL     1      -5.756   2.966   3.133  0.00  0.00    -0.041 A 
ATOM      9  C   UNL     1      -6.385   1.745   2.981  0.00  0.00    +0.003 A 
ATOM     10  C   UNL     1      -7.256   1.290   3.953  0.00  0.00    +0.000 A 
ATOM     11  C   UNL     1      -7.506   2.061   5.074  0.00  0.00    +0.001 A 
ATOM     12  C   UNL     1      -6.881   3.284   5.224  0.00  0.00    +0.020 A 
ATOM     13  C   UNL     1      -6.006   3.738   4.254  0.00  0.00    +0.043 A 
ATOM     14 CL   UNL     1      -5.221   5.275   4.442  0.00  0.00    -0.083 Cl
ENDBRANCH   7   8
BRANCH   7  17
ATOM     15  C   UNL     1      -4.631   3.490  -0.339  0.00  0.00    -0.096 C 
ATOM     16  C   UNL     1      -4.265   1.427   0.875  0.00  0.00    -0.096 C 
ATOM     17  N   UNL     1      -5.034   2.689   0.836  0.00  0.00    +0.382 N 
ATOM     18  H   UNL     1      -6.034   2.469   0.762  0.00  0.00    -0.082 HD
ENDBRANCH   7  17
ENDBRANCH   6   7
ENDBRANCH   4   6
ENDBRANCH   1   2
BRANCH   1  20
ATOM     19  C   UNL     1       0.387   4.490  -1.698  0.00  0.00    +0.009 C 
ATOM     20  C   UNL     1      -0.459   3.750  -0.661  0.00  0.00    +0.010 C 
ATOM     21  C   UNL     1      -0.119   2.259  -0.696  0.00  0.00    +0.009 C 
ENDBRANCH   1  20
BRANCH   1  22
ATOM     22  N   UNL     1       1.216   3.982   1.105  0.00  0.00    -0.178 NA
ATOM     23  H   UNL     1       1.520   3.062   1.082  0.00  0.00    +0.149 HD
BRANCH  22  24
ATOM     24  S   UNL     1       2.258   5.187   1.561  0.00  0.00    +0.052 S 
ATOM     25  O   UNL     1       3.498   4.560   1.859  0.00  0.00    -0.154 OA
ATOM     26  O   UNL     1       2.139   6.216   0.589  0.00  0.00    -0.154 OA
BRANCH  24  27
ATOM     27  C   UNL     1       1.653   5.853   3.076  0.00  0.00    +0.153 C 
ATOM     28  C   UNL     1       2.364   5.724   4.187  0.00  0.00    +0.028 C 
BRANCH  28  29
ATOM     29  C   UNL     1       1.857   6.283   5.458  0.00  0.00    -0.024 A 
ATOM     30  C   UNL     1       0.632   6.952   5.490  0.00  0.00    +0.008 A 
ATOM     31  C   UNL     1       0.162   7.466   6.681  0.00  0.00    +0.001 A 
ATOM     32  C   UNL     1       0.907   7.331   7.839  0.00  0.00    +0.000 A 
ATOM     33  C   UNL     1       2.124   6.674   7.813  0.00  0.00    +0.001 A 
ATOM     34  C   UNL     1       2.603   6.150   6.630  0.00  0.00    +0.008 A 
ENDBRANCH  28  29
ENDBRANCH  24  27
ENDBRANCH  22  24
ENDBRANCH   1  22
TORSDOF 10
