REMARK  Name = ZINC09189966
REMARK  5 active torsions:
REMARK  status: ('A' for Active; 'I' for Inactive)
REMARK    1  A    between atoms: C_1  and  C_2
REMARK    2  A    between atoms: N_8  and  C_9
REMARK    3  A    between atoms: C_9  and  C_10
REMARK    4  A    between atoms: C_25  and  C_29
REMARK    5  A    between atoms: C_26  and  N_28
REMARK                            x       y       z     vdW  Elec       q    Type
REMARK                         _______ _______ _______ _____ _____    ______ ____
ROOT
ATOM      1  C   UNL     1      -5.448   3.659   4.834  0.00  0.00    +0.064 C 
ATOM      2  C   UNL     1      -4.633   3.780   3.572  0.00  0.00    +0.023 A 
ATOM      3  C   UNL     1      -5.157   3.365   2.399  0.00  0.00    +0.068 A 
ATOM      4  C   UNL     1      -4.400   3.477   1.215  0.00  0.00    +0.142 A 
ATOM      5  C   UNL     1      -3.128   4.009   1.283  0.00  0.00    +0.084 A 
ATOM      6  C   UNL     1      -2.627   4.426   2.522  0.00  0.00    +0.260 A 
ATOM      7  O   UNL     1      -1.504   4.900   2.598  0.00  0.00    -0.267 OA
ATOM      8  N   UNL     1      -3.382   4.306   3.630  0.00  0.00    -0.305 N 
ATOM      9  C   UNL     1      -2.291   4.139   0.044  0.00  0.00    +0.146 C 
ATOM     10  C   UNL     1      -1.196   3.118   0.029  0.00  0.00    -0.001 A 
ATOM     11  C   UNL     1      -1.234   1.740   0.017  0.00  0.00    +0.007 A 
ATOM     12  C   UNL     1      -0.013   1.076   0.008  0.00  0.00    +0.000 A 
ATOM     13  C   UNL     1       1.181   1.768   0.000  0.00  0.00    +0.002 A 
ATOM     14  C   UNL     1       1.228   3.153   0.007  0.00  0.00    +0.023 A 
ATOM     15  C   UNL     1       0.008   3.832   0.022  0.00  0.00    +0.038 A 
ATOM     16  N   UNL     1      -0.240   5.193   0.032  0.00  0.00    -0.284 N 
ATOM     17  C   UNL     1      -1.562   5.467   0.047  0.00  0.00    +0.238 C 
ATOM     18  O   UNL     1      -2.070   6.568   0.059  0.00  0.00    -0.274 OA
ATOM     19  C   UNL     1      -3.145   4.024  -1.186  0.00  0.00    +0.110 C 
ATOM     20  C   UNL     1      -4.394   3.502  -1.120  0.00  0.00    +0.199 C 
ATOM     21  O   UNL     1      -4.920   3.067   0.039  0.00  0.00    -0.441 OA
ATOM     22  H   UNL     1       0.454   5.871   0.030  0.00  0.00    +0.155 HD
ENDROOT
BRANCH  20  23
ATOM     23  N   UNL     1      -5.143   3.415  -2.267  0.00  0.00    -0.328 N 
ATOM     24  H   UNL     1      -6.038   3.044  -2.234  0.00  0.00    +0.145 HD
ATOM     25  H   UNL     1      -4.776   3.725  -3.110  0.00  0.00    +0.145 HD
ENDBRANCH  20  23
BRANCH  19  26
ATOM     26  C   UNL     1      -2.634   4.473  -2.446  0.00  0.00    +0.102 C 
ATOM     27  N   UNL     1      -2.228   4.830  -3.445  0.00  0.00    -0.191 NA
ENDBRANCH  19  26
BRANCH   8  28
ATOM     28  C   UNL     1      -2.845   4.749   4.920  0.00  0.00    +0.199 C 
BRANCH  28  29
ATOM     29  C   UNL     1      -2.127   3.604   5.585  0.00  0.00    +0.125 A 
ATOM     30  C   UNL     1      -0.824   3.301   5.439  0.00  0.00    +0.046 A 
ATOM     31  C   UNL     1      -0.576   2.162   6.239  0.00  0.00    +0.041 A 
ATOM     32  C   UNL     1      -1.744   1.832   6.819  0.00  0.00    +0.195 A 
ATOM     33  O   UNL     1      -2.680   2.709   6.420  0.00  0.00    -0.466 OA
ENDBRANCH  28  29
ENDBRANCH   8  28
TORSDOF 4
