REMARK  Name = ZINC45355518
REMARK  4 active torsions:
REMARK  status: ('A' for Active; 'I' for Inactive)
REMARK    1  A    between atoms: C_1  and  C_2
REMARK    2  A    between atoms: C_5  and  C_7
REMARK    3  A    between atoms: C_7  and  N_8
REMARK    4  A    between atoms: N_11  and  C_12
REMARK                            x       y       z     vdW  Elec       q    Type
REMARK                         _______ _______ _______ _____ _____    ______ ____
ROOT
ATOM      1  N   UNL     1      -1.320  -3.281   2.671  0.00  0.00    -0.293 N 
ATOM      2  C   UNL     1      -1.549  -4.116   3.703  0.00  0.00    +0.301 C 
ATOM      3  O   UNL     1      -0.615  -4.599   4.314  0.00  0.00    -0.253 OA
ATOM      4  N   UNL     1      -2.814  -4.416   4.059  0.00  0.00    -0.288 N 
ATOM      5  H   UNL     1      -2.065  -2.896   2.183  0.00  0.00    +0.151 HD
ATOM      6  H   UNL     1      -3.559  -4.031   3.572  0.00  0.00    +0.151 HD
ENDROOT
BRANCH   4   7
ATOM      7  C   UNL     1      -3.063  -5.324   5.181  0.00  0.00    +0.160 C 
ATOM      8  C   UNL     1      -4.447  -5.044   5.772  0.00  0.00    +0.032 C 
ATOM      9  C   UNL     1      -4.512  -5.485   7.223  0.00  0.00    +0.004 C 
ATOM     10  C   UNL     1      -4.411  -6.988   7.411  0.00  0.00    +0.019 C 
ATOM     11  C   UNL     1      -3.023  -7.495   7.015  0.00  0.00    +0.104 C 
ATOM     12  N   UNL     1      -3.015  -7.764   5.568  0.00  0.00    -0.314 N 
ATOM     13  C   UNL     1      -3.026  -6.758   4.694  0.00  0.00    +0.233 C 
ATOM     14  O   UNL     1      -3.011  -6.991   3.504  0.00  0.00    -0.274 OA
ATOM     15  H   UNL     1      -2.998  -8.680   5.248  0.00  0.00    +0.149 HD
ENDBRANCH   4   7
BRANCH   1  16
ATOM     16  C   UNL     1       0.055  -2.955   2.284  0.00  0.00    +0.168 C 
BRANCH  16  21
ATOM     17  C   UNL     1      -0.018   1.503   0.010  0.00  0.00    +0.066 C 
ATOM     18  C   UNL     1       0.002  -0.004   0.002  0.00  0.00    +0.046 A 
ATOM     19  C   UNL     1       0.006  -0.708  -1.159  0.00  0.00    +0.070 A 
ATOM     20  S   UNL     1       0.032  -2.379  -0.531  0.00  0.00    -0.079 S 
ATOM     21  C   UNL     1       0.036  -2.009   1.111  0.00  0.00    +0.096 A 
ATOM     22  N   UNL     1       0.023  -0.699   1.122  0.00  0.00    -0.248 NA
ENDBRANCH  16  21
ENDBRANCH   1  16
TORSDOF 3
