REMARK  Name = ZINC32952240
REMARK  4 active torsions:
REMARK  status: ('A' for Active; 'I' for Inactive)
REMARK    1  A    between atoms: C_1  and  C_2
REMARK    2  A    between atoms: C_7  and  N_8
REMARK    3  A    between atoms: C_9  and  N_22
REMARK    4  A    between atoms: C_10  and  C_14
REMARK                            x       y       z     vdW  Elec       q    Type
REMARK                         _______ _______ _______ _____ _____    ______ ____
ROOT
ATOM      1  N   UNL     1      -2.306   0.509  -0.137  0.00  0.00    -0.285 N 
ATOM      2  C   UNL     1      -2.830  -0.047   0.977  0.00  0.00    +0.121 A 
ATOM      3  C   UNL     1      -4.193   0.001   1.134  0.00  0.00    +0.115 A 
ATOM      4  S   UNL     1      -4.694   0.858  -0.349  0.00  0.00    -0.055 S 
ATOM      5  C   UNL     1      -3.121   1.089  -1.044  0.00  0.00    +0.132 A 
ATOM      6  S   UNL     1      -2.706   1.860  -2.516  0.00  0.00    -0.024 S 
ENDROOT
BRANCH   3   7
ATOM      7  C   UNL     1      -4.988  -0.496   2.190  0.00  0.00    +0.257 C 
ATOM      8  O   UNL     1      -4.602  -0.398   3.341  0.00  0.00    -0.269 OA
ATOM      9  N   UNL     1      -6.174  -1.079   1.924  0.00  0.00    -0.297 N 
ATOM     10  C   UNL     1      -6.599  -1.312   0.537  0.00  0.00    +0.108 C 
ATOM     11  C   UNL     1      -6.962  -2.796   0.380  0.00  0.00    +0.019 C 
ATOM     12  C   UNL     1      -8.009  -3.174   1.430  0.00  0.00    +0.003 C 
ATOM     13  C   UNL     1      -7.428  -2.966   2.830  0.00  0.00    +0.019 C 
ATOM     14  C   UNL     1      -7.068  -1.488   3.015  0.00  0.00    +0.108 C 
ENDBRANCH   3   7
BRANCH   1  21
ATOM     15  C   UNL     1      -0.760   2.678   0.865  0.00  0.00    +0.046 C 
ATOM     16  C   UNL     1      -0.130   1.526   0.124  0.00  0.00    -0.027 A 
ATOM     17  C   UNL     1       1.234   1.506  -0.090  0.00  0.00    +0.005 A 
ATOM     18  C   UNL     1       1.813   0.450  -0.771  0.00  0.00    +0.000 A 
ATOM     19  C   UNL     1       1.028  -0.588  -1.238  0.00  0.00    +0.002 A 
ATOM     20  C   UNL     1      -0.337  -0.574  -1.026  0.00  0.00    +0.026 A 
ATOM     21  C   UNL     1      -0.921   0.488  -0.348  0.00  0.00    +0.052 A 
ENDBRANCH   1  21
BRANCH   2  22
ATOM     22  N   UNL     1      -2.024  -0.641   1.923  0.00  0.00    -0.343 N 
ATOM     23  H   UNL     1      -2.470  -1.087   2.823  0.00  0.00    +0.144 HD
ATOM     24  H   UNL     1      -0.934  -0.668   1.778  0.00  0.00    +0.144 HD
ENDBRANCH   2  22
TORSDOF 3
