REMARK  Name = ZINC32967757
REMARK  7 active torsions:
REMARK  status: ('A' for Active; 'I' for Inactive)
REMARK    1  A    between atoms: C_1  and  C_2
REMARK    2  A    between atoms: C_2  and  C_3
REMARK    3  A    between atoms: C_3  and  C_4
REMARK    4  A    between atoms: C_3  and  C_5
REMARK    5  A    between atoms: C_3  and  N_6
REMARK    6  A    between atoms: C_7  and  C_9
REMARK    7  A    between atoms: N_13  and  C_14
REMARK                            x       y       z     vdW  Elec       q    Type
REMARK                         _______ _______ _______ _____ _____    ______ ____
ROOT
ATOM      1  N   UNL     1       2.224   1.661   1.678  0.00  0.00    -0.305 N 
ATOM      2  C   UNL     1       1.349   1.902   2.675  0.00  0.00    +0.261 C 
ATOM      3  O   UNL     1       1.754   2.101   3.805  0.00  0.00    -0.269 OA
ATOM      4  H   UNL     1       1.865   1.560   0.644  0.00  0.00    +0.150 HD
ENDROOT
BRANCH   2   5
ATOM      5  C   UNL     1      -0.089   1.924   2.397  0.00  0.00    +0.107 A 
ATOM      6  C   UNL     1      -0.692   1.622   1.194  0.00  0.00    +0.054 A 
ATOM      7  C   UNL     1      -2.070   1.772   1.374  0.00  0.00    +0.078 A 
ATOM      8  C   UNL     1      -2.283   2.150   2.660  0.00  0.00    +0.128 A 
ATOM      9  N   UNL     1      -1.086   2.251   3.291  0.00  0.00    -0.329 N 
ATOM     10  C   UNL     1      -0.887   2.637   4.690  0.00  0.00    +0.150 C 
ATOM     11 CL   UNL     1      -3.833   2.458   3.379  0.00  0.00    -0.062 Cl
ATOM     12 CL   UNL     1      -3.293   1.512   0.170  0.00  0.00    -0.080 Cl
ENDBRANCH   2   5
BRANCH   1  13
ATOM     13  C   UNL     1       3.653   1.533   1.974  0.00  0.00    +0.029 C 
ATOM     14  C   UNL     1       4.162   2.831   2.606  0.00  0.00    +0.031 C 
ATOM     15  C   UNL     1       3.872   0.372   2.946  0.00  0.00    +0.031 C 
BRANCH  13  17
ATOM     16  C   UNL     1       5.912   1.130   0.985  0.00  0.00    +0.006 C 
ATOM     17  C   UNL     1       4.420   1.263   0.677  0.00  0.00    +0.022 C 
ENDBRANCH  13  17
ENDBRANCH   1  13
TORSDOF 3
