REMARK  Name = ZINC49432210
REMARK  1 active torsions:
REMARK  status: ('A' for Active; 'I' for Inactive)
REMARK    1  A    between atoms: N_9  and  C_10
REMARK                            x       y       z     vdW  Elec       q    Type
REMARK                         _______ _______ _______ _____ _____    ______ ____
ROOT
ATOM      1  C   UNL     1      -0.013   1.381   0.143  0.00  0.00    +0.083 A 
ATOM      2  C   UNL     1       1.203   2.062   0.068  0.00  0.00    +0.126 A 
ATOM      3  N   UNL     1       2.334   1.364   0.054  0.00  0.00    -0.200 NA
ATOM      4  C   UNL     1       2.311   0.040   0.110  0.00  0.00    +0.216 A 
ATOM      5  N   UNL     1       1.172  -0.633   0.182  0.00  0.00    -0.203 NA
ATOM      6  C   UNL     1       0.007  -0.000   0.200  0.00  0.00    +0.136 A 
ATOM      7 CL   UNL     1      -1.477  -0.897   0.294  0.00  0.00    -0.062 Cl
ATOM      8  N   UNL     1       3.506  -0.656   0.093  0.00  0.00    -0.327 N 
ATOM      9  N   UNL     1       1.231   3.446   0.008  0.00  0.00    -0.318 N 
ATOM     10  H   UNL     1       4.347  -0.175   0.041  0.00  0.00    +0.145 HD
ATOM     11  H   UNL     1       3.504  -1.625   0.134  0.00  0.00    +0.145 HD
ATOM     12  H   UNL     1       2.080   3.912  -0.043  0.00  0.00    +0.148 HD
ENDROOT
BRANCH   9  13
ATOM     13  C   UNL     1      -0.022   4.205   0.024  0.00  0.00    +0.158 C 
ATOM     14  C   UNL     1       0.237   5.636  -0.455  0.00  0.00    +0.032 C 
ATOM     15  C   UNL     1       1.606   6.114  -0.004  0.00  0.00    +0.004 C 
ATOM     16  C   UNL     1       1.732   6.279   1.500  0.00  0.00    +0.019 C 
ATOM     17  C   UNL     1       1.649   4.925   2.206  0.00  0.00    +0.104 C 
ATOM     18  N   UNL     1       0.233   4.605   2.449  0.00  0.00    -0.314 N 
ATOM     19  C   UNL     1      -0.567   4.258   1.436  0.00  0.00    +0.233 C 
ATOM     20  O   UNL     1      -1.732   3.991   1.644  0.00  0.00    -0.274 OA
ATOM     21  H   UNL     1      -0.122   4.644   3.350  0.00  0.00    +0.149 HD
ENDBRANCH   9  13
TORSDOF 1
