REMARK  Name = ZINC06214403
REMARK  8 active torsions:
REMARK  status: ('A' for Active; 'I' for Inactive)
REMARK    1  A    between atoms: C_1  and  C_2
REMARK    2  A    between atoms: C_5  and  S_8
REMARK    3  A    between atoms: S_8  and  N_11
REMARK    4  A    between atoms: N_14  and  C_15
REMARK    5  A    between atoms: C_20  and  C_21
REMARK    6  A    between atoms: C_21  and  N_22
REMARK    7  A    between atoms: N_22  and  C_23
REMARK    8  A    between atoms: C_24  and  C_26
REMARK                            x       y       z     vdW  Elec       q    Type
REMARK                         _______ _______ _______ _____ _____    ______ ____
ROOT
ATOM      1  N   UNL     1       1.011  -2.698  -1.913  0.00  0.00    -0.169 N 
ATOM      2  C   UNL     1       2.015  -2.336  -2.735  0.00  0.00    +0.323 C 
ATOM      3  O   UNL     1       2.650  -1.323  -2.510  0.00  0.00    -0.251 OA
ATOM      4  N   UNL     1       2.316  -3.096  -3.807  0.00  0.00    -0.268 N 
ATOM      5  H   UNL     1       0.504  -3.505  -2.092  0.00  0.00    +0.178 HD
ATOM      6  H   UNL     1       1.855  -3.937  -3.949  0.00  0.00    +0.156 HD
ENDROOT
BRANCH   4   7
ATOM      7  C   UNL     1       3.294  -2.671  -4.713  0.00  0.00    +0.039 A 
ATOM      8  C   UNL     1       4.404  -1.969  -4.262  0.00  0.00    +0.023 A 
ATOM      9  C   UNL     1       5.369  -1.555  -5.159  0.00  0.00    +0.002 A 
ATOM     10  C   UNL     1       5.227  -1.831  -6.506  0.00  0.00    +0.000 A 
ATOM     11  C   UNL     1       4.120  -2.526  -6.960  0.00  0.00    +0.007 A 
ATOM     12  C   UNL     1       3.154  -2.947  -6.067  0.00  0.00    -0.009 A 
BRANCH  12  13
ATOM     13  C   UNL     1       1.948  -3.704  -6.562  0.00  0.00    +0.144 C 
BRANCH  13  14
ATOM     14  N   UNL     1       0.808  -2.790  -6.667  0.00  0.00    -0.300 N 
ATOM     15  C   UNL     1      -0.087  -2.600  -5.523  0.00  0.00    +0.132 C 
ATOM     16  C   UNL     1       0.582  -2.125  -7.817  0.00  0.00    +0.213 C 
ATOM     17  O   UNL     1       1.259  -2.357  -8.796  0.00  0.00    -0.276 OA
ATOM     18  C   UNL     1      -0.513  -1.091  -7.887  0.00  0.00    +0.109 C 
ENDBRANCH  13  14
ENDBRANCH  12  13
ENDBRANCH   4   7
BRANCH   1  19
ATOM     19  S   UNL     1       0.641  -1.764  -0.596  0.00  0.00    +0.076 S 
ATOM     20  O   UNL     1       1.866  -1.505   0.075  0.00  0.00    -0.150 OA
ATOM     21  O   UNL     1      -0.463  -2.386   0.046  0.00  0.00    -0.150 OA
BRANCH  19  26
ATOM     22  C   UNL     1      -1.340   3.544  -2.672  0.00  0.00    +0.044 C 
ATOM     23  C   UNL     1      -0.845   2.219  -2.153  0.00  0.00    -0.050 A 
ATOM     24  C   UNL     1      -1.738   1.187  -1.930  0.00  0.00    +0.005 A 
ATOM     25  C   UNL     1      -1.284  -0.029  -1.455  0.00  0.00    +0.029 A 
ATOM     26  C   UNL     1       0.063  -0.214  -1.203  0.00  0.00    +0.109 A 
ATOM     27  C   UNL     1       0.956   0.818  -1.427  0.00  0.00    +0.029 A 
ATOM     28  C   UNL     1       0.502   2.034  -1.903  0.00  0.00    +0.005 A 
ENDBRANCH  19  26
ENDBRANCH   1  19
TORSDOF 5
