REMARK  Name = ZINC07990160
REMARK  6 active torsions:
REMARK  status: ('A' for Active; 'I' for Inactive)
REMARK    1  A    between atoms: C_4  and  C_7
REMARK    2  A    between atoms: C_7  and  S_8
REMARK    3  A    between atoms: S_8  and  N_11
REMARK    4  A    between atoms: C_16  and  C_18
REMARK    5  A    between atoms: C_16  and  C_24
REMARK    6  A    between atoms: C_16  and  N_53
REMARK                            x       y       z     vdW  Elec       q    Type
REMARK                         _______ _______ _______ _____ _____    ______ ____
ROOT
ATOM      1  N   UNL     1      -4.570   4.492  -0.080  0.00  0.00    -0.184 NA
ATOM      2  C   UNL     1      -4.572   3.755   1.193  0.00  0.00    +0.090 C 
ATOM      3  C   UNL     1      -3.402   2.765   1.184  0.00  0.00    -0.060 C 
ATOM      4  C   UNL     1      -3.345   2.732  -1.240  0.00  0.00    -0.060 C 
ATOM      5  C   UNL     1      -4.513   3.721  -1.331  0.00  0.00    +0.090 C 
ATOM      6  N   UNL     1      -3.510   1.913  -0.020  0.00  0.00    +0.392 N 
ATOM      7  H   UNL     1      -4.439   1.476  -0.036  0.00  0.00    -0.080 HD
ENDROOT
BRANCH   1   8
ATOM      8  S   UNL     1      -4.629   6.147  -0.103  0.00  0.00    +0.036 S 
ATOM      9  O   UNL     1      -5.216   6.471  -1.357  0.00  0.00    -0.158 OA
ATOM     10  O   UNL     1      -5.274   6.504   1.112  0.00  0.00    -0.158 OA
BRANCH   8  11
ATOM     11  C   UNL     1      -2.895   6.676  -0.070  0.00  0.00    +0.220 C 
BRANCH  11  15
ATOM     12  C   UNL     1      -2.707  10.944  -0.123  0.00  0.00    +0.000 A 
ATOM     13  C   UNL     1      -2.765  10.269   1.082  0.00  0.00    +0.000 A 
ATOM     14  C   UNL     1      -2.826   8.889   1.099  0.00  0.00    +0.005 A 
ATOM     15  C   UNL     1      -2.829   8.182  -0.089  0.00  0.00    -0.025 A 
ATOM     16  C   UNL     1      -2.765   8.856  -1.294  0.00  0.00    +0.005 A 
ATOM     17  C   UNL     1      -2.709  10.237  -1.312  0.00  0.00    +0.000 A 
ENDBRANCH  11  15
ENDBRANCH   8  11
ENDBRANCH   1   8
BRANCH   6  18
ATOM     18  C   UNL     1      -2.482   0.853   0.018  0.00  0.00    +0.051 C 
BRANCH  18  19
ATOM     19  C   UNL     1      -1.100   1.453  -0.009  0.00  0.00    +0.211 C 
ATOM     20  O   UNL     1      -0.963   2.657  -0.055  0.00  0.00    -0.277 OA
ATOM     21  N   UNL     1      -0.017   0.652   0.018  0.00  0.00    -0.241 N 
ATOM     22  C   UNL     1       1.219   1.188  -0.012  0.00  0.00    +0.303 C 
ATOM     23  O   UNL     1       1.357   2.395  -0.058  0.00  0.00    -0.253 OA
ATOM     24  N   UNL     1       2.303   0.387   0.010  0.00  0.00    -0.313 N 
ATOM     25  H   UNL     1      -0.126  -0.311   0.056  0.00  0.00    +0.159 HD
ATOM     26  H   UNL     1       2.193  -0.576   0.047  0.00  0.00    +0.146 HD
ATOM     27  H   UNL     1       3.192   0.773  -0.011  0.00  0.00    +0.146 HD
ENDBRANCH  18  19
BRANCH  18  28
ATOM     28  C   UNL     1      -2.663  -0.046  -1.178  0.00  0.00    -0.052 A 
ATOM     29  C   UNL     1      -3.277  -1.276  -1.032  0.00  0.00    +0.002 A 
ATOM     30  C   UNL     1      -3.447  -2.098  -2.130  0.00  0.00    +0.000 A 
ATOM     31  C   UNL     1      -2.995  -1.694  -3.373  0.00  0.00    +0.000 A 
ATOM     32  C   UNL     1      -2.377  -0.466  -3.518  0.00  0.00    +0.000 A 
ATOM     33  C   UNL     1      -2.210   0.358  -2.420  0.00  0.00    +0.002 A 
ENDBRANCH  18  28
ENDBRANCH   6  18
TORSDOF 6
