REMARK  Name = ZINC00033554
REMARK  9 active torsions:
REMARK  status: ('A' for Active; 'I' for Inactive)
REMARK    1  A    between atoms: C_1  and  C_2
REMARK    2  A    between atoms: C_2  and  C_3
REMARK    3  A    between atoms: C_2  and  C_4
REMARK    4  A    between atoms: C_4  and  C_5
REMARK    5  A    between atoms: C_7  and  C_14
REMARK    6  A    between atoms: C_8  and  N_13
REMARK    7  A    between atoms: C_9  and  C_11
REMARK    8  A    between atoms: C_19  and  O_20
REMARK    9  A    between atoms: O_20  and  C_21
REMARK                            x       y       z     vdW  Elec       q    Type
REMARK                         _______ _______ _______ _____ _____    ______ ____
ROOT
ATOM      1  C   UNL     1       2.315  -0.039  -0.020  0.00  0.00    +0.044 A 
ATOM      2  C   UNL     1       2.386   1.343  -0.013  0.00  0.00    +0.034 A 
ATOM      3  C   UNL     1       1.206   2.088   0.002  0.00  0.00    +0.011 A 
ATOM      4  C   UNL     1      -0.017   1.396   0.010  0.00  0.00    +0.069 A 
ATOM      5  C   UNL     1       0.002  -0.004   0.002  0.00  0.00    +0.161 A 
ATOM      6  N   UNL     1       1.157  -0.663  -0.013  0.00  0.00    -0.239 NA
ENDROOT
BRANCH   3   7
ATOM      7  C   UNL     1       1.242   3.570   0.009  0.00  0.00    +0.026 A 
ATOM      8  C   UNL     1       1.758   4.263  -1.085  0.00  0.00    +0.012 A 
ATOM      9  C   UNL     1       1.789   5.642  -1.073  0.00  0.00    +0.001 A 
ATOM     10  C   UNL     1       1.309   6.341   0.021  0.00  0.00    +0.004 A 
ATOM     11  C   UNL     1       0.795   5.665   1.110  0.00  0.00    +0.046 A 
ATOM     12  C   UNL     1       0.754   4.279   1.111  0.00  0.00    +0.128 A 
BRANCH  12  13
ATOM     13  O   UNL     1       0.244   3.613   2.179  0.00  0.00    -0.495 OA
ATOM     14  C   UNL     1      -0.237   4.404   3.268  0.00  0.00    +0.277 C 
ENDBRANCH  12  13
ENDBRANCH   3   7
BRANCH   4  15
ATOM     15  N   UNL     1      -1.221   2.087   0.019  0.00  0.00    -0.355 N 
ATOM     16  H   UNL     1      -2.060   1.600   0.021  0.00  0.00    +0.142 HD
ATOM     17  H   UNL     1      -1.224   3.057   0.025  0.00  0.00    +0.142 HD
ENDBRANCH   4  15
BRANCH   5  18
ATOM     18  C   UNL     1      -1.231  -0.732   0.009  0.00  0.00    +0.121 C 
ATOM     19  N   UNL     1      -2.210  -1.309   0.015  0.00  0.00    -0.189 NA
ENDBRANCH   5  18
BRANCH   1  20
ATOM     20  C   UNL     1       3.588  -0.845  -0.037  0.00  0.00    +0.058 C 
BRANCH  20  22
ATOM     21  C   UNL     1       4.821  -2.726   1.051  0.00  0.00    +0.007 C 
ATOM     22  C   UNL     1       3.589  -1.823   1.139  0.00  0.00    -0.011 C 
ATOM     23  C   UNL     1       3.622  -1.041   2.453  0.00  0.00    +0.007 C 
ENDBRANCH  20  22
ENDBRANCH   1  20
TORSDOF 6
