REMARK  Name = ZINC08879544
REMARK  9 active torsions:
REMARK  status: ('A' for Active; 'I' for Inactive)
REMARK    1  A    between atoms: C_1  and  C_2
REMARK    2  A    between atoms: C_9  and  C_25
REMARK    3  A    between atoms: C_10  and  C_16
REMARK    4  A    between atoms: C_16  and  C_17
REMARK    5  A    between atoms: N_19  and  C_20
REMARK    6  A    between atoms: C_20  and  C_21
REMARK    7  A    between atoms: C_20  and  C_22
REMARK    8  A    between atoms: C_20  and  C_23
REMARK    9  A    between atoms: C_23  and  O_24
REMARK                            x       y       z     vdW  Elec       q    Type
REMARK                         _______ _______ _______ _____ _____    ______ ____
ROOT
ATOM      1  C   UNL     1      -0.068   0.922  -5.677  0.00  0.00    +0.047 C 
ATOM      2  C   UNL     1      -0.043  -0.465  -5.087  0.00  0.00    -0.005 A 
ATOM      3  C   UNL     1      -0.035  -1.624  -5.758  0.00  0.00    +0.199 A 
ATOM      4  O   UNL     1      -0.013  -2.659  -4.900  0.00  0.00    -0.463 OA
ATOM      5  C   UNL     1      -0.005  -2.227  -3.622  0.00  0.00    +0.139 A 
ATOM      6  C   UNL     1      -0.024  -0.818  -3.661  0.00  0.00    +0.024 A 
ATOM      7  C   UNL     1      -0.021  -0.081  -2.484  0.00  0.00    +0.023 A 
ATOM      8  C   UNL     1      -0.006  -0.750  -1.260  0.00  0.00    +0.022 A 
ATOM      9  C   UNL     1       0.002  -0.004   0.002  0.00  0.00    -0.029 A 
ATOM     10  C   UNL     1       0.023  -0.707   1.163  0.00  0.00    +0.049 A 
ATOM     11  C   UNL     1       0.041  -2.118   1.129  0.00  0.00    +0.341 A 
ATOM     12  O   UNL     1       0.059  -2.736   2.178  0.00  0.00    -0.245 OA
ATOM     13  O   UNL     1       0.038  -2.796  -0.029  0.00  0.00    -0.422 OA
ATOM     14  C   UNL     1       0.018  -2.160  -1.222  0.00  0.00    +0.143 A 
ATOM     15  C   UNL     1       0.016  -2.884  -2.401  0.00  0.00    +0.093 A 
ATOM     16  C   UNL     1      -0.018   1.503   0.010  0.00  0.00    +0.045 C 
ENDROOT
BRANCH  10  17
ATOM     17  C   UNL     1       0.025   0.017   2.485  0.00  0.00    +0.138 C 
BRANCH  17  18
ATOM     18  C   UNL     1      -1.394   0.239   2.939  0.00  0.00    +0.218 C 
ATOM     19  O   UNL     1      -2.317  -0.152   2.256  0.00  0.00    -0.275 OA
ATOM     20  N   UNL     1      -1.638   0.872   4.103  0.00  0.00    -0.308 N 
ATOM     21  H   UNL     1      -0.900   1.184   4.649  0.00  0.00    +0.149 HD
BRANCH  20  22
ATOM     22  C   UNL     1      -3.018   1.087   4.545  0.00  0.00    +0.052 C 
ATOM     23  C   UNL     1      -3.761   1.928   3.504  0.00  0.00    +0.033 C 
ATOM     24  C   UNL     1      -3.720  -0.263   4.704  0.00  0.00    +0.033 C 
BRANCH  22  25
ATOM     25  C   UNL     1      -3.016   1.822   5.887  0.00  0.00    +0.181 C 
BRANCH  25  26
ATOM     26  O   UNL     1      -4.362   2.033   6.317  0.00  0.00    -0.393 OA
ATOM     27  H   UNL     1      -4.436   2.495   7.163  0.00  0.00    +0.209 HD
ENDBRANCH  25  26
ENDBRANCH  22  25
ENDBRANCH  20  22
ENDBRANCH  17  18
ENDBRANCH  10  17
TORSDOF 5
