REMARK  Name = ZINC40011192
REMARK  4 active torsions:
REMARK  status: ('A' for Active; 'I' for Inactive)
REMARK    1  A    between atoms: C_1  and  C_2
REMARK    2  A    between atoms: C_8  and  N_24
REMARK    3  A    between atoms: C_9  and  C_15
REMARK    4  A    between atoms: C_19  and  C_23
REMARK                            x       y       z     vdW  Elec       q    Type
REMARK                         _______ _______ _______ _____ _____    ______ ____
ROOT
ATOM      1  C   UNL     1      -0.018   1.503   0.010  0.00  0.00    +0.044 C 
ATOM      2  C   UNL     1       0.002  -0.004   0.002  0.00  0.00    -0.048 A 
ATOM      3  C   UNL     1       0.006  -0.684  -1.216  0.00  0.00    +0.004 A 
ATOM      4  C   UNL     1       0.024  -2.043  -1.258  0.00  0.00    +0.010 A 
ATOM      5  C   UNL     1       0.041  -2.779  -0.057  0.00  0.00    -0.001 A 
ATOM      6  C   UNL     1       0.061  -4.178  -0.071  0.00  0.00    +0.022 A 
ATOM      7  C   UNL     1       0.077  -4.870   1.152  0.00  0.00    +0.028 A 
ATOM      8  C   UNL     1       0.099  -6.311   1.373  0.00  0.00    +0.053 A 
ATOM      9  C   UNL     1       0.112  -6.774   2.668  0.00  0.00    +0.097 A 
ATOM     10  S   UNL     1       0.095  -5.285   3.645  0.00  0.00    -0.064 S 
ATOM     11  C   UNL     1       0.071  -4.083   2.337  0.00  0.00    +0.088 A 
ATOM     12  N   UNL     1       0.052  -2.774   2.327  0.00  0.00    -0.349 N 
ATOM     13  C   UNL     1       0.037  -2.086   1.182  0.00  0.00    +0.047 A 
ATOM     14  C   UNL     1       0.022  -0.680   1.183  0.00  0.00    +0.029 A 
ATOM     15  H   UNL     1       0.049  -2.293   3.169  0.00  0.00    +0.166 HD
ENDROOT
BRANCH   9  16
ATOM     16  C   UNL     1       0.134  -8.117   3.118  0.00  0.00    +0.258 C 
ATOM     17  O   UNL     1       0.143  -9.029   2.311  0.00  0.00    -0.269 OA
ATOM     18  N   UNL     1       0.145  -8.385   4.438  0.00  0.00    -0.262 N 
ATOM     19  C   UNL     1       0.166  -9.707   4.881  0.00  0.00    +0.192 A 
ATOM     20  C   UNL     1       0.174 -10.141   6.275  0.00  0.00    +0.123 A 
ATOM     21  N   UNL     1       0.194 -11.439   6.303  0.00  0.00    -0.052 NA
ATOM     22  O   UNL     1       0.200 -11.904   4.965  0.00  0.00    -0.241 OA
ATOM     23  N   UNL     1       0.177 -10.767   4.120  0.00  0.00    -0.033 NA
ATOM     24  C   UNL     1       0.161  -9.234   7.479  0.00  0.00    +0.073 C 
ATOM     25  H   UNL     1       0.138  -7.659   5.081  0.00  0.00    +0.157 HD
ENDBRANCH   9  16
BRANCH   8  26
ATOM     26  N   UNL     1       0.106  -7.193   0.303  0.00  0.00    -0.356 N 
ATOM     27  H   UNL     1       0.096  -6.854  -0.606  0.00  0.00    +0.142 HD
ATOM     28  H   UNL     1       0.121  -8.150   0.463  0.00  0.00    +0.142 HD
ENDBRANCH   8  26
TORSDOF 2
