REMARK  Name = ZINC04938160
REMARK  8 active torsions:
REMARK  status: ('A' for Active; 'I' for Inactive)
REMARK    1  A    between atoms: C_1  and  C_2
REMARK    2  A    between atoms: C_4  and  C_29
REMARK    3  A    between atoms: C_6  and  N_8
REMARK    4  A    between atoms: N_8  and  C_9
REMARK    5  A    between atoms: N_8  and  S_25
REMARK    6  A    between atoms: C_9  and  C_11
REMARK    7  A    between atoms: C_9  and  C_12
REMARK    8  A    between atoms: S_25  and  C_28
REMARK                            x       y       z     vdW  Elec       q    Type
REMARK                         _______ _______ _______ _____ _____    ______ ____
ROOT
ATOM      1  C   UNL     1      -0.857   1.505   1.800  0.00  0.00    +0.180 C 
ATOM      2  C   UNL     1       0.334   1.147   0.908  0.00  0.00    +0.040 C 
ENDROOT
BRANCH   1   3
ATOM      3  C   UNL     1      -0.464   1.355   3.247  0.00  0.00    +0.242 C 
ATOM      4  O   UNL     1      -0.124   2.328   3.887  0.00  0.00    -0.273 OA
ATOM      5  N   UNL     1      -0.489   0.140   3.830  0.00  0.00    -0.259 N 
ATOM      6  C   UNL     1      -0.903  -1.054   3.078  0.00  0.00    +0.209 C 
ATOM      7  C   UNL     1      -1.785  -1.906   3.948  0.00  0.00    +0.235 C 
ATOM      8  O   UNL     1      -2.631  -2.608   3.436  0.00  0.00    -0.274 OA
ATOM      9  N   UNL     1      -1.650  -1.897   5.288  0.00  0.00    -0.283 N 
ATOM     10  C   UNL     1      -0.715  -1.060   5.907  0.00  0.00    +0.055 A 
ATOM     11  C   UNL     1      -0.128  -0.025   5.176  0.00  0.00    +0.058 A 
ATOM     12  C   UNL     1       0.792   0.815   5.777  0.00  0.00    +0.025 A 
ATOM     13  C   UNL     1       1.131   0.624   7.105  0.00  0.00    +0.002 A 
ATOM     14  C   UNL     1       0.553  -0.402   7.830  0.00  0.00    +0.002 A 
ATOM     15  C   UNL     1      -0.368  -1.244   7.235  0.00  0.00    +0.025 A 
ATOM     16  H   UNL     1      -2.206  -2.478   5.830  0.00  0.00    +0.155 HD
ENDBRANCH   1   3
BRANCH   1  17
ATOM     17  N   UNL     1      -1.260   2.890   1.544  0.00  0.00    -0.196 N 
BRANCH  17  23
ATOM     18  C   UNL     1       0.246   6.875   3.994  0.00  0.00    +0.044 C 
ATOM     19  C   UNL     1       0.418   5.873   2.881  0.00  0.00    -0.048 A 
ATOM     20  C   UNL     1       1.490   5.980   2.015  0.00  0.00    +0.006 A 
ATOM     21  C   UNL     1       1.652   5.063   0.993  0.00  0.00    -0.048 A 
ATOM     22  C   UNL     1       0.741   4.036   0.834  0.00  0.00    +0.028 A 
ATOM     23  C   UNL     1      -0.337   3.926   1.702  0.00  0.00    +0.052 A 
ATOM     24  C   UNL     1      -0.499   4.853   2.725  0.00  0.00    +0.028 A 
ATOM     25  C   UNL     1       2.823   5.183   0.052  0.00  0.00    +0.044 C 
ENDBRANCH  17  23
BRANCH  17  26
ATOM     26  S   UNL     1      -2.810   3.227   1.067  0.00  0.00    +0.043 S 
ATOM     27  O   UNL     1      -2.716   4.465   0.377  0.00  0.00    -0.155 OA
ATOM     28  O   UNL     1      -3.245   2.053   0.395  0.00  0.00    -0.155 OA
ATOM     29  C   UNL     1      -3.737   3.441   2.612  0.00  0.00    +0.218 C 
ENDBRANCH  17  26
ENDBRANCH   1  17
TORSDOF 4
