REMARK  Name = ZINC30984077
REMARK  5 active torsions:
REMARK  status: ('A' for Active; 'I' for Inactive)
REMARK    1  A    between atoms: C_1  and  C_2
REMARK    2  A    between atoms: C_4  and  C_16
REMARK    3  A    between atoms: C_6  and  C_11
REMARK    4  A    between atoms: C_21  and  C_24
REMARK    5  A    between atoms: C_26  and  C_30
REMARK                            x       y       z     vdW  Elec       q    Type
REMARK                         _______ _______ _______ _____ _____    ______ ____
ROOT
ATOM      1  C   UNL     1       4.786   0.826   0.410  0.00  0.00    +0.251 C 
ATOM      2  O   UNL     1       4.607   2.021   0.282  0.00  0.00    -0.270 OA
ATOM      3  N   UNL     1       3.739   0.008   0.636  0.00  0.00    -0.261 N 
ATOM      4  C   UNL     1       2.456   0.531   0.724  0.00  0.00    +0.165 A 
ATOM      5  N   UNL     1       1.320  -0.101   0.938  0.00  0.00    -0.225 NA
ATOM      6  C   UNL     1       0.170   0.554   0.993  0.00  0.00    +0.082 A 
ATOM      7  C   UNL     1       0.194   1.909   0.821  0.00  0.00    +0.077 A 
ATOM      8  S   UNL     1       1.942   2.183   0.579  0.00  0.00    -0.060 S 
ATOM      9  H   UNL     1       3.901  -1.074   0.751  0.00  0.00    +0.157 HD
ENDROOT
BRANCH   1  13
ATOM     10  C   UNL     1       5.892   2.800  -1.843  0.00  0.00    +0.070 C 
ATOM     11  C   UNL     1       7.067   1.904  -1.548  0.00  0.00    +0.091 A 
ATOM     12  C   UNL     1       7.100   0.810  -0.580  0.00  0.00    +0.076 A 
ATOM     13  C   UNL     1       6.153   0.269   0.316  0.00  0.00    +0.053 A 
ATOM     14  C   UNL     1       6.547  -0.800   1.113  0.00  0.00    +0.045 A 
ATOM     15  C   UNL     1       7.850  -1.299   0.988  0.00  0.00    +0.111 A 
ATOM     16  N   UNL     1       8.714  -0.765   0.135  0.00  0.00    -0.207 NA
ATOM     17  C   UNL     1       8.390   0.256  -0.642  0.00  0.00    +0.260 A 
ATOM     18  O   UNL     1       9.074   0.958  -1.569  0.00  0.00    -0.334 OA
ATOM     19  N   UNL     1       8.238   1.962  -2.107  0.00  0.00    -0.080 NA
BRANCH  15  20
ATOM     20  C   UNL     1       8.272  -2.436   1.827  0.00  0.00    +0.153 A 
ATOM     21  C   UNL     1       9.500  -3.025   1.816  0.00  0.00    +0.051 A 
ATOM     22  C   UNL     1       9.461  -4.060   2.770  0.00  0.00    +0.042 A 
ATOM     23  C   UNL     1       8.223  -4.059   3.305  0.00  0.00    +0.196 A 
ATOM     24  O   UNL     1       7.508  -3.078   2.733  0.00  0.00    -0.461 OA
ENDBRANCH  15  20
ENDBRANCH   1  13
BRANCH   6  25
ATOM     25  C   UNL     1      -1.108  -0.164   1.235  0.00  0.00    +0.019 A 
ATOM     26  C   UNL     1      -1.252  -1.535   1.518  0.00  0.00    +0.042 A 
ATOM     27  C   UNL     1      -2.588  -1.777   1.674  0.00  0.00    +0.102 A 
ATOM     28  N   UNL     1      -3.260  -0.591   1.484  0.00  0.00    -0.356 N 
ATOM     29  H   UNL     1      -4.357  -0.562   1.561  0.00  0.00    +0.165 HD
ATOM     30  C   UNL     1      -2.358   0.385   1.218  0.00  0.00    +0.093 A 
BRANCH  27  31
ATOM     31  C   UNL     1      -3.199  -3.075   1.983  0.00  0.00    +0.258 C 
ATOM     32  O   UNL     1      -2.498  -4.058   2.130  0.00  0.00    -0.269 OA
ATOM     33  N   UNL     1      -4.538  -3.177   2.104  0.00  0.00    -0.324 N 
ATOM     34  H   UNL     1      -4.996  -4.150   2.336  0.00  0.00    +0.145 HD
ATOM     35  H   UNL     1      -5.172  -2.288   1.972  0.00  0.00    +0.145 HD
ENDBRANCH  27  31
ENDBRANCH   6  25
TORSDOF 4
