REMARK  Name = ZINC44714096
REMARK  12 active torsions:
REMARK  status: ('A' for Active; 'I' for Inactive)
REMARK    1  A    between atoms: C_1  and  C_2
REMARK    2  A    between atoms: C_4  and  C_11
REMARK    3  A    between atoms: N_5  and  C_7
REMARK    4  A    between atoms: C_7  and  C_8
REMARK    5  A    between atoms: C_7  and  C_9
REMARK    6  A    between atoms: C_7  and  C_10
REMARK    7  A    between atoms: C_15  and  C_24
REMARK    8  A    between atoms: N_26  and  C_27
REMARK    9  A    between atoms: C_27  and  C_29
REMARK   10  A    between atoms: C_27  and  C_30
REMARK   11  A    between atoms: C_31  and  C_37
REMARK   12  A    between atoms: C_35  and  C_36
REMARK                            x       y       z     vdW  Elec       q    Type
REMARK                         _______ _______ _______ _____ _____    ______ ____
ROOT
ATOM      1  C   UNL     1      -0.890  -5.372   0.563  0.00  0.00    +0.265 C 
ATOM      2  O   UNL     1      -0.940  -5.415  -0.652  0.00  0.00    -0.268 OA
ATOM      3  N   UNL     1      -1.158  -6.476   1.288  0.00  0.00    -0.295 N 
ATOM      4  C   UNL     1      -1.277  -6.589   2.760  0.00  0.00    +0.121 C 
ATOM      5  C   UNL     1      -2.455  -7.565   2.983  0.00  0.00    +0.100 C 
ATOM      6  C   UNL     1      -2.529  -8.392   1.689  0.00  0.00    -0.004 C 
ATOM      7  C   UNL     1      -1.407  -7.851   0.791  0.00  0.00    +0.115 C 
ATOM      8  C   UNL     1      -3.881  -8.192   1.011  0.00  0.00    -0.010 C 
ATOM      9  C   UNL     1      -3.952  -9.068  -0.243  0.00  0.00    -0.082 C 
ATOM     10  N   UNL     1      -3.773 -10.476   0.131  0.00  0.00    +0.379 N 
ATOM     11  C   UNL     1      -2.434 -10.678   0.698  0.00  0.00    -0.082 C 
ATOM     12  C   UNL     1      -2.299  -9.869   1.991  0.00  0.00    -0.010 C 
ATOM     13  H   UNL     1      -4.469 -10.732   0.816  0.00  0.00    -0.086 HD
ATOM     14  H   UNL     1      -3.882 -11.056  -0.687  0.00  0.00    -0.086 HD
ENDROOT
BRANCH   1  18
ATOM     15  C   UNL     1       0.342  -1.885   4.034  0.00  0.00    +0.067 C 
ATOM     16  C   UNL     1       0.001  -2.582   2.742  0.00  0.00    +0.061 A 
ATOM     17  C   UNL     1      -0.289  -3.940   2.591  0.00  0.00    +0.057 A 
ATOM     18  C   UNL     1      -0.537  -4.114   1.241  0.00  0.00    +0.124 A 
ATOM     19  N   UNL     1      -0.388  -2.885   0.663  0.00  0.00    -0.254 N 
ATOM     20  N   UNL     1      -0.081  -2.021   1.562  0.00  0.00    -0.175 NA
BRANCH  19  21
ATOM     21  C   UNL     1      -0.557  -2.597  -0.763  0.00  0.00    +0.056 C 
ATOM     22  C   UNL     1      -1.933  -3.082  -1.222  0.00  0.00    +0.036 C 
ATOM     23  C   UNL     1      -0.444  -1.089  -0.995  0.00  0.00    +0.036 C 
ATOM     24  C   UNL     1       0.531  -3.318  -1.562  0.00  0.00    +0.036 C 
ENDBRANCH  19  21
ENDBRANCH   1  18
BRANCH   5  25
ATOM     25  C   UNL     1      -3.736  -6.801   3.195  0.00  0.00    +0.219 C 
ATOM     26  O   UNL     1      -3.922  -5.755   2.611  0.00  0.00    -0.275 OA
ATOM     27  N   UNL     1      -4.676  -7.281   4.034  0.00  0.00    -0.308 N 
ATOM     28  H   UNL     1      -4.500  -8.081   4.553  0.00  0.00    +0.149 HD
BRANCH  27  29
ATOM     29  C   UNL     1      -5.963  -6.593   4.162  0.00  0.00    +0.104 C 
ATOM     30  C   UNL     1      -6.581  -6.917   5.524  0.00  0.00    +0.033 C 
BRANCH  29  31
ATOM     31  C   UNL     1      -6.890  -7.054   3.067  0.00  0.00    +0.015 A 
ATOM     32  C   UNL     1      -7.652  -6.259   2.281  0.00  0.00    +0.038 A 
ATOM     33  N   UNL     1      -8.335  -7.053   1.431  0.00  0.00    -0.281 N 
ATOM     34  H   UNL     1      -8.960  -6.757   0.750  0.00  0.00    +0.189 HD
ATOM     35  N   UNL     1      -7.982  -8.381   1.703  0.00  0.00    -0.179 NA
ATOM     36  C   UNL     1      -7.111  -8.380   2.680  0.00  0.00    +0.065 A 
ATOM     37  C   UNL     1      -6.463  -9.598   3.287  0.00  0.00    +0.068 C 
ATOM     38  C   UNL     1      -7.724  -4.755   2.343  0.00  0.00    +0.065 C 
ENDBRANCH  29  31
ENDBRANCH  27  29
ENDBRANCH   5  25
TORSDOF 5
