REMARK  Name = ZINC03179609
REMARK  5 active torsions:
REMARK  status: ('A' for Active; 'I' for Inactive)
REMARK    1  A    between atoms: C_1  and  N_2
REMARK    2  A    between atoms: N_2  and  C_3
REMARK    3  A    between atoms: N_2  and  C_4
REMARK    4  A    between atoms: C_7  and  C_10
REMARK    5  A    between atoms: C_13  and  C_16
REMARK                            x       y       z     vdW  Elec       q    Type
REMARK                         _______ _______ _______ _____ _____    ______ ____
ROOT
ATOM      1  C   UNL     1      -0.006  -2.813  -4.924  0.00  0.00    +0.205 C 
ATOM      2  N   UNL     1       0.709  -2.045  -5.957  0.00  0.00    -0.305 N 
ATOM      3  C   UNL     1       1.786  -2.831  -6.361  0.00  0.00    +0.145 C 
ATOM      4  N   UNL     1       1.823  -3.955  -5.723  0.00  0.00    -0.169 NA
ATOM      5  N   UNL     1       0.765  -4.062  -4.808  0.00  0.00    -0.243 N 
ATOM      6  H   UNL     1       0.475  -1.165  -6.292  0.00  0.00    +0.150 HD
ATOM      7  H   UNL     1       0.578  -4.808  -4.216  0.00  0.00    +0.170 HD
ENDROOT
BRANCH   3   8
ATOM      8  C   UNL     1       2.767  -2.430  -7.391  0.00  0.00    +0.016 A 
ATOM      9  C   UNL     1       2.651  -1.192  -8.025  0.00  0.00    +0.013 A 
ATOM     10  C   UNL     1       3.569  -0.823  -8.986  0.00  0.00    +0.021 A 
ATOM     11  C   UNL     1       4.605  -1.678  -9.322  0.00  0.00    +0.041 A 
ATOM     12  C   UNL     1       4.726  -2.908  -8.697  0.00  0.00    +0.021 A 
ATOM     13  C   UNL     1       3.817  -3.286  -7.731  0.00  0.00    +0.013 A 
ATOM     14 CL   UNL     1       5.756  -1.207 -10.533  0.00  0.00    -0.084 Cl
ENDBRANCH   3   8
BRANCH   1  18
ATOM     15  C   UNL     1       0.000  -0.696  -1.211  0.00  0.00    +0.029 A 
ATOM     16  C   UNL     1       0.013  -2.085  -1.221  0.00  0.00    +0.023 A 
ATOM     17  C   UNL     1       0.010  -2.766  -2.422  0.00  0.00    +0.009 A 
ATOM     18  C   UNL     1      -0.005  -2.066  -3.615  0.00  0.00    -0.008 A 
ATOM     19  C   UNL     1      -0.018  -0.684  -3.609  0.00  0.00    +0.009 A 
ATOM     20  C   UNL     1      -0.021   0.004  -2.411  0.00  0.00    +0.023 A 
BRANCH  15  22
ATOM     21  C   UNL     1      -0.018   1.461   0.010  0.00  0.00    +0.129 C 
ATOM     22  N   UNL     1       0.002  -0.004   0.002  0.00  0.00    -0.336 N 
ATOM     23  C   UNL     1       0.024  -0.743   1.267  0.00  0.00    +0.129 C 
ENDBRANCH  15  22
ENDBRANCH   1  18
TORSDOF 3
