REMARK  Name = ZINC00575204
REMARK  2 active torsions:
REMARK  status: ('A' for Active; 'I' for Inactive)
REMARK    1  A    between atoms: C_6  and  N_7
REMARK    2  A    between atoms: C_8  and  C_9
REMARK                            x       y       z     vdW  Elec       q    Type
REMARK                         _______ _______ _______ _____ _____    ______ ____
ROOT
ATOM      1  C   UNL     1      -0.017   1.394   0.010  0.00  0.00    +0.030 A 
ATOM      2  C   UNL     1       1.165   2.102   0.002  0.00  0.00    +0.030 A 
ATOM      3  C   UNL     1       2.379   1.428  -0.013  0.00  0.00    +0.067 A 
ATOM      4  C   UNL     1       2.405   0.030  -0.021  0.00  0.00    +0.069 A 
ATOM      5  C   UNL     1       1.221  -0.685  -0.014  0.00  0.00    +0.055 A 
ATOM      6  C   UNL     1       0.002  -0.004   0.002  0.00  0.00    +0.066 A 
ATOM      7  N   UNL     1       3.747  -0.347  -0.035  0.00  0.00    -0.306 N 
ATOM      8  H   UNL     1       4.081  -1.257  -0.043  0.00  0.00    +0.170 HD
ATOM      9  C   UNL     1       4.500   0.769  -0.037  0.00  0.00    +0.325 A 
ATOM     10  O   UNL     1       5.717   0.793  -0.048  0.00  0.00    -0.247 OA
ATOM     11  N   UNL     1       3.704   1.855  -0.023  0.00  0.00    -0.306 N 
ATOM     12  H   UNL     1       4.003   2.777  -0.021  0.00  0.00    +0.170 HD
ENDROOT
BRANCH   6  13
ATOM     13  N   UNL     1      -1.172  -0.704   0.010  0.00  0.00    -0.255 NA
ATOM     14  C   UNL     1      -2.132  -0.357   0.818  0.00  0.00    +0.119 C 
BRANCH  14  15
ATOM     15  C   UNL     1      -3.398  -1.112   0.827  0.00  0.00    -0.004 A 
ATOM     16  C   UNL     1      -3.588  -2.210  -0.023  0.00  0.00    +0.029 A 
ATOM     17  C   UNL     1      -4.789  -2.888   0.019  0.00  0.00    +0.111 A 
ATOM     18  N   UNL     1      -5.749  -2.515   0.843  0.00  0.00    -0.263 NA
ATOM     19  C   UNL     1      -5.613  -1.488   1.659  0.00  0.00    +0.111 A 
ATOM     20  C   UNL     1      -4.444  -0.756   1.689  0.00  0.00    +0.029 A 
ENDBRANCH  14  15
ENDBRANCH   6  13
TORSDOF 2
