REMARK  Name = ZINC15775784
REMARK  5 active torsions:
REMARK  status: ('A' for Active; 'I' for Inactive)
REMARK    1  A    between atoms: C_10  and  C_11
REMARK    2  A    between atoms: C_10  and  C_13
REMARK    3  A    between atoms: N_15  and  N_16
REMARK    4  A    between atoms: C_17  and  C_18
REMARK    5  A    between atoms: C_20  and  N_24
REMARK                            x       y       z     vdW  Elec       q    Type
REMARK                         _______ _______ _______ _____ _____    ______ ____
ROOT
ATOM      1  C   UNL     1       0.659  -2.796  -0.037  0.00  0.00    +0.274 C 
ATOM      2  O   UNL     1      -0.495  -2.415  -0.076  0.00  0.00    -0.268 OA
ATOM      3  N   UNL     1       0.932  -4.116  -0.005  0.00  0.00    -0.202 N 
ATOM      4  H   UNL     1       1.853  -4.420   0.026  0.00  0.00    +0.178 HD
ENDROOT
BRANCH   1  14
ATOM      5  C   UNL     1       2.080  -3.028  -5.120  0.00  0.00    +0.000 A 
ATOM      6  C   UNL     1       1.238  -3.583  -4.171  0.00  0.00    +0.001 A 
ATOM      7  C   UNL     1       1.282  -3.147  -2.867  0.00  0.00    +0.008 A 
ATOM      8  C   UNL     1       2.184  -2.135  -2.493  0.00  0.00    -0.017 A 
ATOM      9  C   UNL     1       3.030  -1.583  -3.458  0.00  0.00    -0.040 A 
ATOM     10  C   UNL     1       2.969  -2.030  -4.764  0.00  0.00    +0.004 A 
ATOM     11  C   UNL     1       3.898  -0.525  -2.822  0.00  0.00    +0.040 C 
ATOM     12  C   UNL     1       3.500  -0.475  -1.340  0.00  0.00    +0.042 C 
ATOM     13  C   UNL     1       2.414  -1.512  -1.184  0.00  0.00    -0.017 C 
ATOM     14  C   UNL     1       1.758  -1.817  -0.025  0.00  0.00    +0.119 C 
BRANCH  14  15
ATOM     15  C   UNL     1       2.140  -1.184   1.201  0.00  0.00    +0.105 C 
ATOM     16  N   UNL     1       2.443  -0.682   2.174  0.00  0.00    -0.191 NA
ENDBRANCH  14  15
ENDBRANCH   1  14
BRANCH   3  17
ATOM     17  N   UNL     1      -0.113  -5.048  -0.016  0.00  0.00    -0.187 NA
ATOM     18  C   UNL     1       0.149  -6.319   0.015  0.00  0.00    +0.142 C 
BRANCH  18  19
ATOM     19  C   UNL     1      -0.951  -7.300   0.003  0.00  0.00    +0.043 A 
ATOM     20  C   UNL     1      -0.672  -8.668   0.031  0.00  0.00    +0.046 A 
ATOM     21  C   UNL     1      -1.706  -9.580   0.026  0.00  0.00    +0.127 A 
ATOM     22  C   UNL     1      -3.020  -9.146  -0.019  0.00  0.00    +0.036 A 
ATOM     23  C   UNL     1      -3.309  -7.794  -0.053  0.00  0.00    +0.054 A 
ATOM     24  C   UNL     1      -2.282  -6.864  -0.042  0.00  0.00    +0.188 A 
ATOM     25  O   UNL     1      -2.565  -5.536  -0.074  0.00  0.00    -0.287 OA
BRANCH  21  26
ATOM     26  N   UNL     1      -1.411 -11.030   0.062  0.00  0.00    +0.056 N 
ATOM     27  O   UNL     1      -2.322 -11.838   0.052  0.00  0.00    -0.126 OA
ATOM     28  O   UNL     1      -0.256 -11.415   0.102  0.00  0.00    -0.126 OA
ENDBRANCH  21  26
ENDBRANCH  18  19
ENDBRANCH   3  17
TORSDOF 5
