REMARK  Name = ZINC16042192
REMARK  10 active torsions:
REMARK  status: ('A' for Active; 'I' for Inactive)
REMARK    1  A    between atoms: C_1  and  C_2
REMARK    2  A    between atoms: C_2  and  N_67
REMARK    3  A    between atoms: C_3  and  C_4
REMARK    4  A    between atoms: C_3  and  N_67
REMARK    5  A    between atoms: C_5  and  C_6
REMARK    6  A    between atoms: C_5  and  N_67
REMARK    7  A    between atoms: C_6  and  C_7
REMARK    8  A    between atoms: C_7  and  N_8
REMARK    9  A    between atoms: C_28  and  C_30
REMARK   10  A    between atoms: C_34  and  N_36
REMARK                            x       y       z     vdW  Elec       q    Type
REMARK                         _______ _______ _______ _____ _____    ______ ____
ROOT
ATOM      1  N   UNL     1      -2.622  -2.623   1.902  0.00  0.00    -0.291 N 
ATOM      2  C   UNL     1      -3.492  -1.631   2.513  0.00  0.00    +0.203 C 
ATOM      3  C   UNL     1      -3.844  -0.532   1.564  0.00  0.00    +0.234 C 
ATOM      4  O   UNL     1      -4.547   0.366   1.975  0.00  0.00    -0.274 OA
ATOM      5  N   UNL     1      -3.438  -0.473   0.294  0.00  0.00    -0.276 N 
ATOM      6  C   UNL     1      -2.656  -1.530  -0.345  0.00  0.00    +0.167 C 
ATOM      7  C   UNL     1      -2.240  -2.587   0.627  0.00  0.00    +0.237 C 
ATOM      8  O   UNL     1      -1.507  -3.468   0.229  0.00  0.00    -0.274 OA
ATOM      9  C   UNL     1      -3.488  -2.163  -1.469  0.00  0.00    +0.069 C 
ATOM     10  C   UNL     1      -4.134  -1.065  -2.275  0.00  0.00    -0.015 A 
ATOM     11  C   UNL     1      -4.715  -1.146  -3.600  0.00  0.00    +0.003 A 
ATOM     12  C   UNL     1      -4.855  -2.198  -4.511  0.00  0.00    +0.010 A 
ATOM     13  C   UNL     1      -5.472  -1.908  -5.702  0.00  0.00    +0.001 A 
ATOM     14  C   UNL     1      -5.939  -0.638  -6.000  0.00  0.00    +0.002 A 
ATOM     15  C   UNL     1      -5.814   0.420  -5.117  0.00  0.00    +0.026 A 
ATOM     16  C   UNL     1      -5.190   0.157  -3.900  0.00  0.00    +0.047 A 
ATOM     17  N   UNL     1      -4.906   0.950  -2.825  0.00  0.00    -0.356 N 
ATOM     18  H   UNL     1      -5.121   1.893  -2.756  0.00  0.00    +0.166 HD
ATOM     19  C   UNL     1      -4.275   0.212  -1.859  0.00  0.00    +0.046 A 
ATOM     20  C   UNL     1      -3.791   0.711  -0.517  0.00  0.00    +0.154 C 
ENDROOT
BRANCH  20  21
ATOM     21  C   UNL     1      -2.577   1.585  -0.703  0.00  0.00    -0.019 A 
ATOM     22  C   UNL     1      -1.495   1.120  -1.428  0.00  0.00    +0.006 A 
ATOM     23  C   UNL     1      -0.384   1.923  -1.603  0.00  0.00    +0.003 A 
ATOM     24  C   UNL     1      -0.352   3.190  -1.048  0.00  0.00    +0.033 A 
ATOM     25  C   UNL     1      -1.431   3.652  -0.320  0.00  0.00    +0.127 A 
ATOM     26  C   UNL     1      -2.543   2.849  -0.145  0.00  0.00    +0.038 A 
BRANCH  25  27
ATOM     27  N   UNL     1      -1.398   5.008   0.273  0.00  0.00    +0.056 N 
ATOM     28  O   UNL     1      -0.418   5.716   0.119  0.00  0.00    -0.126 OA
ATOM     29  O   UNL     1      -2.349   5.416   0.915  0.00  0.00    -0.126 OA
ENDBRANCH  25  27
ENDBRANCH  20  21
BRANCH   1  30
ATOM     30  C   UNL     1      -2.139  -3.725   2.737  0.00  0.00    +0.106 C 
BRANCH  30  31
ATOM     31  C   UNL     1      -3.123  -4.893   2.660  0.00  0.00    +0.000 C 
BRANCH  31  32
ATOM     32  C   UNL     1      -2.618  -6.044   3.532  0.00  0.00    -0.077 C 
BRANCH  32  33
ATOM     33  N   UNL     1      -3.598  -7.149   3.471  0.00  0.00    +0.379 N 
ATOM     34  H   UNL     1      -4.546  -6.758   3.527  0.00  0.00    -0.082 HD
BRANCH  33  36
ATOM     35  C   UNL     1      -4.617  -8.869   2.060  0.00  0.00    -0.017 C 
ATOM     36  C   UNL     1      -3.455  -7.882   2.195  0.00  0.00    -0.082 C 
ENDBRANCH  33  36
BRANCH  33  37
ATOM     37  C   UNL     1      -3.392  -8.071   4.609  0.00  0.00    -0.082 C 
ATOM     38  C   UNL     1      -3.959  -7.424   5.873  0.00  0.00    -0.017 C 
ENDBRANCH  33  37
ENDBRANCH  32  33
ENDBRANCH  31  32
ENDBRANCH  30  31
ENDBRANCH   1  30
TORSDOF 8
