REMARK  Name = ZINC36506683
REMARK  14 active torsions:
REMARK  status: ('A' for Active; 'I' for Inactive)
REMARK    1  A    between atoms: C_1  and  C_2
REMARK    2  A    between atoms: C_2  and  C_3
REMARK    3  A    between atoms: C_2  and  C_4
REMARK    4  A    between atoms: C_2  and  N_5
REMARK    5  A    between atoms: C_6  and  C_8
REMARK    6  A    between atoms: C_8  and  C_10
REMARK    7  A    between atoms: C_8  and  N_19
REMARK    8  A    between atoms: C_11  and  O_18
REMARK    9  A    between atoms: C_13  and  O_17
REMARK   10  A    between atoms: C_15  and  O_16
REMARK   11  A    between atoms: N_19  and  C_20
REMARK   12  A    between atoms: C_20  and  C_21
REMARK   13  A    between atoms: C_26  and  C_28
REMARK   14  A    between atoms: C_28  and  C_29
REMARK                            x       y       z     vdW  Elec       q    Type
REMARK                         _______ _______ _______ _____ _____    ______ ____
ROOT
ATOM      1  C   UNL     1       2.652  -0.591  -2.692  0.00  0.00    +0.200 C 
ENDROOT
BRANCH   1   2
ATOM      2  C   UNL     1       1.839  -0.187  -3.894  0.00  0.00    +0.065 A 
ATOM      3  C   UNL     1       0.983  -1.100  -4.492  0.00  0.00    +0.129 A 
ATOM      4  C   UNL     1       0.235  -0.728  -5.598  0.00  0.00    +0.091 A 
ATOM      5  C   UNL     1       0.341   0.557  -6.107  0.00  0.00    +0.124 A 
ATOM      6  C   UNL     1       1.196   1.471  -5.509  0.00  0.00    +0.091 A 
ATOM      7  C   UNL     1       1.941   1.100  -4.400  0.00  0.00    +0.129 A 
BRANCH   7   8
ATOM      8  O   UNL     1       2.775   1.997  -3.811  0.00  0.00    -0.506 OA
ATOM      9  H   UNL     1       3.672   1.996  -4.172  0.00  0.00    +0.292 HD
ENDBRANCH   7   8
BRANCH   5  10
ATOM     10  O   UNL     1      -0.392   0.922  -7.192  0.00  0.00    -0.507 OA
ATOM     11  H   UNL     1      -1.259   1.291  -6.975  0.00  0.00    +0.292 HD
ENDBRANCH   5  10
BRANCH   3  12
ATOM     12  O   UNL     1       0.879  -2.360  -3.993  0.00  0.00    -0.506 OA
ATOM     13  H   UNL     1       0.246  -2.445  -3.268  0.00  0.00    +0.292 HD
ENDBRANCH   3  12
ENDBRANCH   1   2
BRANCH   1  15
ATOM     14  N   UNL     1       0.824   0.438  -1.382  0.00  0.00    -0.309 N 
ATOM     15  C   UNL     1       2.130   0.120  -1.470  0.00  0.00    +0.239 C 
ATOM     16  O   UNL     1       2.886   0.406  -0.566  0.00  0.00    -0.273 OA
ATOM     17  H   UNL     1       0.219   0.209  -2.106  0.00  0.00    +0.149 HD
BRANCH  14  19
ATOM     18  C   UNL     1       1.034   2.471  -0.040  0.00  0.00    +0.031 C 
ATOM     19  C   UNL     1       0.316   1.129  -0.195  0.00  0.00    +0.026 C 
ATOM     20  C   UNL     1       0.571   0.268   1.044  0.00  0.00    +0.031 C 
ATOM     21  C   UNL     1      -1.187   1.370  -0.348  0.00  0.00    +0.031 C 
ENDBRANCH  14  19
ENDBRANCH   1  15
BRANCH   1  22
ATOM     22  N   UNL     1       4.055  -0.227  -2.907  0.00  0.00    -0.278 N 
ATOM     23  C   UNL     1       4.761  -0.818  -3.892  0.00  0.00    +0.221 C 
ATOM     24  O   UNL     1       4.235  -1.650  -4.600  0.00  0.00    -0.275 OA
BRANCH  22  25
ATOM     25  C   UNL     1       4.690   0.778  -2.051  0.00  0.00    +0.183 C 
BRANCH  25  26
ATOM     26  C   UNL     1       5.463   0.090  -0.956  0.00  0.00    +0.122 A 
ATOM     27  C   UNL     1       6.781  -0.180  -0.974  0.00  0.00    +0.046 A 
ATOM     28  C   UNL     1       7.083  -0.829   0.246  0.00  0.00    +0.041 A 
ATOM     29  C   UNL     1       5.931  -0.916   0.936  0.00  0.00    +0.195 A 
ATOM     30  O   UNL     1       4.955  -0.353   0.205  0.00  0.00    -0.466 OA
ENDBRANCH  25  26
ENDBRANCH  22  25
BRANCH  23  31
ATOM     31  C   UNL     1       6.204  -0.443  -4.112  0.00  0.00    +0.131 C 
BRANCH  31  32
ATOM     32  C   UNL     1       6.759  -1.241  -5.264  0.00  0.00    -0.039 A 
ATOM     33  C   UNL     1       7.348  -2.470  -5.034  0.00  0.00    +0.004 A 
ATOM     34  C   UNL     1       7.857  -3.201  -6.090  0.00  0.00    +0.000 A 
ATOM     35  C   UNL     1       7.777  -2.704  -7.378  0.00  0.00    +0.000 A 
ATOM     36  C   UNL     1       7.187  -1.475  -7.608  0.00  0.00    +0.000 A 
ATOM     37  C   UNL     1       6.674  -0.746  -6.552  0.00  0.00    +0.004 A 
ENDBRANCH  31  32
ENDBRANCH  23  31
ENDBRANCH   1  22
TORSDOF 11
