REMARK  Name = ZINC11786718
REMARK  7 active torsions:
REMARK  status: ('A' for Active; 'I' for Inactive)
REMARK    1  A    between atoms: C_1  and  C_2
REMARK    2  A    between atoms: C_3  and  C_14
REMARK    3  A    between atoms: C_4  and  C_13
REMARK    4  A    between atoms: N_5  and  C_7
REMARK    5  A    between atoms: C_14  and  C_15
REMARK    6  A    between atoms: C_20  and  C_23
REMARK    7  A    between atoms: C_23  and  C_30
REMARK                            x       y       z     vdW  Elec       q    Type
REMARK                         _______ _______ _______ _____ _____    ______ ____
ROOT
ATOM      1  C   UNL     1      -3.059   1.650   1.444  0.00  0.00    +0.220 C 
ATOM      2  O   UNL     1      -2.310   1.899   2.364  0.00  0.00    -0.275 OA
ATOM      3  N   UNL     1      -4.312   1.220   1.692  0.00  0.00    -0.301 N 
ATOM      4  C   UNL     1      -5.233   0.919   0.588  0.00  0.00    +0.108 C 
ATOM      5  C   UNL     1      -6.528   1.704   0.792  0.00  0.00    +0.025 C 
ATOM      6  C   UNL     1      -7.092   1.400   2.182  0.00  0.00    +0.024 C 
ATOM      7  C   UNL     1      -6.087   1.837   3.249  0.00  0.00    +0.025 C 
ATOM      8  C   UNL     1      -4.785   1.049   3.073  0.00  0.00    +0.108 C 
ENDROOT
BRANCH   6   9
ATOM      9  C   UNL     1      -8.405   2.160   2.377  0.00  0.00    +0.112 C 
ATOM     10  C   UNL     1      -8.239   3.618   1.997  0.00  0.00    +0.244 C 
ATOM     11  O   UNL     1      -7.492   4.427   2.506  0.00  0.00    -0.273 OA
ATOM     12  N   UNL     1      -9.093   3.829   0.976  0.00  0.00    -0.238 N 
ATOM     13  C   UNL     1      -9.769   2.718   0.661  0.00  0.00    +0.307 C 
ATOM     14  O   UNL     1     -10.597   2.660  -0.227  0.00  0.00    -0.252 OA
ATOM     15  N   UNL     1      -9.431   1.673   1.437  0.00  0.00    -0.285 N 
ATOM     16  C   UNL     1      -8.893   2.029   3.821  0.00  0.00    +0.042 C 
ATOM     17  H   UNL     1      -9.204   4.681   0.525  0.00  0.00    +0.159 HD
ATOM     18  H   UNL     1      -9.791   0.774   1.388  0.00  0.00    +0.151 HD
ENDBRANCH   6   9
BRANCH   1  19
ATOM     19  C   UNL     1      -2.589   1.820   0.022  0.00  0.00    +0.134 C 
BRANCH  19  22
ATOM     20  C   UNL     1       0.002  -0.004   0.002  0.00  0.00    +0.068 C 
ATOM     21  C   UNL     1      -0.018   1.503   0.010  0.00  0.00    +0.064 A 
ATOM     22  C   UNL     1      -1.163   2.307   0.019  0.00  0.00    +0.005 A 
ATOM     23  C   UNL     1      -0.764   3.600   0.029  0.00  0.00    +0.046 A 
ATOM     24  N   UNL     1       0.589   3.613   0.016  0.00  0.00    -0.236 N 
ATOM     25  N   UNL     1       1.032   2.284   0.004  0.00  0.00    -0.171 NA
ATOM     26  C   UNL     1      -1.664   4.809   0.043  0.00  0.00    +0.066 C 
BRANCH  24  27
ATOM     27  C   UNL     1       1.403   4.754   0.015  0.00  0.00    +0.066 A 
ATOM     28  C   UNL     1       1.002   5.894  -0.669  0.00  0.00    +0.028 A 
ATOM     29  C   UNL     1       1.804   7.018  -0.665  0.00  0.00    +0.002 A 
ATOM     30  C   UNL     1       3.010   7.006   0.011  0.00  0.00    +0.000 A 
ATOM     31  C   UNL     1       3.415   5.870   0.689  0.00  0.00    +0.002 A 
ATOM     32  C   UNL     1       2.615   4.745   0.692  0.00  0.00    +0.028 A 
ENDBRANCH  24  27
ENDBRANCH  19  22
ENDBRANCH   1  19
TORSDOF 4
