REMARK  Name = ZINC45565505
REMARK  8 active torsions:
REMARK  status: ('A' for Active; 'I' for Inactive)
REMARK    1  A    between atoms: C_1  and  C_2
REMARK    2  A    between atoms: C_5  and  C_8
REMARK    3  A    between atoms: C_8  and  C_10
REMARK    4  A    between atoms: C_8  and  N_16
REMARK    5  A    between atoms: N_19  and  N_20
REMARK    6  A    between atoms: C_21  and  C_23
REMARK    7  A    between atoms: C_25  and  C_29
REMARK    8  A    between atoms: C_27  and  C_28
REMARK                            x       y       z     vdW  Elec       q    Type
REMARK                         _______ _______ _______ _____ _____    ______ ____
ROOT
ATOM      1  N   UNL     1       0.959  -4.758   1.029  0.00  0.00    -0.287 N 
ATOM      2  C   UNL     1       1.534  -5.972   0.919  0.00  0.00    +0.317 C 
ATOM      3  O   UNL     1       1.306  -6.667  -0.053  0.00  0.00    -0.251 OA
ATOM      4  N   UNL     1       2.362  -6.416   1.885  0.00  0.00    -0.218 N 
ATOM      5  H   UNL     1       1.142  -4.204   1.804  0.00  0.00    +0.151 HD
ATOM      6  H   UNL     1       2.776  -7.290   1.806  0.00  0.00    +0.174 HD
ENDROOT
BRANCH   4   7
ATOM      7  N   UNL     1       2.625  -5.615   3.004  0.00  0.00    -0.229 N 
ATOM      8  C   UNL     1       3.453  -6.059   3.971  0.00  0.00    +0.263 C 
ATOM      9  O   UNL     1       3.972  -7.155   3.871  0.00  0.00    -0.269 OA
ATOM     10  H   UNL     1       2.212  -4.742   3.084  0.00  0.00    +0.173 HD
BRANCH   8  11
ATOM     11  C   UNL     1       3.730  -5.217   5.148  0.00  0.00    +0.079 A 
ATOM     12  C   UNL     1       3.188  -3.880   5.432  0.00  0.00    +0.057 A 
ATOM     13  C   UNL     1       3.717  -3.510   6.608  0.00  0.00    +0.103 A 
ATOM     14  O   UNL     1       4.519  -4.487   7.057  0.00  0.00    -0.464 OA
ATOM     15  C   UNL     1       4.538  -5.518   6.205  0.00  0.00    +0.114 A 
ATOM     16  C   UNL     1       5.321  -6.793   6.382  0.00  0.00    +0.087 C 
ATOM     17  C   UNL     1       3.453  -2.204   7.312  0.00  0.00    +0.086 C 
ENDBRANCH   8  11
ENDBRANCH   4   7
BRANCH   1  18
ATOM     18  C   UNL     1       0.059  -4.275  -0.021  0.00  0.00    +0.135 C 
BRANCH  18  23
ATOM     19  C   UNL     1      -0.018   1.503   0.010  0.00  0.00    +0.044 C 
ATOM     20  C   UNL     1       0.002  -0.004   0.002  0.00  0.00    -0.050 A 
ATOM     21  C   UNL     1       0.006  -0.689  -1.199  0.00  0.00    +0.004 A 
ATOM     22  C   UNL     1       0.025  -2.071  -1.206  0.00  0.00    +0.006 A 
ATOM     23  C   UNL     1       0.040  -2.768  -0.013  0.00  0.00    -0.023 A 
ATOM     24  C   UNL     1       0.037  -2.084   1.188  0.00  0.00    +0.006 A 
ATOM     25  C   UNL     1       0.023  -0.702   1.195  0.00  0.00    +0.004 A 
ENDBRANCH  18  23
BRANCH  18  26
ATOM     26  C   UNL     1      -1.332  -4.797   0.230  0.00  0.00    -0.023 A 
ATOM     27  C   UNL     1      -1.831  -4.840   1.518  0.00  0.00    +0.006 A 
ATOM     28  C   UNL     1      -3.108  -5.318   1.749  0.00  0.00    +0.000 A 
ATOM     29  C   UNL     1      -3.884  -5.754   0.692  0.00  0.00    +0.000 A 
ATOM     30  C   UNL     1      -3.385  -5.710  -0.597  0.00  0.00    +0.000 A 
ATOM     31  C   UNL     1      -2.110  -5.228  -0.828  0.00  0.00    +0.006 A 
ENDBRANCH  18  26
ENDBRANCH   1  18
TORSDOF 5
