REMARK  Name = ZINC02202879
REMARK  9 active torsions:
REMARK  status: ('A' for Active; 'I' for Inactive)
REMARK    1  A    between atoms: C_1  and  C_2
REMARK    2  A    between atoms: C_5  and  O_11
REMARK    3  A    between atoms: C_6  and  C_8
REMARK    4  A    between atoms: C_8  and  C_9
REMARK    5  A    between atoms: O_11  and  C_12
REMARK    6  A    between atoms: C_20  and  C_22
REMARK    7  A    between atoms: C_26  and  O_29
REMARK    8  A    between atoms: C_27  and  O_28
REMARK    9  A    between atoms: O_29  and  C_30
REMARK                            x       y       z     vdW  Elec       q    Type
REMARK                         _______ _______ _______ _____ _____    ______ ____
ROOT
ATOM      1  C   UNL     1      -0.739  -4.929  -1.314  0.00  0.00    +0.232 A 
ATOM      2  C   UNL     1      -0.080  -6.182  -1.293  0.00  0.00    +0.062 A 
ATOM      3  C   UNL     1      -0.046  -6.984  -0.146  0.00  0.00    +0.015 A 
ATOM      4  C   UNL     1       0.603  -8.182  -0.183  0.00  0.00    +0.001 A 
ATOM      5  C   UNL     1       1.232  -8.620  -1.346  0.00  0.00    +0.002 A 
ATOM      6  C   UNL     1       1.218  -7.863  -2.479  0.00  0.00    +0.028 A 
ATOM      7  C   UNL     1       0.560  -6.625  -2.477  0.00  0.00    +0.078 A 
ATOM      8  N   UNL     1       0.516  -5.845  -3.565  0.00  0.00    -0.227 NA
ATOM      9  C   UNL     1      -0.113  -4.684  -3.530  0.00  0.00    +0.168 A 
ATOM     10  N   UNL     1      -0.731  -4.234  -2.438  0.00  0.00    -0.192 NA
ENDROOT
BRANCH   9  11
ATOM     11  C   UNL     1      -0.137  -3.852  -4.754  0.00  0.00    +0.064 A 
ATOM     12  C   UNL     1      -0.350  -4.444  -6.000  0.00  0.00    +0.015 A 
ATOM     13  C   UNL     1      -0.372  -3.667  -7.138  0.00  0.00    +0.004 A 
ATOM     14  C   UNL     1      -0.183  -2.298  -7.054  0.00  0.00    +0.049 A 
ATOM     15  C   UNL     1       0.029  -1.697  -5.824  0.00  0.00    +0.162 A 
ATOM     16  C   UNL     1       0.047  -2.470  -4.667  0.00  0.00    +0.169 A 
BRANCH  16  17
ATOM     17  O   UNL     1       0.249  -1.883  -3.458  0.00  0.00    -0.503 OA
ATOM     18  H   UNL     1       1.169  -1.905  -3.159  0.00  0.00    +0.292 HD
ENDBRANCH  16  17
BRANCH  15  19
ATOM     19  O   UNL     1       0.215  -0.352  -5.747  0.00  0.00    -0.491 OA
ATOM     20  C   UNL     1       0.178   0.379  -6.974  0.00  0.00    +0.277 C 
ENDBRANCH  15  19
ENDBRANCH   9  11
BRANCH   1  21
ATOM     21  O   UNL     1      -1.366  -4.457  -0.211  0.00  0.00    -0.437 OA
BRANCH  21  26
ATOM     22  C   UNL     1      -6.686  -2.690  -0.748  0.00  0.00    +0.044 C 
ATOM     23  C   UNL     1      -5.263  -3.163  -0.604  0.00  0.00    -0.050 A 
ATOM     24  C   UNL     1      -4.625  -3.766  -1.673  0.00  0.00    +0.007 A 
ATOM     25  C   UNL     1      -3.320  -4.201  -1.544  0.00  0.00    +0.047 A 
ATOM     26  C   UNL     1      -2.649  -4.031  -0.341  0.00  0.00    +0.134 A 
ATOM     27  C   UNL     1      -3.292  -3.425   0.729  0.00  0.00    -0.001 A 
ATOM     28  C   UNL     1      -4.595  -2.988   0.593  0.00  0.00    +0.011 A 
BRANCH  27  29
ATOM     29  C   UNL     1      -2.566  -3.239   2.037  0.00  0.00    +0.065 C 
BRANCH  29  30
ATOM     30  C   UNL     1      -1.760  -1.966   1.987  0.00  0.00    -0.030 C 
ATOM     31  C   UNL     1      -1.926  -1.049   2.908  0.00  0.00    +0.004 C 
ENDBRANCH  29  30
ENDBRANCH  27  29
ENDBRANCH  21  26
ENDBRANCH   1  21
TORSDOF 7
