REMARK  Name = ZINC09915629
REMARK  14 active torsions:
REMARK  status: ('A' for Active; 'I' for Inactive)
REMARK    1  A    between atoms: C_1  and  C_2
REMARK    2  A    between atoms: C_11  and  O_13
REMARK    3  A    between atoms: O_13  and  C_14
REMARK    4  A    between atoms: C_14  and  C_32
REMARK    5  A    between atoms: C_15  and  C_27
REMARK    6  A    between atoms: C_15  and  N_28
REMARK    7  A    between atoms: C_16  and  C_25
REMARK    8  A    between atoms: C_16  and  O_26
REMARK    9  A    between atoms: C_17  and  C_23
REMARK   10  A    between atoms: C_17  and  O_24
REMARK   11  A    between atoms: C_18  and  C_20
REMARK   12  A    between atoms: C_18  and  C_21
REMARK   13  A    between atoms: C_21  and  O_22
REMARK   14  A    between atoms: C_29  and  C_31
REMARK                            x       y       z     vdW  Elec       q    Type
REMARK                         _______ _______ _______ _____ _____    ______ ____
ROOT
ATOM      1  C   UNL     1      -2.482   0.181   1.244  0.00  0.00    +0.234 C 
ATOM      2  C   UNL     1      -2.538   1.110   0.037  0.00  0.00    +0.128 C 
ATOM      3  C   UNL     1      -3.684   2.109   0.123  0.00  0.00    +0.121 C 
ATOM      4  C   UNL     1      -5.009   1.452   0.480  0.00  0.00    +0.124 C 
ATOM      5  C   UNL     1      -4.895   0.522   1.683  0.00  0.00    +0.125 C 
ATOM      6  O   UNL     1      -3.744  -0.284   1.653  0.00  0.00    -0.326 OA
ATOM      7  C   UNL     1      -4.968   1.340   2.979  0.00  0.00    +0.047 C 
ATOM      8  C   UNL     1      -6.029   2.557   0.816  0.00  0.00    +0.047 C 
ATOM      9  C   UNL     1      -3.835   2.793  -1.250  0.00  0.00    +0.047 C 
ATOM     10  C   UNL     1      -2.654   0.278  -1.245  0.00  0.00    +0.041 C 
ATOM     11  C   UNL     1      -1.740   0.870   2.396  0.00  0.00    +0.091 C 
ENDROOT
BRANCH   2  12
ATOM     12  N   UNL     1      -1.269   1.861  -0.027  0.00  0.00    -0.302 N 
ATOM     13  C   UNL     1      -0.099   1.200  -0.122  0.00  0.00    +0.211 C 
ATOM     14  O   UNL     1      -0.088  -0.012  -0.155  0.00  0.00    -0.276 OA
ATOM     15  C   UNL     1       1.196   1.967  -0.194  0.00  0.00    +0.109 C 
ATOM     16  H   UNL     1      -1.278   2.831  -0.000  0.00  0.00    +0.150 HD
ENDBRANCH   2  12
BRANCH   4  17
ATOM     17  O   UNL     1      -5.516   0.717  -0.641  0.00  0.00    -0.383 OA
ATOM     18  H   UNL     1      -6.360   0.276  -0.473  0.00  0.00    +0.210 HD
ENDBRANCH   4  17
BRANCH   3  19
ATOM     19  O   UNL     1      -3.370   3.129   1.080  0.00  0.00    -0.384 OA
ATOM     20  H   UNL     1      -4.061   3.798   1.182  0.00  0.00    +0.210 HD
ENDBRANCH   3  19
BRANCH   1  21
ATOM     21  O   UNL     1      -1.688  -0.968   0.864  0.00  0.00    -0.459 OA
BRANCH  21  32
ATOM     22  C   UNL     1      -0.326  -6.279   4.362  0.00  0.00    +0.045 C 
ATOM     23  C   UNL     1      -1.203  -5.080   4.617  0.00  0.00    -0.033 A 
ATOM     24  C   UNL     1      -1.907  -4.963   5.773  0.00  0.00    +0.096 A 
ATOM     25  C   UNL     1      -2.720  -3.832   5.988  0.00  0.00    +0.337 A 
ATOM     26  O   UNL     1      -3.346  -3.740   7.029  0.00  0.00    -0.245 OA
ATOM     27  O   UNL     1      -2.824  -2.854   5.074  0.00  0.00    -0.422 OA
ATOM     28  C   UNL     1      -2.152  -2.908   3.904  0.00  0.00    +0.143 A 
ATOM     29  C   UNL     1      -1.321  -4.009   3.624  0.00  0.00    +0.021 A 
ATOM     30  C   UNL     1      -0.623  -4.070   2.413  0.00  0.00    +0.015 A 
ATOM     31  C   UNL     1      -0.751  -3.058   1.505  0.00  0.00    +0.046 A 
ATOM     32  C   UNL     1      -1.572  -1.966   1.777  0.00  0.00    +0.128 A 
ATOM     33  C   UNL     1      -2.266  -1.887   2.973  0.00  0.00    +0.092 A 
ENDBRANCH  21  32
ENDBRANCH   1  21
BRANCH   5  34
ATOM     34  C   UNL     1      -6.130  -0.409   1.668  0.00  0.00    +0.193 C 
BRANCH  34  35
ATOM     35  O   UNL     1      -6.128  -1.223   2.842  0.00  0.00    -0.392 OA
ATOM     36  H   UNL     1      -6.876  -1.833   2.899  0.00  0.00    +0.210 HD
ENDBRANCH  34  35
ENDBRANCH   5  34
TORSDOF 7
