REMARK  Name = ZINC58997538
REMARK  8 active torsions:
REMARK  status: ('A' for Active; 'I' for Inactive)
REMARK    1  A    between atoms: C_3  and  O_31
REMARK    2  A    between atoms: C_4  and  C_10
REMARK    3  A    between atoms: C_6  and  N_7
REMARK    4  A    between atoms: N_11  and  N_12
REMARK    5  A    between atoms: C_15  and  S_18
REMARK    6  A    between atoms: S_18  and  C_19
REMARK    7  A    between atoms: C_19  and  C_20
REMARK    8  A    between atoms: N_22  and  C_23
REMARK                            x       y       z     vdW  Elec       q    Type
REMARK                         _______ _______ _______ _____ _____    ______ ____
ROOT
ATOM      1  N   UNL     1       5.894  -0.660  -0.035  0.00  0.00    -0.205 N 
ATOM      2  C   UNL     1       7.058   0.021  -0.046  0.00  0.00    +0.232 A 
ATOM      3  N   UNL     1       7.199   1.344  -0.045  0.00  0.00    -0.186 NA
ATOM      4  C   UNL     1       8.501   1.606  -0.059  0.00  0.00    +0.211 A 
ATOM      5  N   UNL     1       9.167   0.448  -0.070  0.00  0.00    -0.144 NA
ATOM      6  N   UNL     1       8.318  -0.521  -0.057  0.00  0.00    -0.245 N 
ATOM      7  H   UNL     1       5.899  -1.630  -0.033  0.00  0.00    +0.177 HD
ATOM      8  H   UNL     1       8.531  -1.467  -0.056  0.00  0.00    +0.192 HD
ENDROOT
BRANCH   1  10
ATOM      9  C   UNL     1       3.624  -0.692  -0.014  0.00  0.00    +0.142 C 
ATOM     10  N   UNL     1       4.773  -0.021  -0.026  0.00  0.00    -0.187 NA
BRANCH   9  14
ATOM     11  C   UNL     1      -0.016   1.385   0.012  0.00  0.00    +0.036 A 
ATOM     12  C   UNL     1       1.153   2.119   0.001  0.00  0.00    +0.048 A 
ATOM     13  C   UNL     1       2.379   1.470  -0.008  0.00  0.00    +0.126 A 
ATOM     14  C   UNL     1       2.403   0.004  -0.005  0.00  0.00    +0.038 A 
ATOM     15  C   UNL     1       1.176  -0.695   0.007  0.00  0.00    +0.045 A 
ATOM     16  C   UNL     1       0.003  -0.006   0.015  0.00  0.00    +0.127 A 
BRANCH  16  17
ATOM     17  N   UNL     1      -1.277  -0.750   0.027  0.00  0.00    +0.056 N 
ATOM     18  O   UNL     1      -2.420  -0.095   0.035  0.00  0.00    -0.126 OA
ATOM     19  O   UNL     1      -1.273  -2.067   0.030  0.00  0.00    -0.126 OA
ENDBRANCH  16  17
BRANCH  13  20
ATOM     20  O   UNL     1       3.533   2.177  -0.019  0.00  0.00    -0.506 OA
ATOM     21  H   UNL     1       3.876   2.385   0.861  0.00  0.00    +0.292 HD
ENDBRANCH  13  20
ENDBRANCH   9  14
ENDBRANCH   1  10
BRANCH   4  22
ATOM     22  S   UNL     1       9.227   3.211  -0.064  0.00  0.00    -0.075 S 
BRANCH  22  23
ATOM     23  C   UNL     1      11.012   2.885  -0.085  0.00  0.00    +0.173 C 
BRANCH  23  24
ATOM     24  C   UNL     1      11.761   4.193  -0.091  0.00  0.00    +0.227 C 
ATOM     25  O   UNL     1      11.152   5.241  -0.082  0.00  0.00    -0.275 OA
ATOM     26  N   UNL     1      13.109   4.197  -0.107  0.00  0.00    -0.285 N 
ATOM     27  H   UNL     1      13.597   3.361  -0.047  0.00  0.00    +0.155 HD
BRANCH  26  28
ATOM     28  C   UNL     1      13.804   5.407  -0.210  0.00  0.00    +0.036 A 
ATOM     29  C   UNL     1      14.992   5.468  -0.926  0.00  0.00    +0.043 A 
ATOM     30  C   UNL     1      15.676   6.665  -1.026  0.00  0.00    +0.044 A 
ATOM     31  C   UNL     1      15.178   7.802  -0.414  0.00  0.00    +0.040 A 
ATOM     32  C   UNL     1      13.994   7.744   0.300  0.00  0.00    +0.044 A 
ATOM     33  C   UNL     1      13.303   6.550   0.399  0.00  0.00    +0.043 A 
ATOM     34 CL   UNL     1      13.373   9.172   1.067  0.00  0.00    -0.083 Cl
ATOM     35 CL   UNL     1      17.162   6.742  -1.921  0.00  0.00    -0.083 Cl
ENDBRANCH  26  28
ENDBRANCH  23  24
ENDBRANCH  22  23
ENDBRANCH   4  22
TORSDOF 8
