REMARK  Name = ZINC49118700
REMARK  5 active torsions:
REMARK  status: ('A' for Active; 'I' for Inactive)
REMARK    1  A    between atoms: C_1  and  C_2
REMARK    2  A    between atoms: C_2  and  C_3
REMARK    3  A    between atoms: C_9  and  N_11
REMARK    4  A    between atoms: N_11  and  C_12
REMARK    5  A    between atoms: C_17  and  N_18
REMARK                            x       y       z     vdW  Elec       q    Type
REMARK                         _______ _______ _______ _____ _____    ______ ____
ROOT
ATOM      1  C   UNL     1      -1.136  -3.714   0.914  0.00  0.00    +0.050 A 
ATOM      2  C   UNL     1      -0.186  -4.587   0.404  0.00  0.00    +0.051 A 
ATOM      3  C   UNL     1      -0.570  -5.840  -0.043  0.00  0.00    +0.078 A 
ATOM      4  C   UNL     1      -1.908  -6.225   0.018  0.00  0.00    +0.144 A 
ATOM      5  C   UNL     1      -2.857  -5.355   0.527  0.00  0.00    +0.072 A 
ATOM      6  C   UNL     1      -2.473  -4.101   0.981  0.00  0.00    +0.049 A 
ATOM      7  O   UNL     1      -2.270  -7.459  -0.428  0.00  0.00    -0.481 OA
ATOM      8  C   UNL     1      -1.523  -7.992  -1.525  0.00  0.00    +0.325 C 
ATOM      9  C   UNL     1      -0.049  -7.804  -1.272  0.00  0.00    +0.255 C 
ATOM     10  O   UNL     1       0.751  -8.607  -1.703  0.00  0.00    -0.272 OA
ATOM     11  N   UNL     1       0.378  -6.737  -0.561  0.00  0.00    -0.280 N 
ATOM     12  H   UNL     1       1.326  -6.592  -0.412  0.00  0.00    +0.155 HD
ENDROOT
BRANCH   6  13
ATOM     13  N   UNL     1      -3.432  -3.221   1.502  0.00  0.00    -0.356 N 
ATOM     14  H   UNL     1      -3.165  -2.343   1.816  0.00  0.00    +0.142 HD
ATOM     15  H   UNL     1      -4.363  -3.490   1.548  0.00  0.00    +0.142 HD
ENDBRANCH   6  13
BRANCH   1  16
ATOM     16  N   UNL     1      -0.750  -2.444   1.369  0.00  0.00    -0.339 N 
ATOM     17  H   UNL     1      -1.414  -1.836   1.729  0.00  0.00    +0.146 HD
BRANCH  16  23
ATOM     18  C   UNL     1       0.742  -0.511   1.242  0.00  0.00    +0.009 C 
ATOM     19  C   UNL     1       2.210  -0.086   1.169  0.00  0.00    +0.005 C 
ATOM     20  C   UNL     1       2.950  -0.593   2.408  0.00  0.00    +0.000 C 
ATOM     21  C   UNL     1       2.863  -2.119   2.465  0.00  0.00    +0.002 C 
ATOM     22  C   UNL     1       1.395  -2.544   2.538  0.00  0.00    +0.022 C 
ATOM     23  C   UNL     1       0.655  -2.037   1.299  0.00  0.00    +0.074 C 
BRANCH  18  25
ATOM     24  C   UNL     1      -0.019   1.526   0.010  0.00  0.00    +0.004 C 
ATOM     25  C   UNL     1       0.002  -0.004   0.002  0.00  0.00    +0.002 C 
ENDBRANCH  18  25
ENDBRANCH  16  23
ENDBRANCH   1  16
TORSDOF 4
