REMARK  Name = ZINC48650794
REMARK  9 active torsions:
REMARK  status: ('A' for Active; 'I' for Inactive)
REMARK    1  A    between atoms: C_1  and  C_2
REMARK    2  A    between atoms: C_2  and  C_3
REMARK    3  A    between atoms: C_3  and  C_4
REMARK    4  A    between atoms: C_4  and  C_5
REMARK    5  A    between atoms: C_5  and  C_6
REMARK    6  A    between atoms: C_6  and  C_8
REMARK    7  A    between atoms: C_6  and  N_9
REMARK    8  A    between atoms: C_10  and  C_12
REMARK    9  A    between atoms: N_14  and  C_15
REMARK                            x       y       z     vdW  Elec       q    Type
REMARK                         _______ _______ _______ _____ _____    ______ ____
ROOT
ATOM      1  C   UNL     1      -1.550  -6.327   2.260  0.00  0.00    +0.303 C 
ATOM      2  O   UNL     1      -2.404  -5.643   2.786  0.00  0.00    -0.265 OA
ATOM      3  N   UNL     1      -1.864  -7.550   1.788  0.00  0.00    -0.276 N 
ATOM      4  H   UNL     1      -1.204  -8.064   1.297  0.00  0.00    +0.155 HD
ENDROOT
BRANCH   3   5
ATOM      5  C   UNL     1      -3.141  -8.078   2.004  0.00  0.00    +0.056 A 
ATOM      6  C   UNL     1      -3.897  -7.641   3.085  0.00  0.00    +0.072 A 
ATOM      7  C   UNL     1      -5.160  -8.164   3.298  0.00  0.00    +0.144 A 
ATOM      8  C   UNL     1      -5.669  -9.128   2.428  0.00  0.00    +0.077 A 
ATOM      9  C   UNL     1      -4.914  -9.562   1.351  0.00  0.00    +0.048 A 
ATOM     10  C   UNL     1      -3.654  -9.033   1.135  0.00  0.00    +0.064 A 
ATOM     11 CL   UNL     1      -2.709  -9.571  -0.218  0.00  0.00    -0.082 Cl
ATOM     12  N   UNL     1      -6.952  -9.650   2.658  0.00  0.00    -0.280 N 
ATOM     13  C   UNL     1      -7.780  -9.001   3.505  0.00  0.00    +0.255 C 
ATOM     14  O   UNL     1      -8.881  -9.450   3.743  0.00  0.00    -0.272 OA
ATOM     15  C   UNL     1      -7.330  -7.716   4.153  0.00  0.00    +0.325 C 
ATOM     16  O   UNL     1      -5.914  -7.747   4.350  0.00  0.00    -0.481 OA
ATOM     17  H   UNL     1      -7.239 -10.464   2.216  0.00  0.00    +0.155 HD
ENDBRANCH   3   5
BRANCH   1  19
ATOM     18  N   UNL     1       0.160  -4.593   2.610  0.00  0.00    -0.305 N 
ATOM     19  C   UNL     1      -0.153  -5.815   2.138  0.00  0.00    +0.300 C 
ATOM     20  O   UNL     1       0.700  -6.499   1.612  0.00  0.00    -0.265 OA
ATOM     21  H   UNL     1      -0.522  -4.045   3.031  0.00  0.00    +0.149 HD
BRANCH  18  22
ATOM     22  C   UNL     1       1.531  -4.090   2.490  0.00  0.00    +0.070 C 
ATOM     23  C   UNL     1       2.366  -4.598   3.667  0.00  0.00    +0.028 C 
BRANCH  22  24
ATOM     24  C   UNL     1       1.516  -2.560   2.498  0.00  0.00    +0.022 C 
BRANCH  24  25
ATOM     25  C   UNL     1       0.787  -2.050   1.254  0.00  0.00    +0.002 C 
BRANCH  25  26
ATOM     26  C   UNL     1       0.771  -0.520   1.262  0.00  0.00    -0.000 C 
BRANCH  26  28
ATOM     27  C   UNL     1       0.027   1.519   0.026  0.00  0.00    +0.004 C 
ATOM     28  C   UNL     1       0.042  -0.011   0.017  0.00  0.00    -0.003 C 
ENDBRANCH  26  28
ENDBRANCH  25  26
ENDBRANCH  24  25
ENDBRANCH  22  24
ENDBRANCH  18  22
ENDBRANCH   1  19
TORSDOF 7
