REMARK  Name = ZINC39969613
REMARK  8 active torsions:
REMARK  status: ('A' for Active; 'I' for Inactive)
REMARK    1  A    between atoms: C_1  and  C_2
REMARK    2  A    between atoms: C_2  and  C_4
REMARK    3  A    between atoms: C_2  and  N_26
REMARK    4  A    between atoms: C_8  and  S_12
REMARK    5  A    between atoms: N_10  and  C_11
REMARK    6  A    between atoms: S_12  and  C_13
REMARK    7  A    between atoms: C_13  and  C_14
REMARK    8  A    between atoms: C_27  and  C_29
REMARK                            x       y       z     vdW  Elec       q    Type
REMARK                         _______ _______ _______ _____ _____    ______ ____
ROOT
ATOM      1  C   UNL     1       0.742  -0.511   1.242  0.00  0.00    +0.160 C 
ATOM      2  N   UNL     1       0.125   0.029   2.481  0.00  0.00    -0.236 NA
ATOM      3  N   UNL     1       1.199  -0.017   3.476  0.00  0.00    -0.229 NA
ATOM      4  C   UNL     1       2.474  -0.006   2.731  0.00  0.00    +0.200 C 
ATOM      5  N   UNL     1       2.124   0.036   1.290  0.00  0.00    -0.263 NA
ATOM      6  C   UNL     1       3.045  -0.787   0.496  0.00  0.00    +0.109 C 
ATOM      7  H   UNL     1      -0.660  -0.535   2.770  0.00  0.00    +0.142 HD
ATOM      8  H   UNL     1       1.123  -0.842   4.052  0.00  0.00    +0.143 HD
ENDROOT
BRANCH   1  10
ATOM      9  C   UNL     1      -0.019   1.526   0.010  0.00  0.00    +0.031 C 
ATOM     10  C   UNL     1       0.002  -0.004   0.002  0.00  0.00    +0.103 C 
BRANCH  10  11
ATOM     11  N   UNL     1      -1.372  -0.511   0.012  0.00  0.00    -0.306 N 
ATOM     12  C   UNL     1      -2.051  -0.643  -1.145  0.00  0.00    +0.247 C 
ATOM     13  O   UNL     1      -1.522  -0.341  -2.197  0.00  0.00    -0.270 OA
ATOM     14  H   UNL     1      -1.794  -0.752   0.852  0.00  0.00    +0.149 HD
BRANCH  12  15
ATOM     15  C   UNL     1      -3.436  -1.154  -1.134  0.00  0.00    +0.072 A 
ATOM     16  C   UNL     1      -4.049  -1.497   0.073  0.00  0.00    +0.016 A 
ATOM     17  C   UNL     1      -5.343  -1.973   0.076  0.00  0.00    +0.001 A 
ATOM     18  C   UNL     1      -6.036  -2.113  -1.114  0.00  0.00    +0.003 A 
ATOM     19  C   UNL     1      -5.439  -1.777  -2.314  0.00  0.00    +0.039 A 
ATOM     20  C   UNL     1      -4.144  -1.292  -2.333  0.00  0.00    +0.135 A 
ATOM     21  F   UNL     1      -3.562  -0.958  -3.505  0.00  0.00    -0.205 F 
ENDBRANCH  12  15
ENDBRANCH  10  11
ENDBRANCH   1  10
BRANCH   4  22
ATOM     22  S   UNL     1       3.446   1.457   3.182  0.00  0.00    -0.117 S 
BRANCH  22  23
ATOM     23  C   UNL     1       2.363   2.850   2.761  0.00  0.00    +0.146 C 
BRANCH  23  24
ATOM     24  C   UNL     1       3.059   4.146   3.091  0.00  0.00    +0.120 A 
ATOM     25  N   UNL     1       2.401   5.310   2.849  0.00  0.00    -0.310 N 
ATOM     26  H   UNL     1       1.507   5.288   2.474  0.00  0.00    +0.170 HD
ATOM     27  C   UNL     1       2.983   6.500   3.128  0.00  0.00    +0.259 A 
ATOM     28  O   UNL     1       2.405   7.551   2.918  0.00  0.00    -0.267 OA
ATOM     29  C   UNL     1       4.339   6.474   3.696  0.00  0.00    +0.065 A 
ATOM     30  C   UNL     1       5.026   7.643   4.018  0.00  0.00    +0.015 A 
ATOM     31  C   UNL     1       6.295   7.561   4.548  0.00  0.00    +0.001 A 
ATOM     32  C   UNL     1       6.892   6.325   4.761  0.00  0.00    +0.002 A 
ATOM     33  C   UNL     1       6.231   5.159   4.449  0.00  0.00    +0.028 A 
ATOM     34  C   UNL     1       4.944   5.216   3.912  0.00  0.00    +0.078 A 
ATOM     35  N   UNL     1       4.254   4.091   3.596  0.00  0.00    -0.233 NA
ENDBRANCH  23  24
ENDBRANCH  22  23
ENDBRANCH   4  22
TORSDOF 6
