REMARK  Name = ZINC23105923
REMARK  7 active torsions:
REMARK  status: ('A' for Active; 'I' for Inactive)
REMARK    1  A    between atoms: C_1  and  C_2
REMARK    2  A    between atoms: C_2  and  C_4
REMARK    3  A    between atoms: C_2  and  S_13
REMARK    4  A    between atoms: C_4  and  C_6
REMARK    5  A    between atoms: S_13  and  C_14
REMARK    6  A    between atoms: C_17  and  C_21
REMARK    7  A    between atoms: C_18  and  N_20
REMARK                            x       y       z     vdW  Elec       q    Type
REMARK                         _______ _______ _______ _____ _____    ______ ____
ROOT
ATOM      1  S   UNL     1      -2.615   0.893  -0.702  0.00  0.00    -0.075 S 
ENDROOT
BRANCH   1   2
ATOM      2  C   UNL     1      -3.967   2.022  -0.705  0.00  0.00    +0.191 A 
ATOM      3  N   UNL     1      -3.781   3.250  -0.236  0.00  0.00    -0.229 NA
ATOM      4  C   UNL     1      -4.766   4.130  -0.219  0.00  0.00    +0.136 A 
ATOM      5  C   UNL     1      -6.023   3.754  -0.704  0.00  0.00    +0.109 A 
ATOM      6  C   UNL     1      -6.183   2.439  -1.193  0.00  0.00    +0.138 A 
ATOM      7  N   UNL     1      -5.138   1.620  -1.179  0.00  0.00    -0.206 NA
BRANCH   6   8
ATOM      8  N   UNL     1      -7.401   2.015  -1.683  0.00  0.00    -0.342 N 
ATOM      9  H   UNL     1      -7.515   0.989  -2.062  0.00  0.00    +0.144 HD
ATOM     10  H   UNL     1      -8.259   2.703  -1.694  0.00  0.00    +0.144 HD
ENDBRANCH   6   8
BRANCH   5  11
ATOM     11  C   UNL     1      -7.118   4.677  -0.703  0.00  0.00    +0.104 C 
ATOM     12  N   UNL     1      -7.987   5.409  -0.703  0.00  0.00    -0.191 NA
ENDBRANCH   5  11
ENDBRANCH   1   2
BRANCH   1  14
ATOM     13  C   UNL     1      -1.706   2.295   1.460  0.00  0.00    +0.028 C 
ATOM     14  C   UNL     1      -1.330   1.944   0.019  0.00  0.00    +0.122 C 
BRANCH  14  15
ATOM     15  C   UNL     1      -0.014   1.208   0.009  0.00  0.00    +0.176 C 
ATOM     16  O   UNL     1       0.002  -0.004   0.002  0.00  0.00    -0.291 OA
BRANCH  15  17
ATOM     17  C   UNL     1       1.250   1.962   0.001  0.00  0.00    +0.020 A 
ATOM     18  C   UNL     1       1.235   3.360   0.003  0.00  0.00    +0.011 A 
ATOM     19  C   UNL     1       2.423   4.059   0.000  0.00  0.00    +0.002 A 
ATOM     20  C   UNL     1       3.630   3.381  -0.014  0.00  0.00    +0.020 A 
ATOM     21  C   UNL     1       3.654   1.996  -0.022  0.00  0.00    +0.042 A 
ATOM     22  C   UNL     1       2.472   1.282  -0.015  0.00  0.00    +0.031 A 
ATOM     23 CL   UNL     1       5.173   1.156  -0.042  0.00  0.00    -0.084 Cl
ENDBRANCH  15  17
ENDBRANCH  14  15
ENDBRANCH   1  14
TORSDOF 6
