REMARK  Name = ZINC41069217
REMARK  6 active torsions:
REMARK  status: ('A' for Active; 'I' for Inactive)
REMARK    1  A    between atoms: C_1  and  C_2
REMARK    2  A    between atoms: C_3  and  N_18
REMARK    3  A    between atoms: C_4  and  N_8
REMARK    4  A    between atoms: N_5  and  C_7
REMARK    5  A    between atoms: N_8  and  C_9
REMARK    6  A    between atoms: C_9  and  C_10
REMARK                            x       y       z     vdW  Elec       q    Type
REMARK                         _______ _______ _______ _____ _____    ______ ____
ROOT
ATOM      1  C   UNL     1      -0.383   1.587   0.246  0.00  0.00    +0.067 C 
ATOM      2  C   UNL     1      -0.125   0.103   0.203  0.00  0.00    +0.054 A 
ATOM      3  C   UNL     1       0.077  -0.659  -0.954  0.00  0.00    +0.085 A 
ATOM      4  C   UNL     1       0.277  -1.953  -0.572  0.00  0.00    +0.136 A 
ATOM      5  N   UNL     1       0.200  -1.993   0.787  0.00  0.00    -0.275 N 
ATOM      6  N   UNL     1      -0.047  -0.691   1.241  0.00  0.00    -0.299 N 
ATOM      7  C   UNL     1       0.354  -3.185   1.625  0.00  0.00    +0.172 C 
ATOM      8  H   UNL     1      -0.146  -0.424   2.168  0.00  0.00    +0.187 HD
ENDROOT
BRANCH   3   9
ATOM      9  N   UNL     1       0.074  -0.174  -2.282  0.00  0.00    -0.354 N 
ATOM     10  H   UNL     1      -0.077   0.769  -2.454  0.00  0.00    +0.142 HD
ATOM     11  H   UNL     1       0.225  -0.783  -3.021  0.00  0.00    +0.142 HD
ENDBRANCH   3   9
BRANCH   4  12
ATOM     12  N   UNL     1       0.515  -3.038  -1.418  0.00  0.00    -0.324 N 
ATOM     13  H   UNL     1       0.565  -2.903  -2.378  0.00  0.00    +0.148 HD
BRANCH  12  14
ATOM     14  C   UNL     1       0.692  -4.380  -0.858  0.00  0.00    +0.141 C 
BRANCH  14  15
ATOM     15  C   UNL     1       1.081  -5.336  -1.956  0.00  0.00    +0.006 A 
ATOM     16  C   UNL     1       0.128  -6.159  -2.526  0.00  0.00    +0.023 A 
ATOM     17  C   UNL     1       0.485  -7.036  -3.534  0.00  0.00    +0.018 A 
ATOM     18  C   UNL     1       1.796  -7.091  -3.972  0.00  0.00    +0.018 A 
ATOM     19  C   UNL     1       2.750  -6.269  -3.403  0.00  0.00    +0.040 A 
ATOM     20  C   UNL     1       2.392  -5.386  -2.398  0.00  0.00    +0.128 A 
ATOM     21  F   UNL     1       3.323  -4.578  -1.845  0.00  0.00    -0.205 F 
ATOM     22 BR   UNL     1      -0.819  -8.162  -4.312  0.00  0.00    -0.050 Br
ENDBRANCH  14  15
ENDBRANCH  12  14
ENDBRANCH   4  12
TORSDOF 4
