REMARK  Name = ZINC08839332
REMARK  4 active torsions:
REMARK  status: ('A' for Active; 'I' for Inactive)
REMARK    1  A    between atoms: C_3  and  N_6
REMARK    2  A    between atoms: N_9  and  C_10
REMARK    3  A    between atoms: C_10  and  C_11
REMARK    4  A    between atoms: N_14  and  C_18
REMARK                            x       y       z     vdW  Elec       q    Type
REMARK                         _______ _______ _______ _____ _____    ______ ____
ROOT
ATOM      1  C   UNL     1      -0.822   3.346   0.026  0.00  0.00    +0.213 C 
ATOM      2  C   UNL     1       0.719   3.378   0.012  0.00  0.00    +0.163 C 
ATOM      3  N   UNL     1       1.098   1.957   0.002  0.00  0.00    -0.234 N 
ATOM      4  C   UNL     1      -0.014   1.211   0.009  0.00  0.00    +0.408 C 
ATOM      5  O   UNL     1       0.002  -0.004   0.002  0.00  0.00    -0.226 OA
ATOM      6  O   UNL     1      -1.145   1.926   0.018  0.00  0.00    -0.444 OA
ENDROOT
BRANCH   3   7
ATOM      7  C   UNL     1       2.409   1.465  -0.012  0.00  0.00    +0.040 A 
ATOM      8  C   UNL     1       3.483   2.346  -0.024  0.00  0.00    +0.026 A 
ATOM      9  C   UNL     1       4.775   1.858  -0.032  0.00  0.00    +0.040 A 
ATOM     10  C   UNL     1       5.000   0.492  -0.040  0.00  0.00    +0.124 A 
ATOM     11  C   UNL     1       3.931  -0.388  -0.035  0.00  0.00    +0.040 A 
ATOM     12  C   UNL     1       2.638   0.095  -0.021  0.00  0.00    +0.026 A 
ATOM     13  F   UNL     1       6.265   0.017  -0.053  0.00  0.00    -0.205 F 
ENDBRANCH   3   7
BRANCH   1  14
ATOM     14  C   UNL     1      -1.384   4.031  -1.221  0.00  0.00    +0.152 C 
BRANCH  14  18
ATOM     15  N   UNL     1      -4.904   4.716  -2.034  0.00  0.00    -0.264 N 
ATOM     16  C   UNL     1      -3.560   4.659  -2.120  0.00  0.00    +0.304 C 
ATOM     17  O   UNL     1      -2.993   5.116  -3.094  0.00  0.00    -0.252 OA
ATOM     18  N   UNL     1      -2.845   4.093  -1.128  0.00  0.00    -0.296 N 
ATOM     19  H   UNL     1      -5.356   4.351  -1.258  0.00  0.00    +0.157 HD
ATOM     20  H   UNL     1      -3.297   3.728  -0.351  0.00  0.00    +0.150 HD
BRANCH  15  23
ATOM     21  C   UNL     1      -7.509   6.076  -4.294  0.00  0.00    +0.009 A 
ATOM     22  C   UNL     1      -6.995   5.453  -3.171  0.00  0.00    +0.031 A 
ATOM     23  C   UNL     1      -5.646   5.302  -3.064  0.00  0.00    +0.073 A 
ATOM     24  S   UNL     1      -5.071   6.040  -4.585  0.00  0.00    -0.082 S 
ATOM     25  C   UNL     1      -6.658   6.506  -5.256  0.00  0.00    +0.047 A 
ENDBRANCH  15  23
ENDBRANCH  14  18
ENDBRANCH   1  14
TORSDOF 4
