REMARK  Name = ZINC44540789
REMARK  3 active torsions:
REMARK  status: ('A' for Active; 'I' for Inactive)
REMARK    1  A    between atoms: C_5  and  C_11
REMARK    2  A    between atoms: C_18  and  C_20
REMARK    3  A    between atoms: C_20  and  N_21
REMARK                            x       y       z     vdW  Elec       q    Type
REMARK                         _______ _______ _______ _____ _____    ______ ____
ROOT
ATOM      1  C   UNL     1       5.981   0.662   0.094  0.00  0.00    +0.282 C 
ATOM      2  O   UNL     1       6.628   1.676  -0.089  0.00  0.00    -0.267 OA
ATOM      3  N   UNL     1       6.602  -0.533   0.151  0.00  0.00    -0.294 N 
ATOM      4  C   UNL     1       5.825  -1.780   0.189  0.00  0.00    +0.108 C 
ATOM      5  C   UNL     1       6.312  -2.699  -0.936  0.00  0.00    +0.019 C 
ATOM      6  C   UNL     1       7.825  -2.896  -0.809  0.00  0.00    +0.003 C 
ATOM      7  C   UNL     1       8.531  -1.546  -0.949  0.00  0.00    +0.020 C 
ATOM      8  C   UNL     1       8.069  -0.614   0.169  0.00  0.00    +0.059 C 
ENDROOT
BRANCH   1  13
ATOM      9  C   UNL     1       0.018   1.475   0.625  0.00  0.00    +0.002 A 
ATOM     10  C   UNL     1       1.169   2.147   0.322  0.00  0.00    +0.012 A 
ATOM     11  C   UNL     1       2.390   1.470   0.337  0.00  0.00    +0.022 A 
ATOM     12  C   UNL     1       3.775   1.860   0.073  0.00  0.00    +0.063 A 
ATOM     13  C   UNL     1       4.522   0.740   0.253  0.00  0.00    +0.191 A 
ATOM     14  O   UNL     1       3.723  -0.291   0.600  0.00  0.00    -0.449 OA
ATOM     15  C   UNL     1       2.435   0.101   0.662  0.00  0.00    +0.150 A 
ATOM     16  C   UNL     1       1.251  -0.562   0.966  0.00  0.00    +0.061 A 
ATOM     17  C   UNL     1       0.055   0.125   0.947  0.00  0.00    +0.019 A 
ATOM     18 BR   UNL     1       1.280  -2.401   1.406  0.00  0.00    -0.046 Br
ENDBRANCH   1  13
BRANCH   8  19
ATOM     19  C   UNL     1       8.662   0.779  -0.049  0.00  0.00    -0.064 C 
BRANCH  19  20
ATOM     20  N   UNL     1      10.127   0.709   0.049  0.00  0.00    +0.379 N 
ATOM     21  H   UNL     1      10.388   0.430   0.983  0.00  0.00    -0.090 HD
ATOM     22  H   UNL     1      10.476   0.033  -0.614  0.00  0.00    -0.090 HD
ATOM     23  H   UNL     1      10.521   1.615  -0.155  0.00  0.00    -0.090 HD
ENDBRANCH  19  20
ENDBRANCH   8  19
TORSDOF 3
