REMARK  Name = ZINC21714845
REMARK  6 active torsions:
REMARK  status: ('A' for Active; 'I' for Inactive)
REMARK    1  A    between atoms: C_1  and  C_2
REMARK    2  A    between atoms: C_2  and  C_3
REMARK    3  A    between atoms: C_2  and  C_4
REMARK    4  A    between atoms: C_4  and  C_5
REMARK    5  A    between atoms: C_5  and  N_6
REMARK    6  A    between atoms: C_9  and  C_16
REMARK                            x       y       z     vdW  Elec       q    Type
REMARK                         _______ _______ _______ _____ _____    ______ ____
ROOT
ATOM      1  N   UNL     1       0.763   6.060  -2.008  0.00  0.00    -0.328 N 
ATOM      2  C   UNL     1       2.069   6.295  -1.628  0.00  0.00    +0.135 A 
ATOM      3  C   UNL     1       2.728   5.431  -0.752  0.00  0.00    +0.108 A 
ATOM      4  C   UNL     1       2.427   4.203  -0.006  0.00  0.00    +0.126 A 
ATOM      5  N   UNL     1       3.528   3.925   0.649  0.00  0.00    -0.075 NA
ATOM      6  O   UNL     1       4.413   4.726   0.455  0.00  0.00    -0.334 OA
ATOM      7  C   UNL     1       4.060   5.711  -0.385  0.00  0.00    +0.264 A 
ATOM      8  N   UNL     1       4.643   6.786  -0.899  0.00  0.00    -0.198 NA
ATOM      9  C   UNL     1       3.987   7.574  -1.727  0.00  0.00    +0.227 A 
ATOM     10  N   UNL     1       2.739   7.350  -2.092  0.00  0.00    -0.220 NA
ATOM     11  H   UNL     1       0.197   5.234  -1.551  0.00  0.00    +0.147 HD
ENDROOT
BRANCH   4  12
ATOM     12  C   UNL     1       1.156   3.440  -0.001  0.00  0.00    +0.010 A 
ATOM     13  C   UNL     1       0.483   3.194  -1.196  0.00  0.00    +0.048 A 
ATOM     14  C   UNL     1      -0.702   2.482  -1.186  0.00  0.00    +0.127 A 
ATOM     15  C   UNL     1      -1.218   2.009   0.009  0.00  0.00    +0.076 A 
ATOM     16  C   UNL     1      -0.555   2.255   1.200  0.00  0.00    +0.127 A 
ATOM     17  C   UNL     1       0.631   2.966   1.200  0.00  0.00    +0.048 A 
ATOM     18  F   UNL     1      -1.065   1.795   2.364  0.00  0.00    -0.205 F 
ATOM     19  F   UNL     1      -1.355   2.243  -2.344  0.00  0.00    -0.205 F 
ENDBRANCH   4  12
BRANCH   1  20
ATOM     20  C   UNL     1       0.130   6.910  -3.020  0.00  0.00    +0.103 C 
BRANCH  20  21
ATOM     21  C   UNL     1      -1.307   6.439  -3.255  0.00  0.00    +0.021 C 
BRANCH  21  23
ATOM     22  C   UNL     1      -1.256   7.139  -5.653  0.00  0.00    +0.007 C 
ATOM     23  C   UNL     1      -1.968   7.326  -4.312  0.00  0.00    -0.016 C 
ATOM     24  C   UNL     1      -3.440   6.936  -4.457  0.00  0.00    +0.007 C 
ENDBRANCH  21  23
ENDBRANCH  20  21
ENDBRANCH   1  20
TORSDOF 4
