REMARK  Name = ZINC11664309
REMARK  8 active torsions:
REMARK  status: ('A' for Active; 'I' for Inactive)
REMARK    1  A    between atoms: C_1  and  O_2
REMARK    2  A    between atoms: O_2  and  C_3
REMARK    3  A    between atoms: C_3  and  C_4
REMARK    4  A    between atoms: C_4  and  C_5
REMARK    5  A    between atoms: N_7  and  C_8
REMARK    6  A    between atoms: C_17  and  C_18
REMARK    7  A    between atoms: C_17  and  N_52
REMARK    8  A    between atoms: C_21  and  C_23
REMARK                            x       y       z     vdW  Elec       q    Type
REMARK                         _______ _______ _______ _____ _____    ______ ____
ROOT
ATOM      1  C   UNL     1      -1.087  -2.088  -0.091  0.00  0.00    +0.034 A 
ATOM      2  C   UNL     1       0.147  -2.726  -0.105  0.00  0.00    +0.023 A 
ATOM      3  C   UNL     1       0.205  -4.100  -0.201  0.00  0.00    +0.005 A 
ATOM      4  C   UNL     1      -0.960  -4.849  -0.295  0.00  0.00    -0.048 A 
ATOM      5  C   UNL     1      -2.186  -4.218  -0.284  0.00  0.00    -0.059 A 
ATOM      6  C   UNL     1      -2.250  -2.837  -0.184  0.00  0.00    +0.025 A 
ATOM      7  C   UNL     1      -3.477  -4.990  -0.371  0.00  0.00    -0.042 C 
ATOM      8  C   UNL     1      -2.183  -7.003  -0.086  0.00  0.00    -0.073 C 
ATOM      9  C   UNL     1      -0.842  -6.347  -0.415  0.00  0.00    +0.017 C 
ATOM     10  N   UNL     1      -3.221  -6.340  -0.900  0.00  0.00    +0.387 N 
ATOM     11  H   UNL     1      -2.890  -6.265  -1.869  0.00  0.00    -0.081 HD
ENDROOT
BRANCH   1  14
ATOM     12  C   UNL     1      -0.233  -0.024   0.728  0.00  0.00    +0.219 C 
ATOM     13  O   UNL     1       0.599  -0.633   1.365  0.00  0.00    -0.275 OA
ATOM     14  N   UNL     1      -1.156  -0.694   0.009  0.00  0.00    -0.285 N 
ATOM     15  H   UNL     1      -1.867  -0.210  -0.438  0.00  0.00    +0.155 HD
BRANCH  12  16
ATOM     16  C   UNL     1      -0.236   1.483   0.740  0.00  0.00    +0.124 C 
BRANCH  16  17
ATOM     17  C   UNL     1       0.904   1.989   1.625  0.00  0.00    +0.168 C 
BRANCH  17  19
ATOM     18  C   UNL     1       1.934   3.994   2.439  0.00  0.00    +0.194 C 
ATOM     19  O   UNL     1       0.901   3.417   1.637  0.00  0.00    -0.382 OA
ENDBRANCH  17  19
ENDBRANCH  16  17
ENDBRANCH  12  16
ENDBRANCH   1  14
BRANCH  10  20
ATOM     20  C   UNL     1      -4.469  -7.137  -0.878  0.00  0.00    -0.003 C 
BRANCH  20  21
ATOM     21  C   UNL     1      -5.432  -6.567  -1.887  0.00  0.00    +0.089 A 
ATOM     22  C   UNL     1      -5.514  -6.924  -3.183  0.00  0.00    +0.043 A 
ATOM     23  C   UNL     1      -6.540  -6.150  -3.761  0.00  0.00    +0.051 A 
ATOM     24  C   UNL     1      -7.034  -5.354  -2.773  0.00  0.00    +0.153 A 
ATOM     25  O   UNL     1      -6.355  -5.622  -1.641  0.00  0.00    -0.460 OA
BRANCH  24  26
ATOM     26  C   UNL     1      -8.124  -4.373  -2.916  0.00  0.00    +0.101 A 
ATOM     27  C   UNL     1      -8.636  -3.565  -1.922  0.00  0.00    +0.052 A 
ATOM     28  C   UNL     1      -9.649  -2.791  -2.486  0.00  0.00    +0.135 A 
ATOM     29  N   UNL     1      -9.764  -3.107  -3.751  0.00  0.00    -0.182 NA
ATOM     30  N   UNL     1      -8.822  -4.098  -4.056  0.00  0.00    -0.274 N 
ATOM     31  H   UNL     1      -8.686  -4.526  -4.949  0.00  0.00    +0.189 HD
ENDBRANCH  24  26
ENDBRANCH  20  21
ENDBRANCH  10  20
TORSDOF 7
