REMARK  Name = ZINC19817180
REMARK  7 active torsions:
REMARK  status: ('A' for Active; 'I' for Inactive)
REMARK    1  A    between atoms: C_1  and  C_2
REMARK    2  A    between atoms: C_2  and  C_3
REMARK    3  A    between atoms: C_2  and  C_4
REMARK    4  A    between atoms: C_2  and  N_7
REMARK    5  A    between atoms: N_10  and  C_11
REMARK    6  A    between atoms: C_11  and  C_12
REMARK    7  A    between atoms: N_14  and  C_15
REMARK                            x       y       z     vdW  Elec       q    Type
REMARK                         _______ _______ _______ _____ _____    ______ ____
ROOT
ATOM      1  N   UNL     1      -5.909   2.185   0.042  0.00  0.00    -0.284 N 
ATOM      2  C   UNL     1      -4.873   1.323   0.032  0.00  0.00    +0.301 C 
ATOM      3  O   UNL     1      -5.079   0.125   0.027  0.00  0.00    -0.253 OA
ATOM      4  N   UNL     1      -3.608   1.789   0.029  0.00  0.00    -0.291 N 
ATOM      5  H   UNL     1      -5.723   3.269   0.047  0.00  0.00    +0.151 HD
ATOM      6  H   UNL     1      -3.422   2.873   0.034  0.00  0.00    +0.151 HD
ENDROOT
BRANCH   1   8
ATOM      7  C   UNL     1      -7.518   0.831  -1.207  0.00  0.00    +0.043 C 
ATOM      8  C   UNL     1      -7.283   1.678   0.046  0.00  0.00    +0.131 C 
ATOM      9  C   UNL     1      -7.506   0.818   1.291  0.00  0.00    +0.043 C 
BRANCH   8  10
ATOM     10  C   UNL     1      -8.246   2.837   0.057  0.00  0.00    +0.378 C 
ATOM     11  O   UNL     1      -9.295   2.757  -0.539  0.00  0.00    -0.244 OA
ATOM     12  O   UNL     1      -7.940   3.958   0.728  0.00  0.00    -0.244 OA
ENDBRANCH   8  10
ENDBRANCH   1   8
BRANCH   4  13
ATOM     13  C   UNL     1      -2.482   0.853   0.018  0.00  0.00    +0.201 C 
BRANCH  13  14
ATOM     14  C   UNL     1      -1.187   1.624   0.017  0.00  0.00    +0.230 C 
ATOM     15  O   UNL     1      -1.204   2.837   0.023  0.00  0.00    -0.274 OA
ATOM     16  N   UNL     1      -0.011   0.966   0.007  0.00  0.00    -0.311 N 
ATOM     17  H   UNL     1       0.004  -0.134   0.006  0.00  0.00    +0.149 HD
BRANCH  16  18
ATOM     18  C   UNL     1       1.248   1.716  -0.001  0.00  0.00    +0.073 C 
ATOM     19  C   UNL     1       1.608   2.092  -1.439  0.00  0.00    +0.022 C 
ATOM     20  C   UNL     1       2.922   2.875  -1.448  0.00  0.00    +0.002 C 
ATOM     21  C   UNL     1       4.035   2.010  -0.853  0.00  0.00    +0.000 C 
ATOM     22  C   UNL     1       3.675   1.633   0.585  0.00  0.00    +0.002 C 
ATOM     23  C   UNL     1       2.361   0.850   0.594  0.00  0.00    +0.022 C 
ENDBRANCH  16  18
ENDBRANCH  13  14
ENDBRANCH   4  13
TORSDOF 5
