REMARK  Name = ZINC48735808
REMARK  5 active torsions:
REMARK  status: ('A' for Active; 'I' for Inactive)
REMARK    1  A    between atoms: C_1  and  C_2
REMARK    2  A    between atoms: C_6  and  N_21
REMARK    3  A    between atoms: C_7  and  C_8
REMARK    4  A    between atoms: N_12  and  C_13
REMARK    5  A    between atoms: C_13  and  C_14
REMARK                            x       y       z     vdW  Elec       q    Type
REMARK                         _______ _______ _______ _____ _____    ______ ____
ROOT
ATOM      1  C   UNL     1       0.143  -0.047   2.423  0.00  0.00    +0.184 A 
ATOM      2  N   UNL     1       0.115   1.264   2.549  0.00  0.00    -0.108 NA
ATOM      3  N   UNL     1       0.202   1.599   3.786  0.00  0.00    -0.023 NA
ATOM      4  N   UNL     1       0.291   0.550   4.530  0.00  0.00    -0.043 NA
ATOM      5  N   UNL     1       0.251  -0.564   3.673  0.00  0.00    -0.221 N 
ENDROOT
BRANCH   1  12
ATOM      6  C   UNL     1       2.116   0.403   0.357  0.00  0.00    +0.044 C 
ATOM      7  C   UNL     1       1.011  -0.602   0.156  0.00  0.00    -0.038 A 
ATOM      8  C   UNL     1       0.938  -1.322  -1.019  0.00  0.00    +0.004 A 
ATOM      9  C   UNL     1      -0.074  -2.247  -1.209  0.00  0.00    +0.002 A 
ATOM     10  C   UNL     1      -1.021  -2.459  -0.226  0.00  0.00    +0.023 A 
ATOM     11  C   UNL     1      -0.961  -1.744   0.962  0.00  0.00    +0.036 A 
ATOM     12  C   UNL     1       0.066  -0.811   1.160  0.00  0.00    +0.044 A 
BRANCH  11  13
ATOM     13  N   UNL     1      -1.915  -1.956   1.955  0.00  0.00    -0.357 N 
ATOM     14  H   UNL     1      -2.651  -2.567   1.797  0.00  0.00    +0.142 HD
ATOM     15  H   UNL     1      -1.843  -1.492   2.804  0.00  0.00    +0.142 HD
ENDBRANCH  11  13
ENDBRANCH   1  12
BRANCH   5  16
ATOM     16  C   UNL     1       0.313  -1.978   4.049  0.00  0.00    +0.182 C 
BRANCH  16  17
ATOM     17  C   UNL     1       1.753  -2.394   4.202  0.00  0.00    -0.026 A 
ATOM     18  C   UNL     1       2.419  -2.982   3.143  0.00  0.00    +0.006 A 
ATOM     19  C   UNL     1       3.740  -3.363   3.283  0.00  0.00    +0.015 A 
ATOM     20  C   UNL     1       4.396  -3.157   4.483  0.00  0.00    +0.018 A 
ATOM     21  C   UNL     1       3.729  -2.569   5.543  0.00  0.00    +0.015 A 
ATOM     22  C   UNL     1       2.410  -2.183   5.400  0.00  0.00    +0.006 A 
ATOM     23 BR   UNL     1       6.203  -3.679   4.675  0.00  0.00    -0.050 Br
ENDBRANCH  16  17
ENDBRANCH   5  16
TORSDOF 4
