REMARK  Name = ZINC63690803
REMARK  7 active torsions:
REMARK  status: ('A' for Active; 'I' for Inactive)
REMARK    1  A    between atoms: C_1  and  C_2
REMARK    2  A    between atoms: C_5  and  C_8
REMARK    3  A    between atoms: N_10  and  C_11
REMARK    4  A    between atoms: C_19  and  C_21
REMARK    5  A    between atoms: N_23  and  C_24
REMARK    6  A    between atoms: C_24  and  C_25
REMARK    7  A    between atoms: C_25  and  C_26
REMARK                            x       y       z     vdW  Elec       q    Type
REMARK                         _______ _______ _______ _____ _____    ______ ____
ROOT
ATOM      1  C   UNL     1       0.093  -6.396   1.134  0.00  0.00    +0.220 C 
ATOM      2  N   UNL     1      -0.173  -6.941   2.489  0.00  0.00    -0.320 N 
ATOM      3  C   UNL     1       0.481  -8.119   2.745  0.00  0.00    +0.027 C 
ATOM      4  C   UNL     1       1.969  -7.977   2.390  0.00  0.00    +0.094 C 
ATOM      5  S   UNL     1       1.796  -7.036   0.815  0.00  0.00    -0.110 S 
ATOM      6  C   UNL     1       2.428  -9.414   2.095  0.00  0.00    +0.025 C 
ATOM      7  C   UNL     1       1.501 -10.226   3.030  0.00  0.00    +0.043 C 
ATOM      8  C   UNL     1       0.261  -9.377   3.180  0.00  0.00    +0.032 C 
ATOM      9  H   UNL     1      -0.754  -6.505   3.132  0.00  0.00    +0.148 HD
ENDROOT
BRANCH   1  12
ATOM     10  C   UNL     1       0.059  -4.251  -0.021  0.00  0.00    +0.246 C 
ATOM     11  O   UNL     1       0.062  -4.853  -1.077  0.00  0.00    -0.270 OA
ATOM     12  N   UNL     1       0.074  -4.931   1.142  0.00  0.00    -0.284 N 
ATOM     13  H   UNL     1       0.072  -4.451   1.985  0.00  0.00    +0.152 HD
BRANCH  10  18
ATOM     14  C   UNL     1      -0.018   1.503   0.010  0.00  0.00    +0.044 C 
ATOM     15  C   UNL     1       0.002  -0.004   0.002  0.00  0.00    -0.050 A 
ATOM     16  C   UNL     1       0.006  -0.686  -1.202  0.00  0.00    +0.004 A 
ATOM     17  C   UNL     1       0.024  -2.066  -1.216  0.00  0.00    +0.013 A 
ATOM     18  C   UNL     1       0.040  -2.773  -0.013  0.00  0.00    +0.037 A 
ATOM     19  C   UNL     1       0.036  -2.079   1.198  0.00  0.00    +0.013 A 
ATOM     20  C   UNL     1       0.023  -0.699   1.198  0.00  0.00    +0.004 A 
ENDBRANCH  10  18
ENDBRANCH   1  12
BRANCH   8  21
ATOM     21  C   UNL     1      -0.967  -9.839   3.708  0.00  0.00    +0.242 C 
ATOM     22  O   UNL     1      -1.917  -9.082   3.792  0.00  0.00    -0.270 OA
ATOM     23  N   UNL     1      -1.087 -11.118   4.117  0.00  0.00    -0.311 N 
ATOM     24  H   UNL     1      -0.330 -11.722   4.049  0.00  0.00    +0.149 HD
BRANCH  23  25
ATOM     25  C   UNL     1      -2.359 -11.597   4.663  0.00  0.00    +0.109 C 
BRANCH  25  26
ATOM     26  C   UNL     1      -2.226 -13.071   5.048  0.00  0.00    +0.052 C 
BRANCH  26  27
ATOM     27  C   UNL     1      -3.535 -13.564   5.610  0.00  0.00    -0.040 C 
ATOM     28  C   UNL     1      -4.518 -14.206   4.938  0.00  0.00    -0.001 A 
ATOM     29  C   UNL     1      -4.658 -14.622   3.538  0.00  0.00    +0.010 A 
ATOM     30  C   UNL     1      -5.785 -15.262   3.153  0.00  0.00    +0.001 A 
ATOM     31  C   UNL     1      -6.822 -15.537   4.056  0.00  0.00    +0.002 A 
ATOM     32  C   UNL     1      -6.766 -15.187   5.358  0.00  0.00    +0.026 A 
ATOM     33  C   UNL     1      -5.626 -14.509   5.872  0.00  0.00    +0.043 A 
ATOM     34  N   UNL     1      -5.339 -14.071   7.074  0.00  0.00    -0.380 N 
ATOM     35  C   UNL     1      -4.013 -13.445   7.040  0.00  0.00    +0.144 C 
ATOM     36  H   UNL     1      -5.908 -14.151   7.856  0.00  0.00    +0.160 HD
ENDBRANCH  26  27
ENDBRANCH  25  26
ENDBRANCH  23  25
ENDBRANCH   8  21
TORSDOF 6
