REMARK  Name = ZINC36028065
REMARK  12 active torsions:
REMARK  status: ('A' for Active; 'I' for Inactive)
REMARK    1  A    between atoms: C_1  and  C_2
REMARK    2  A    between atoms: C_2  and  C_3
REMARK    3  A    between atoms: C_3  and  N_4
REMARK    4  A    between atoms: N_4  and  C_5
REMARK    5  A    between atoms: C_5  and  N_7
REMARK    6  A    between atoms: C_14  and  C_32
REMARK    7  A    between atoms: N_18  and  C_19
REMARK    8  A    between atoms: N_22  and  C_25
REMARK    9  A    between atoms: C_25  and  C_26
REMARK   10  A    between atoms: C_32  and  C_34
REMARK   11  A    between atoms: C_32  and  C_35
REMARK   12  A    between atoms: C_35  and  C_36
REMARK                            x       y       z     vdW  Elec       q    Type
REMARK                         _______ _______ _______ _____ _____    ______ ____
ROOT
ATOM      1  N   UNL     1       0.828  -4.198  -1.283  0.00  0.00    -0.313 N 
ATOM      2  C   UNL     1       0.076  -5.291  -0.652  0.00  0.00    +0.107 C 
ATOM      3  C   UNL     1       1.053  -6.413  -0.283  0.00  0.00    +0.025 C 
ATOM      4  C   UNL     1       1.848  -6.820  -1.522  0.00  0.00    +0.006 C 
ATOM      5  C   UNL     1       2.645  -5.631  -2.055  0.00  0.00    +0.025 C 
ATOM      6  C   UNL     1       1.677  -4.502  -2.443  0.00  0.00    +0.107 C 
ATOM      7  N   UNL     1       2.768  -7.926  -1.183  0.00  0.00    +0.401 N 
ATOM      8  C   UNL     1       2.800  -8.730  -2.429  0.00  0.00    +0.022 C 
ATOM      9  C   UNL     1       1.478  -8.444  -3.107  0.00  0.00    +0.201 C 
ATOM     10  O   UNL     1       0.980  -9.103  -3.995  0.00  0.00    -0.277 OA
ATOM     11  N   UNL     1       0.947  -7.332  -2.558  0.00  0.00    -0.311 N 
ATOM     12  H   UNL     1       3.687  -7.571  -0.964  0.00  0.00    -0.082 HD
ATOM     13  H   UNL     1       2.403  -8.471  -0.416  0.00  0.00    -0.082 HD
ENDROOT
BRANCH  11  14
ATOM     14  C   UNL     1      -0.334  -6.730  -2.938  0.00  0.00    +0.071 C 
ATOM     15  C   UNL     1      -1.468  -7.410  -2.166  0.00  0.00    +0.004 C 
ATOM     16  C   UNL     1      -2.808  -6.832  -2.625  0.00  0.00    -0.077 C 
ATOM     17  N   UNL     1      -2.981  -7.070  -4.063  0.00  0.00    +0.382 N 
ATOM     18  C   UNL     1      -1.938  -6.362  -4.815  0.00  0.00    -0.077 C 
ATOM     19  C   UNL     1      -0.564  -6.922  -4.439  0.00  0.00    +0.004 C 
ATOM     20  H   UNL     1      -2.915  -8.060  -4.249  0.00  0.00    -0.081 HD
BRANCH  17  21
ATOM     21  C   UNL     1      -4.302  -6.583  -4.484  0.00  0.00    -0.043 C 
BRANCH  21  22
ATOM     22  C   UNL     1      -4.530  -6.937  -5.931  0.00  0.00    -0.064 A 
ATOM     23  C   UNL     1      -4.140  -6.062  -6.926  0.00  0.00    +0.002 A 
ATOM     24  C   UNL     1      -4.350  -6.386  -8.254  0.00  0.00    +0.000 A 
ATOM     25  C   UNL     1      -4.949  -7.587  -8.585  0.00  0.00    +0.000 A 
ATOM     26  C   UNL     1      -5.338  -8.464  -7.589  0.00  0.00    +0.000 A 
ATOM     27  C   UNL     1      -5.125  -8.141  -6.262  0.00  0.00    +0.002 A 
ENDBRANCH  21  22
ENDBRANCH  17  21
ENDBRANCH  11  14
BRANCH   1  28
ATOM     28  C   UNL     1       0.735  -2.939  -0.811  0.00  0.00    +0.133 C 
ATOM     29  S   UNL     1      -0.152  -2.624   0.619  0.00  0.00    -0.019 S 
BRANCH  28  30
ATOM     30  N   UNL     1       1.341  -1.928  -1.465  0.00  0.00    -0.326 N 
ATOM     31  H   UNL     1       1.903  -2.115  -2.234  0.00  0.00    +0.148 HD
BRANCH  30  32
ATOM     32  C   UNL     1       1.151  -0.547  -1.016  0.00  0.00    +0.103 C 
BRANCH  32  34
ATOM     33  C   UNL     1       1.743   1.841  -1.453  0.00  0.00    +0.005 C 
ATOM     34  C   UNL     1       1.941   0.398  -1.923  0.00  0.00    +0.015 C 
ENDBRANCH  32  34
ENDBRANCH  30  32
ENDBRANCH  28  30
ENDBRANCH   1  28
BRANCH   8  35
ATOM     35  C   UNL     1       2.921 -10.219  -2.099  0.00  0.00    -0.020 C 
ATOM     36  C   UNL     1       4.212 -10.464  -1.313  0.00  0.00    +0.006 C 
BRANCH  35  37
ATOM     37  C   UNL     1       2.953 -11.028  -3.397  0.00  0.00    -0.001 C 
ATOM     38  C   UNL     1       2.948 -12.522  -3.067  0.00  0.00    +0.004 C 
ENDBRANCH  35  37
ENDBRANCH   8  35
TORSDOF 9
