REMARK  Name = ZINC11173695
REMARK  7 active torsions:
REMARK  status: ('A' for Active; 'I' for Inactive)
REMARK    1  A    between atoms: C_1  and  C_2
REMARK    2  A    between atoms: C_3  and  C_29
REMARK    3  A    between atoms: C_7  and  N_20
REMARK    4  A    between atoms: C_9  and  C_11
REMARK    5  A    between atoms: C_11  and  S_12
REMARK    6  A    between atoms: S_12  and  C_13
REMARK    7  A    between atoms: C_23  and  C_26
REMARK                            x       y       z     vdW  Elec       q    Type
REMARK                         _______ _______ _______ _____ _____    ______ ____
ROOT
ATOM      1  C   UNL     1       0.954   1.494   2.929  0.00  0.00    +0.045 C 
ATOM      2  C   UNL     1       0.161   2.169   4.018  0.00  0.00    -0.028 A 
ATOM      3  C   UNL     1       0.433   1.922   5.308  0.00  0.00    -0.008 A 
ATOM      4  S   UNL     1      -0.746   2.933   6.184  0.00  0.00    -0.074 S 
ATOM      5  C   UNL     1      -1.573   3.659   4.793  0.00  0.00    +0.114 A 
ATOM      6  C   UNL     1      -0.911   3.090   3.683  0.00  0.00    +0.051 A 
ATOM      7  C   UNL     1      -1.380   3.515   2.410  0.00  0.00    +0.133 A 
ATOM      8  N   UNL     1      -2.380   4.379   2.347  0.00  0.00    -0.216 NA
ATOM      9  C   UNL     1      -2.958   4.867   3.430  0.00  0.00    +0.142 A 
ATOM     10  N   UNL     1      -2.563   4.516   4.638  0.00  0.00    -0.224 NA
ATOM     11  C   UNL     1       1.486   1.008   5.881  0.00  0.00    +0.052 C 
ENDROOT
BRANCH   7  12
ATOM     12  N   UNL     1      -0.802   3.027   1.252  0.00  0.00    -0.317 N 
ATOM     13  C   UNL     1      -1.733   2.150   0.528  0.00  0.00    +0.087 C 
ATOM     14  C   UNL     1      -1.031   1.569  -0.702  0.00  0.00    -0.062 C 
ATOM     15  C   UNL     1       0.363   3.543  -0.838  0.00  0.00    +0.033 C 
ATOM     16  C   UNL     1      -0.339   4.124   0.392  0.00  0.00    +0.100 C 
ATOM     17  N   UNL     1      -0.571   2.668  -1.572  0.00  0.00    +0.389 N 
ATOM     18  H   UNL     1      -1.380   3.219  -1.879  0.00  0.00    -0.085 HD
ATOM     19  H   UNL     1      -0.093   2.275  -2.391  0.00  0.00    -0.085 HD
BRANCH  15  20
ATOM     20  C   UNL     1       0.805   4.665  -1.742  0.00  0.00    +0.198 C 
ATOM     21  O   UNL     1       0.145   4.952  -2.718  0.00  0.00    -0.278 OA
ATOM     22  N   UNL     1       1.932   5.349  -1.466  0.00  0.00    -0.331 N 
ATOM     23  H   UNL     1       2.460   5.120  -0.685  0.00  0.00    +0.145 HD
ATOM     24  H   UNL     1       2.216   6.072  -2.048  0.00  0.00    +0.145 HD
ENDBRANCH  15  20
ENDBRANCH   7  12
BRANCH   9  25
ATOM     25  C   UNL     1      -4.092   5.848   3.281  0.00  0.00    +0.150 C 
BRANCH  25  26
ATOM     26  S   UNL     1      -5.665   4.948   3.209  0.00  0.00    -0.117 S 
BRANCH  26  27
ATOM     27  C   UNL     1      -6.875   6.217   3.038  0.00  0.00    +0.008 A 
ATOM     28  C   UNL     1      -6.485   7.550   2.996  0.00  0.00    +0.016 A 
ATOM     29  C   UNL     1      -7.436   8.542   2.857  0.00  0.00    +0.021 A 
ATOM     30  C   UNL     1      -8.777   8.210   2.770  0.00  0.00    +0.041 A 
ATOM     31  C   UNL     1      -9.168   6.884   2.817  0.00  0.00    +0.021 A 
ATOM     32  C   UNL     1      -8.222   5.887   2.950  0.00  0.00    +0.016 A 
ATOM     33 CL   UNL     1      -9.969   9.460   2.603  0.00  0.00    -0.084 Cl
ENDBRANCH  26  27
ENDBRANCH  25  26
ENDBRANCH   9  25
TORSDOF 5
