REMARK  Name = ZINC19078913
REMARK  5 active torsions:
REMARK  status: ('A' for Active; 'I' for Inactive)
REMARK    1  A    between atoms: C_4  and  C_7
REMARK    2  A    between atoms: C_7  and  C_9
REMARK    3  A    between atoms: C_7  and  N_12
REMARK    4  A    between atoms: N_12  and  S_13
REMARK    5  A    between atoms: S_13  and  C_16
REMARK                            x       y       z     vdW  Elec       q    Type
REMARK                         _______ _______ _______ _____ _____    ______ ____
ROOT
ATOM      1  N   UNL     1       4.563   2.297   1.458  0.00  0.00    -0.174 NA
ATOM      2  H   UNL     1       4.525   3.017   2.107  0.00  0.00    +0.149 HD
ENDROOT
BRANCH   1   3
ATOM      3  S   UNL     1       3.926   2.513  -0.055  0.00  0.00    +0.061 S 
ATOM      4  O   UNL     1       4.913   2.073  -0.978  0.00  0.00    -0.153 OA
ATOM      5  O   UNL     1       3.387   3.828  -0.085  0.00  0.00    -0.153 OA
BRANCH   3   6
ATOM      6  C   UNL     1       2.563   1.407  -0.209  0.00  0.00    +0.133 A 
ATOM      7  C   UNL     1       2.613   0.391  -1.104  0.00  0.00    +0.031 A 
ATOM      8  C   UNL     1       1.554  -0.503  -1.253  0.00  0.00    +0.004 A 
ATOM      9  C   UNL     1       0.427  -0.397  -0.509  0.00  0.00    +0.031 A 
ATOM     10  C   UNL     1       0.304   0.643   0.449  0.00  0.00    +0.102 A 
ATOM     11  C   UNL     1       1.414   1.579   0.605  0.00  0.00    +0.126 A 
ATOM     12  N   UNL     1       1.165   2.500   1.534  0.00  0.00    -0.189 NA
ATOM     13  S   UNL     1      -0.265   2.183   2.092  0.00  0.00    +0.117 S 
ATOM     14  N   UNL     1      -0.705   0.922   1.272  0.00  0.00    -0.191 NA
ENDBRANCH   3   6
ENDBRANCH   1   3
BRANCH   1  15
ATOM     15  C   UNL     1       5.185   1.020   1.816  0.00  0.00    +0.192 C 
BRANCH  15  19
ATOM     16  C   UNL     1       4.341   0.121   5.905  0.00  0.00    +0.000 A 
ATOM     17  C   UNL     1       4.314  -0.885   4.957  0.00  0.00    +0.000 A 
ATOM     18  C   UNL     1       4.587  -0.594   3.634  0.00  0.00    +0.006 A 
ATOM     19  C   UNL     1       4.887   0.702   3.258  0.00  0.00    -0.020 A 
ATOM     20  C   UNL     1       4.919   1.707   4.208  0.00  0.00    +0.006 A 
ATOM     21  C   UNL     1       4.641   1.417   5.530  0.00  0.00    +0.000 A 
ENDBRANCH  15  19
BRANCH  15  22
ATOM     22  C   UNL     1       6.676   1.114   1.620  0.00  0.00    +0.234 C 
ATOM     23  O   UNL     1       7.171   2.147   1.220  0.00  0.00    -0.274 OA
ATOM     24  N   UNL     1       7.460   0.051   1.888  0.00  0.00    -0.328 N 
ATOM     25  H   UNL     1       7.064  -0.775   2.207  0.00  0.00    +0.145 HD
ATOM     26  H   UNL     1       8.419   0.111   1.762  0.00  0.00    +0.145 HD
ENDBRANCH  15  22
ENDBRANCH   1  15
TORSDOF 5
