REMARK  Name = ZINC66358670
REMARK  9 active torsions:
REMARK  status: ('A' for Active; 'I' for Inactive)
REMARK    1  A    between atoms: C_1  and  C_2
REMARK    2  A    between atoms: C_5  and  C_12
REMARK    3  A    between atoms: C_8  and  C_10
REMARK    4  A    between atoms: C_8  and  C_11
REMARK    5  A    between atoms: C_12  and  C_13
REMARK    6  A    between atoms: N_15  and  C_16
REMARK    7  A    between atoms: C_17  and  C_22
REMARK    8  A    between atoms: N_20  and  C_21
REMARK    9  A    between atoms: C_24  and  C_27
REMARK                            x       y       z     vdW  Elec       q    Type
REMARK                         _______ _______ _______ _____ _____    ______ ____
ROOT
ATOM      1  C   UNL     1       0.694  -1.930  -3.748  0.00  0.00    +0.219 C 
ATOM      2  O   UNL     1      -0.313  -1.260  -3.657  0.00  0.00    -0.275 OA
ATOM      3  N   UNL     1       1.109  -2.361  -4.956  0.00  0.00    -0.270 N 
ATOM      4  H   UNL     1       1.958  -2.824  -5.040  0.00  0.00    +0.156 HD
ENDROOT
BRANCH   3   5
ATOM      5  C   UNL     1       0.324  -2.142  -6.078  0.00  0.00    +0.135 A 
ATOM      6  C   UNL     1       0.775  -1.982  -7.383  0.00  0.00    +0.099 A 
ATOM      7  C   UNL     1      -0.364  -1.786  -8.194  0.00  0.00    +0.149 A 
ATOM      8  N   UNL     1      -1.421  -1.825  -7.431  0.00  0.00    -0.177 NA
ATOM      9  N   UNL     1      -1.022  -2.051  -6.108  0.00  0.00    -0.253 N 
ATOM     10  C   UNL     1      -1.915  -2.166  -4.952  0.00  0.00    +0.174 C 
BRANCH   6  11
ATOM     11  C   UNL     1       2.176  -2.012  -7.833  0.00  0.00    +0.263 A 
ATOM     12  N   UNL     1       2.595  -1.854  -9.072  0.00  0.00    -0.191 NA
ATOM     13  C   UNL     1       3.926  -1.940  -9.117  0.00  0.00    +0.175 A 
ATOM     14  N   UNL     1       4.381  -2.153  -7.915  0.00  0.00    -0.061 NA
ATOM     15  O   UNL     1       3.255  -2.199  -7.052  0.00  0.00    -0.333 OA
BRANCH  13  16
ATOM     16  C   UNL     1       4.768  -1.811 -10.360  0.00  0.00    +0.060 C 
ATOM     17  C   UNL     1       6.258  -2.139 -10.242  0.00  0.00    +0.012 C 
ATOM     18  C   UNL     1       5.804  -0.686 -10.398  0.00  0.00    +0.012 C 
ENDBRANCH  13  16
ENDBRANCH   6  11
ENDBRANCH   3   5
BRANCH   1  19
ATOM     19  C   UNL     1       1.480  -2.280  -2.511  0.00  0.00    +0.099 C 
BRANCH  19  23
ATOM     20  C   UNL     1       0.217   1.988  -0.241  0.00  0.00    +0.007 C 
ATOM     21  C   UNL     1       0.167   0.462  -0.149  0.00  0.00    -0.013 C 
ATOM     22  C   UNL     1       0.849  -0.146  -1.376  0.00  0.00    +0.007 C 
ATOM     23  C   UNL     1       0.798  -1.673  -1.284  0.00  0.00    -0.002 C 
ATOM     24  C   UNL     1       1.525  -2.131  -0.018  0.00  0.00    +0.010 C 
ATOM     25  C   UNL     1       0.843  -1.523   1.210  0.00  0.00    -0.034 C 
ATOM     26  C   UNL     1       0.893   0.003   1.117  0.00  0.00    +0.009 C 
ATOM     27  C   UNL     1       1.569  -1.982   2.476  0.00  0.00    +0.011 C 
ATOM     28  C   UNL     1      -0.615  -1.983   1.263  0.00  0.00    +0.011 C 
ENDBRANCH  19  23
ENDBRANCH   1  19
TORSDOF 5
