REMARK  Name = ZINC33809876
REMARK  7 active torsions:
REMARK  status: ('A' for Active; 'I' for Inactive)
REMARK    1  A    between atoms: C_1  and  C_2
REMARK    2  A    between atoms: C_2  and  O_3
REMARK    3  A    between atoms: O_3  and  C_4
REMARK    4  A    between atoms: C_9  and  C_15
REMARK    5  A    between atoms: N_17  and  C_18
REMARK    6  A    between atoms: C_21  and  C_25
REMARK    7  A    between atoms: C_22  and  C_24
REMARK                            x       y       z     vdW  Elec       q    Type
REMARK                         _______ _______ _______ _____ _____    ______ ____
ROOT
ATOM      1  C   UNL     1      -7.317   5.556   0.602  0.00  0.00    +0.124 A 
ATOM      2  C   UNL     1      -7.338   4.166   0.491  0.00  0.00    +0.046 A 
ATOM      3  C   UNL     1      -6.174   3.467   0.377  0.00  0.00    +0.015 A 
ATOM      4  C   UNL     1      -4.944   4.146   0.370  0.00  0.00    +0.019 A 
ATOM      5  C   UNL     1      -3.734   3.423   0.252  0.00  0.00    +0.031 A 
ATOM      6  C   UNL     1      -2.537   4.123   0.249  0.00  0.00    +0.122 A 
ATOM      7  C   UNL     1      -2.572   5.583   0.374  0.00  0.00    +0.350 A 
ATOM      8  O   UNL     1      -1.533   6.217   0.380  0.00  0.00    -0.244 OA
ATOM      9  O   UNL     1      -3.749   6.224   0.477  0.00  0.00    -0.422 OA
ATOM     10  C   UNL     1      -4.919   5.550   0.482  0.00  0.00    +0.143 A 
ATOM     11  C   UNL     1      -6.115   6.245   0.597  0.00  0.00    +0.092 A 
ENDROOT
BRANCH   6  12
ATOM     12  C   UNL     1      -1.255   3.412   0.128  0.00  0.00    +0.255 C 
ATOM     13  O   UNL     1      -0.211   4.037   0.127  0.00  0.00    -0.270 OA
ATOM     14  N   UNL     1      -1.236   2.069   0.019  0.00  0.00    -0.281 N 
ATOM     15  H   UNL     1      -2.181   1.510  -0.057  0.00  0.00    +0.155 HD
BRANCH  14  16
ATOM     16  C   UNL     1      -0.017   1.385   0.002  0.00  0.00    +0.034 A 
ATOM     17  C   UNL     1       1.091   1.953  -0.615  0.00  0.00    +0.023 A 
ATOM     18  C   UNL     1       2.293   1.273  -0.634  0.00  0.00    +0.005 A 
ATOM     19  C   UNL     1       2.394   0.028  -0.041  0.00  0.00    -0.047 A 
ATOM     20  C   UNL     1       1.294  -0.541   0.573  0.00  0.00    -0.046 A 
ATOM     21  C   UNL     1       0.089   0.135   0.597  0.00  0.00    +0.027 A 
ATOM     22  C   UNL     1       1.409  -1.897   1.218  0.00  0.00    +0.044 C 
ATOM     23  C   UNL     1       3.707  -0.712  -0.066  0.00  0.00    +0.044 C 
ENDBRANCH  14  16
ENDBRANCH   6  12
BRANCH   1  24
ATOM     24  O   UNL     1      -8.484   6.240   0.715  0.00  0.00    -0.492 OA
BRANCH  24  26
ATOM     25  C   UNL     1     -10.891   6.408   0.847  0.00  0.00    +0.048 C 
ATOM     26  C   UNL     1      -9.688   5.472   0.712  0.00  0.00    +0.225 C 
ENDBRANCH  24  26
ENDBRANCH   1  24
TORSDOF 4
