REMARK  Name = ZINC54670629
REMARK  7 active torsions:
REMARK  status: ('A' for Active; 'I' for Inactive)
REMARK    1  A    between atoms: C_3  and  N_23
REMARK    2  A    between atoms: C_6  and  N_7
REMARK    3  A    between atoms: N_7  and  C_8
REMARK    4  A    between atoms: C_8  and  C_9
REMARK    5  A    between atoms: C_9  and  N_10
REMARK    6  A    between atoms: C_11  and  C_13
REMARK    7  A    between atoms: C_13  and  N_14
REMARK                            x       y       z     vdW  Elec       q    Type
REMARK                         _______ _______ _______ _____ _____    ______ ____
ROOT
ATOM      1  N   UNL     1      -2.588  -4.181   0.005  0.00  0.00    -0.315 N 
ATOM      2  C   UNL     1      -3.745  -4.873   0.013  0.00  0.00    +0.197 C 
ATOM      3  O   UNL     1      -4.804  -4.282   0.027  0.00  0.00    -0.278 OA
ATOM      4  H   UNL     1      -1.741  -4.654  -0.006  0.00  0.00    +0.149 HD
ENDROOT
BRANCH   1   5
ATOM      5  C   UNL     1      -2.610  -2.717   0.013  0.00  0.00    +0.122 C 
BRANCH   5   6
ATOM      6  C   UNL     1      -1.175  -2.185   0.002  0.00  0.00    +0.120 C 
BRANCH   6   7
ATOM      7  N   UNL     1      -1.197  -0.720   0.010  0.00  0.00    -0.342 N 
ATOM      8  H   UNL     1      -2.044  -0.248   0.021  0.00  0.00    +0.146 HD
BRANCH   7  14
ATOM      9  C   UNL     1      -0.017   1.385   0.010  0.00  0.00    +0.025 A 
ATOM     10  C   UNL     1       1.171   2.090   0.002  0.00  0.00    +0.034 A 
ATOM     11  C   UNL     1       2.377   1.415  -0.013  0.00  0.00    +0.126 A 
ATOM     12  C   UNL     1       2.400   0.032  -0.022  0.00  0.00    +0.034 A 
ATOM     13  C   UNL     1       1.216  -0.679  -0.014  0.00  0.00    +0.025 A 
ATOM     14  C   UNL     1       0.002  -0.004   0.002  0.00  0.00    +0.027 A 
BRANCH  11  15
ATOM     15  N   UNL     1       3.648   2.174  -0.022  0.00  0.00    +0.056 N 
ATOM     16  O   UNL     1       3.630   3.383  -0.015  0.00  0.00    -0.126 OA
ATOM     17  O   UNL     1       4.704   1.585  -0.036  0.00  0.00    -0.126 OA
ENDBRANCH  11  15
ENDBRANCH   7  14
ENDBRANCH   6   7
ENDBRANCH   5   6
ENDBRANCH   1   5
BRANCH   2  18
ATOM     18  C   UNL     1      -3.723  -6.380   0.005  0.00  0.00    +0.019 C 
BRANCH  18  19
ATOM     19  N   UNL     1      -5.100  -6.890   0.016  0.00  0.00    +0.388 N 
ATOM     20  C   UNL     1      -5.073  -8.351   0.161  0.00  0.00    -0.073 C 
ATOM     21  C   UNL     1      -6.490  -8.844   0.503  0.00  0.00    +0.024 C 
ATOM     22  C   UNL     1      -7.437  -8.182  -0.444  0.00  0.00    -0.011 A 
ATOM     23  C   UNL     1      -7.162  -7.122  -1.255  0.00  0.00    -0.054 A 
ATOM     24  C   UNL     1      -8.203  -6.672  -2.063  0.00  0.00    +0.009 A 
ATOM     25  C   UNL     1      -9.411  -7.280  -2.013  0.00  0.00    +0.045 A 
ATOM     26  S   UNL     1      -9.132  -8.554  -0.791  0.00  0.00    -0.101 S 
ATOM     27  C   UNL     1      -5.769  -6.501  -1.232  0.00  0.00    -0.042 C 
ATOM     28  H   UNL     1      -5.597  -6.489   0.797  0.00  0.00    -0.081 HD
ENDBRANCH  18  19
ENDBRANCH   2  18
TORSDOF 7
