REMARK  Name = ZINC13127478
REMARK  4 active torsions:
REMARK  status: ('A' for Active; 'I' for Inactive)
REMARK    1  A    between atoms: C_1  and  O_2
REMARK    2  A    between atoms: O_2  and  C_3
REMARK    3  A    between atoms: C_7  and  C_9
REMARK    4  A    between atoms: C_12  and  C_21
REMARK                            x       y       z     vdW  Elec       q    Type
REMARK                         _______ _______ _______ _____ _____    ______ ____
ROOT
ATOM      1  C   UNL     1       1.389  -4.130   2.211  0.00  0.00    +0.106 C 
ATOM      2  C   UNL     1       2.767  -4.602   1.736  0.00  0.00    +0.059 C 
ATOM      3  C   UNL     1       3.860  -3.958   2.597  0.00  0.00    +0.144 C 
ATOM      4  N   UNL     1       3.515  -4.134   4.008  0.00  0.00    -0.224 N 
ATOM      5  C   UNL     1       2.272  -4.426   4.458  0.00  0.00    +0.216 A 
ATOM      6  N   UNL     1       2.321  -4.515   5.761  0.00  0.00    -0.180 NA
ATOM      7  C   UNL     1       3.575  -4.287   6.177  0.00  0.00    +0.233 A 
ATOM      8  N   UNL     1       4.337  -4.049   5.132  0.00  0.00    -0.132 NA
ATOM      9  N   UNL     1       4.003  -4.299   7.505  0.00  0.00    -0.326 N 
ATOM     10  N   UNL     1       1.185  -4.581   3.601  0.00  0.00    -0.307 N 
ATOM     11  H   UNL     1       3.371  -4.486   8.217  0.00  0.00    +0.145 HD
ATOM     12  H   UNL     1       4.933  -4.122   7.717  0.00  0.00    +0.145 HD
ATOM     13  H   UNL     1       0.345  -4.965   3.898  0.00  0.00    +0.149 HD
ENDROOT
BRANCH   3  14
ATOM     14  C   UNL     1       5.184  -4.620   2.312  0.00  0.00    -0.005 A 
ATOM     15  C   UNL     1       5.340  -5.976   2.529  0.00  0.00    +0.007 A 
ATOM     16  C   UNL     1       6.553  -6.583   2.267  0.00  0.00    +0.000 A 
ATOM     17  C   UNL     1       7.612  -5.834   1.788  0.00  0.00    +0.001 A 
ATOM     18  C   UNL     1       7.458  -4.478   1.571  0.00  0.00    +0.020 A 
ATOM     19  C   UNL     1       6.241  -3.871   1.827  0.00  0.00    +0.046 A 
ATOM     20 CL   UNL     1       6.045  -2.169   1.548  0.00  0.00    -0.083 Cl
ENDBRANCH   3  14
BRANCH   1  25
ATOM     21  C   UNL     1       0.626  -0.618   1.042  0.00  0.00    +0.120 A 
ATOM     22  C   UNL     1       1.202   0.139   2.051  0.00  0.00    +0.045 A 
ATOM     23  C   UNL     1       1.835  -0.488   3.107  0.00  0.00    +0.004 A 
ATOM     24  C   UNL     1       1.895  -1.869   3.158  0.00  0.00    +0.006 A 
ATOM     25  C   UNL     1       1.321  -2.625   2.153  0.00  0.00    -0.024 A 
ATOM     26  C   UNL     1       0.682  -2.003   1.097  0.00  0.00    +0.051 A 
BRANCH  21  28
ATOM     27  C   UNL     1      -0.017   1.425   0.010  0.00  0.00    +0.277 C 
ATOM     28  O   UNL     1       0.002  -0.004   0.002  0.00  0.00    -0.495 OA
ENDBRANCH  21  28
ENDBRANCH   1  25
TORSDOF 3
