REMARK  Name = ZINC61439822
REMARK  5 active torsions:
REMARK  status: ('A' for Active; 'I' for Inactive)
REMARK    1  A    between atoms: C_1  and  C_2
REMARK    2  A    between atoms: C_9  and  S_11
REMARK    3  A    between atoms: S_11  and  C_12
REMARK    4  A    between atoms: C_13  and  C_19
REMARK    5  A    between atoms: C_15  and  N_18
REMARK                            x       y       z     vdW  Elec       q    Type
REMARK                         _______ _______ _______ _____ _____    ______ ____
ROOT
ATOM      1  C   UNL     1      -0.018   1.503   0.010  0.00  0.00    +0.044 C 
ATOM      2  C   UNL     1       0.002  -0.004   0.002  0.00  0.00    -0.048 A 
ATOM      3  C   UNL     1       0.006  -0.686  -1.206  0.00  0.00    +0.005 A 
ATOM      4  C   UNL     1       0.025  -2.063  -1.230  0.00  0.00    +0.030 A 
ATOM      5  C   UNL     1       0.041  -2.779  -0.030  0.00  0.00    +0.090 A 
ATOM      6  C   UNL     1       0.037  -2.082   1.190  0.00  0.00    +0.067 A 
ATOM      7  C   UNL     1       0.023  -0.696   1.196  0.00  0.00    +0.031 A 
ATOM      8  N   UNL     1       0.055  -3.046   2.184  0.00  0.00    -0.333 N 
ATOM      9  C   UNL     1       0.069  -4.265   1.566  0.00  0.00    +0.173 A 
ATOM     10  N   UNL     1       0.060  -4.104   0.265  0.00  0.00    -0.222 NA
ATOM     11  H   UNL     1       0.058  -2.887   3.140  0.00  0.00    +0.168 HD
ENDROOT
BRANCH   9  12
ATOM     12  S   UNL     1       0.096  -5.820   2.393  0.00  0.00    -0.032 S 
BRANCH  12  13
ATOM     13  C   UNL     1       0.105  -7.000   1.085  0.00  0.00    +0.107 A 
ATOM     14  C   UNL     1       0.120  -8.358   1.383  0.00  0.00    -0.016 A 
ATOM     15  C   UNL     1       0.128  -9.276   0.349  0.00  0.00    +0.030 A 
ATOM     16  C   UNL     1       0.120  -8.799  -0.961  0.00  0.00    +0.043 A 
ATOM     17  C   UNL     1       0.105  -7.430  -1.183  0.00  0.00    +0.134 A 
ATOM     18  N   UNL     1       0.092  -6.583  -0.172  0.00  0.00    -0.246 NA
ATOM     19  C   UNL     1       0.129  -8.824   2.817  0.00  0.00    +0.046 C 
BRANCH  16  20
ATOM     20  N   UNL     1       0.127  -9.692  -2.040  0.00  0.00    -0.357 N 
ATOM     21  H   UNL     1       0.138 -10.648  -1.878  0.00  0.00    +0.142 HD
ATOM     22  H   UNL     1       0.122  -9.354  -2.949  0.00  0.00    +0.142 HD
ENDBRANCH  16  20
ENDBRANCH  12  13
ENDBRANCH   9  12
TORSDOF 3
