REMARK  Name = ZINC54478357
REMARK  10 active torsions:
REMARK  status: ('A' for Active; 'I' for Inactive)
REMARK    1  A    between atoms: C_1  and  C_2
REMARK    2  A    between atoms: C_2  and  C_3
REMARK    3  A    between atoms: C_3  and  C_5
REMARK    4  A    between atoms: C_3  and  N_6
REMARK    5  A    between atoms: C_7  and  C_9
REMARK    6  A    between atoms: C_12  and  N_15
REMARK    7  A    between atoms: N_18  and  C_19
REMARK    8  A    between atoms: C_19  and  C_20
REMARK    9  A    between atoms: C_20  and  C_22
REMARK   10  A    between atoms: C_20  and  N_27
REMARK                            x       y       z     vdW  Elec       q    Type
REMARK                         _______ _______ _______ _____ _____    ______ ____
ROOT
ATOM      1  N   UNL     1       8.208   1.893  -2.180  0.00  0.00    -0.269 N 
ATOM      2  C   UNL     1       8.944   1.841  -3.308  0.00  0.00    +0.304 C 
ATOM      3  O   UNL     1       8.412   1.580  -4.370  0.00  0.00    -0.253 OA
ATOM      4  N   UNL     1      10.270   2.077  -3.259  0.00  0.00    -0.300 N 
ATOM      5  H   UNL     1       8.618   2.169  -1.346  0.00  0.00    +0.156 HD
ATOM      6  H   UNL     1      10.695   2.285  -2.411  0.00  0.00    +0.150 HD
ENDROOT
BRANCH   1  10
ATOM      7  C   UNL     1       4.172   0.867  -2.279  0.00  0.00    +0.037 A 
ATOM      8  C   UNL     1       4.754   1.527  -3.365  0.00  0.00    +0.015 A 
ATOM      9  C   UNL     1       6.088   1.865  -3.329  0.00  0.00    +0.024 A 
ATOM     10  C   UNL     1       6.857   1.550  -2.213  0.00  0.00    +0.035 A 
ATOM     11  C   UNL     1       6.281   0.892  -1.130  0.00  0.00    +0.024 A 
ATOM     12  C   UNL     1       4.946   0.557  -1.157  0.00  0.00    +0.015 A 
BRANCH   7  14
ATOM     13  N   UNL     1       1.997   0.805  -3.395  0.00  0.00    -0.309 N 
ATOM     14  C   UNL     1       2.742   0.505  -2.313  0.00  0.00    +0.244 C 
ATOM     15  O   UNL     1       2.236  -0.065  -1.365  0.00  0.00    -0.270 OA
ATOM     16  H   UNL     1       2.400   1.259  -4.151  0.00  0.00    +0.149 HD
BRANCH  13  17
ATOM     17  C   UNL     1       0.577   0.444  -3.430  0.00  0.00    +0.070 C 
ATOM     18  C   UNL     1      -0.243   1.538  -2.743  0.00  0.00    +0.028 C 
BRANCH  17  20
ATOM     19  C   UNL     1       0.854  -0.874  -5.534  0.00  0.00    +0.005 C 
ATOM     20  C   UNL     1       0.122   0.302  -4.883  0.00  0.00    +0.018 C 
ENDBRANCH  17  20
ENDBRANCH  13  17
ENDBRANCH   7  14
ENDBRANCH   1  10
BRANCH   4  21
ATOM     21  C   UNL     1      11.071   2.021  -4.484  0.00  0.00    +0.098 C 
BRANCH  21  22
ATOM     22  C   UNL     1      12.550   2.199  -4.136  0.00  0.00    +0.016 C 
BRANCH  22  23
ATOM     23  N   UNL     1      13.341   2.253  -5.373  0.00  0.00    +0.387 N 
ATOM     24  C   UNL     1      13.027   3.494  -6.127  0.00  0.00    -0.078 C 
ATOM     25  C   UNL     1      14.271   3.684  -7.031  0.00  0.00    -0.020 C 
ATOM     26  C   UNL     1      15.434   3.233  -6.117  0.00  0.00    -0.020 C 
ATOM     27  C   UNL     1      14.783   2.330  -5.053  0.00  0.00    -0.078 C 
ATOM     28  H   UNL     1      13.153   1.442  -5.942  0.00  0.00    -0.081 HD
ENDBRANCH  22  23
BRANCH  22  29
ATOM     29  C   UNL     1      13.012   1.036  -3.296  0.00  0.00    +0.093 A 
ATOM     30  C   UNL     1      13.147   1.039  -1.957  0.00  0.00    +0.043 A 
ATOM     31  C   UNL     1      13.601  -0.249  -1.590  0.00  0.00    +0.041 A 
ATOM     32  C   UNL     1      13.716  -0.961  -2.725  0.00  0.00    +0.195 A 
ATOM     33  O   UNL     1      13.352  -0.179  -3.755  0.00  0.00    -0.469 OA
ENDBRANCH  22  29
ENDBRANCH  21  22
ENDBRANCH   4  21
TORSDOF 8
