REMARK  Name = ZINC36748636
REMARK  4 active torsions:
REMARK  status: ('A' for Active; 'I' for Inactive)
REMARK    1  A    between atoms: C_6  and  C_7
REMARK    2  A    between atoms: C_7  and  N_8
REMARK    3  A    between atoms: C_9  and  C_11
REMARK    4  A    between atoms: N_22  and  C_24
REMARK                            x       y       z     vdW  Elec       q    Type
REMARK                         _______ _______ _______ _____ _____    ______ ____
ROOT
ATOM      1  N   UNL     1      -1.990  -2.523  -1.021  0.00  0.00    -0.311 N 
ATOM      2  C   UNL     1      -2.871  -1.688  -1.606  0.00  0.00    +0.220 C 
ATOM      3  O   UNL     1      -3.304  -0.736  -0.992  0.00  0.00    -0.275 OA
ATOM      4  H   UNL     1      -1.644  -3.284  -1.512  0.00  0.00    +0.149 HD
ENDROOT
BRANCH   2   5
ATOM      5  C   UNL     1      -3.317  -1.936  -3.024  0.00  0.00    +0.122 C 
ATOM      6  C   UNL     1      -3.765  -0.605  -3.710  0.00  0.00    +0.155 C 
ATOM      7  C   UNL     1      -4.107  -0.947  -5.165  0.00  0.00    +0.004 C 
ATOM      8  C   UNL     1      -5.264  -1.621  -5.155  0.00  0.00    +0.008 C 
ATOM      9  C   UNL     1      -5.600  -1.722  -3.710  0.00  0.00    +0.116 C 
ATOM     10  C   UNL     1      -4.616  -2.761  -3.056  0.00  0.00    +0.127 C 
ATOM     11  C   UNL     1      -5.255  -2.988  -1.715  0.00  0.00    +0.223 C 
ATOM     12  O   UNL     1      -4.676  -3.356  -0.715  0.00  0.00    -0.275 OA
ATOM     13  N   UNL     1      -6.581  -2.715  -1.798  0.00  0.00    -0.295 N 
ATOM     14  C   UNL     1      -6.920  -2.179  -3.173  0.00  0.00    +0.148 C 
ATOM     15  O   UNL     1      -5.113  -0.462  -3.131  0.00  0.00    -0.359 OA
BRANCH  13  16
ATOM     16  C   UNL     1      -7.546  -2.938  -0.719  0.00  0.00    +0.076 C 
ATOM     17  C   UNL     1      -7.143  -2.111   0.504  0.00  0.00    +0.022 C 
ATOM     18  C   UNL     1      -8.150  -2.344   1.632  0.00  0.00    +0.002 C 
ATOM     19  C   UNL     1      -8.167  -3.828   2.002  0.00  0.00    +0.000 C 
ATOM     20  C   UNL     1      -8.571  -4.654   0.779  0.00  0.00    +0.002 C 
ATOM     21  C   UNL     1      -7.563  -4.422  -0.348  0.00  0.00    +0.022 C 
ENDBRANCH  13  16
ENDBRANCH   2   5
BRANCH   1  22
ATOM     22  C   UNL     1      -1.556  -2.282   0.358  0.00  0.00    +0.139 C 
BRANCH  22  28
ATOM     23  C   UNL     1       0.776  -3.167   0.556  0.00  0.00    +0.007 A 
ATOM     24  C   UNL     1       1.680  -4.141   0.932  0.00  0.00    +0.028 A 
ATOM     25  C   UNL     1       1.228  -5.309   1.527  0.00  0.00    +0.067 A 
ATOM     26  C   UNL     1      -0.139  -5.495   1.744  0.00  0.00    +0.067 A 
ATOM     27  C   UNL     1      -1.038  -4.512   1.362  0.00  0.00    +0.033 A 
ATOM     28  C   UNL     1      -0.579  -3.351   0.771  0.00  0.00    -0.028 A 
ATOM     29  N   UNL     1      -0.284  -6.742   2.348  0.00  0.00    -0.306 N 
ATOM     30  H   UNL     1      -1.123  -7.147   2.619  0.00  0.00    +0.170 HD
ATOM     31  C   UNL     1       0.938  -7.288   2.492  0.00  0.00    +0.325 A 
ATOM     32  O   UNL     1       1.164  -8.377   2.986  0.00  0.00    -0.247 OA
ATOM     33  N   UNL     1       1.871  -6.448   2.007  0.00  0.00    -0.306 N 
ATOM     34  H   UNL     1       2.827  -6.609   1.993  0.00  0.00    +0.170 HD
ENDBRANCH  22  28
ENDBRANCH   1  22
TORSDOF 4
