REMARK  Name = ZINC16032917
REMARK  8 active torsions:
REMARK  status: ('A' for Active; 'I' for Inactive)
REMARK    1  A    between atoms: C_1  and  C_2
REMARK    2  A    between atoms: C_2  and  C_3
REMARK    3  A    between atoms: C_17  and  C_20
REMARK    4  A    between atoms: C_20  and  C_21
REMARK    5  A    between atoms: C_21  and  C_22
REMARK    6  A    between atoms: N_27  and  C_30
REMARK    7  A    between atoms: C_30  and  C_31
REMARK    8  A    between atoms: C_31  and  C_32
REMARK                            x       y       z     vdW  Elec       q    Type
REMARK                         _______ _______ _______ _____ _____    ______ ____
ROOT
ATOM      1  C   UNL     1       0.731  -0.503   1.223  0.00  0.00    -0.026 A 
ATOM      2  C   UNL     1       2.075  -0.807   1.145  0.00  0.00    +0.005 A 
ATOM      3  C   UNL     1       2.752  -1.265   2.260  0.00  0.00    +0.001 A 
ATOM      4  C   UNL     1       2.079  -1.420   3.460  0.00  0.00    +0.008 A 
ATOM      5  C   UNL     1       0.739  -1.119   3.541  0.00  0.00    +0.004 A 
ATOM      6  C   UNL     1       0.047  -0.651   2.427  0.00  0.00    +0.042 A 
ATOM      7  N   UNL     1      -1.288  -0.408   2.755  0.00  0.00    -0.283 N 
ATOM      8  C   UNL     1      -1.552  -0.682   4.047  0.00  0.00    +0.243 C 
ATOM      9  O   UNL     1      -2.621  -0.565   4.609  0.00  0.00    -0.273 OA
ATOM     10  C   UNL     1      -0.268  -1.173   4.655  0.00  0.00    +0.136 C 
ATOM     11  C   UNL     1       0.155  -0.291   5.837  0.00  0.00    +0.122 C 
ATOM     12  C   UNL     1       0.817  -1.275   6.841  0.00  0.00    +0.107 C 
ATOM     13  C   UNL     1       0.745  -2.654   6.151  0.00  0.00    +0.068 C 
ATOM     14  N   UNL     1      -0.399  -2.538   5.198  0.00  0.00    -0.295 NA
ATOM     15  C   UNL     1      -0.118  -1.245   8.028  0.00  0.00    +0.227 C 
ATOM     16  O   UNL     1       0.025  -1.884   9.049  0.00  0.00    -0.275 OA
ATOM     17  N   UNL     1      -1.127  -0.404   7.778  0.00  0.00    -0.241 N 
ATOM     18  C   UNL     1      -1.074   0.201   6.569  0.00  0.00    +0.228 C 
ATOM     19  O   UNL     1      -1.873   1.003   6.135  0.00  0.00    -0.275 OA
ATOM     20  H   UNL     1      -1.949  -0.080   2.125  0.00  0.00    +0.155 HD
ATOM     21  H   UNL     1      -1.285  -2.657   5.665  0.00  0.00    +0.123 HD
ENDROOT
BRANCH   1  23
ATOM     22  C   UNL     1      -0.019   1.526   0.010  0.00  0.00    +0.009 C 
ATOM     23  C   UNL     1       0.002  -0.004   0.002  0.00  0.00    +0.033 C 
ENDBRANCH   1  23
BRANCH  13  24
ATOM     24  C   UNL     1       0.454  -3.749   7.179  0.00  0.00    +0.028 C 
BRANCH  24  25
ATOM     25  C   UNL     1       0.509  -5.117   6.497  0.00  0.00    +0.097 C 
BRANCH  25  26
ATOM     26  C   UNL     1       0.223  -6.196   7.510  0.00  0.00    +0.211 C 
ATOM     27  O   UNL     1      -0.003  -5.899   8.664  0.00  0.00    -0.276 OA
ATOM     28  N   UNL     1       0.218  -7.490   7.133  0.00  0.00    -0.329 N 
ATOM     29  H   UNL     1       0.399  -7.727   6.210  0.00  0.00    +0.145 HD
ATOM     30  H   UNL     1       0.034  -8.184   7.785  0.00  0.00    +0.145 HD
ENDBRANCH  25  26
ENDBRANCH  24  25
ENDBRANCH  13  24
BRANCH  17  31
ATOM     31  C   UNL     1      -2.204  -0.150   8.738  0.00  0.00    +0.121 C 
BRANCH  31  32
ATOM     32  C   UNL     1      -1.816   1.023   9.641  0.00  0.00    +0.054 C 
BRANCH  32  33
ATOM     33  C   UNL     1      -2.923   1.284  10.629  0.00  0.00    -0.046 A 
ATOM     34  C   UNL     1      -3.943   2.161  10.309  0.00  0.00    +0.004 A 
ATOM     35  C   UNL     1      -4.959   2.400  11.216  0.00  0.00    +0.000 A 
ATOM     36  C   UNL     1      -4.955   1.762  12.442  0.00  0.00    +0.000 A 
ATOM     37  C   UNL     1      -3.936   0.885  12.762  0.00  0.00    +0.000 A 
ATOM     38  C   UNL     1      -2.923   0.642  11.854  0.00  0.00    +0.004 A 
ENDBRANCH  32  33
ENDBRANCH  31  32
ENDBRANCH  17  31
TORSDOF 7
