REMARK  Name = ZINC39590256
REMARK  6 active torsions:
REMARK  status: ('A' for Active; 'I' for Inactive)
REMARK    1  A    between atoms: C_1  and  C_2
REMARK    2  A    between atoms: C_6  and  N_9
REMARK    3  A    between atoms: C_7  and  C_8
REMARK    4  A    between atoms: C_10  and  C_12
REMARK    5  A    between atoms: C_15  and  N_19
REMARK    6  A    between atoms: C_20  and  C_22
REMARK                            x       y       z     vdW  Elec       q    Type
REMARK                         _______ _______ _______ _____ _____    ______ ____
ROOT
ATOM      1  C   UNL     1      -0.126  -4.857   3.585  0.00  0.00    +0.087 C 
ATOM      2  C   UNL     1      -0.210  -6.204   3.583  0.00  0.00    +0.021 C 
ATOM      3  N   UNL     1      -0.304  -6.907   4.731  0.00  0.00    -0.320 N 
ATOM      4  C   UNL     1      -0.915  -8.252   4.643  0.00  0.00    +0.219 C 
ATOM      5  S   UNL     1      -0.456  -8.714   2.917  0.00  0.00    -0.114 S 
ATOM      6  C   UNL     1      -0.210  -7.000   2.288  0.00  0.00    +0.123 C 
ATOM      7  H   UNL     1       0.015  -6.548   5.574  0.00  0.00    +0.148 HD
ENDROOT
BRANCH   1   9
ATOM      8  N   UNL     1       0.049  -2.808   2.364  0.00  0.00    -0.282 N 
ATOM      9  C   UNL     1      -0.035  -4.153   2.362  0.00  0.00    +0.243 C 
ATOM     10  O   UNL     1      -0.033  -4.762   1.308  0.00  0.00    -0.270 OA
ATOM     11  H   UNL     1       0.128  -2.328   3.204  0.00  0.00    +0.155 HD
BRANCH   8  17
ATOM     12  C   UNL     1       1.200   1.214  -0.217  0.00  0.00    +0.044 C 
ATOM     13  C   UNL     1       0.572  -0.152  -0.123  0.00  0.00    -0.046 A 
ATOM     14  C   UNL     1      -0.034  -0.711  -1.234  0.00  0.00    +0.004 A 
ATOM     15  C   UNL     1      -0.612  -1.964  -1.153  0.00  0.00    +0.002 A 
ATOM     16  C   UNL     1      -0.586  -2.662   0.039  0.00  0.00    +0.023 A 
ATOM     17  C   UNL     1       0.021  -2.104   1.156  0.00  0.00    +0.037 A 
ATOM     18  C   UNL     1       0.606  -0.847   1.069  0.00  0.00    -0.026 A 
ATOM     19  C   UNL     1       1.272  -0.240   2.277  0.00  0.00    +0.046 C 
ENDBRANCH   8  17
ENDBRANCH   1   9
BRANCH   4  20
ATOM     20  N   UNL     1      -2.370  -8.185   4.806  0.00  0.00    -0.284 N 
ATOM     21  C   UNL     1      -3.072  -9.307   5.058  0.00  0.00    +0.251 C 
ATOM     22  O   UNL     1      -2.491 -10.360   5.242  0.00  0.00    -0.270 OA
ATOM     23  H   UNL     1      -2.827  -7.333   4.732  0.00  0.00    +0.152 HD
BRANCH  21  24
ATOM     24  C   UNL     1      -4.541  -9.259   5.112  0.00  0.00    +0.101 A 
ATOM     25  C   UNL     1      -5.284 -10.428   5.264  0.00  0.00    +0.020 A 
ATOM     26  C   UNL     1      -6.675 -10.343   5.311  0.00  0.00    +0.018 A 
ATOM     27  C   UNL     1      -7.288  -9.136   5.209  0.00  0.00    +0.086 A 
ATOM     28  N   UNL     1      -6.572  -7.995   5.061  0.00  0.00    -0.328 N 
ATOM     29  C   UNL     1      -5.227  -8.020   5.016  0.00  0.00    +0.261 A 
ATOM     30  O   UNL     1      -4.600  -6.983   4.888  0.00  0.00    -0.267 OA
ATOM     31  H   UNL     1      -7.037  -7.146   4.990  0.00  0.00    +0.168 HD
ENDBRANCH  21  24
ENDBRANCH   4  20
TORSDOF 4
