REMARK  Name = ZINC62998285
REMARK  10 active torsions:
REMARK  status: ('A' for Active; 'I' for Inactive)
REMARK    1  A    between atoms: C_1  and  C_2
REMARK    2  A    between atoms: C_4  and  N_18
REMARK    3  A    between atoms: C_5  and  C_17
REMARK    4  A    between atoms: C_7  and  O_8
REMARK    5  A    between atoms: O_8  and  C_9
REMARK    6  A    between atoms: C_9  and  C_10
REMARK    7  A    between atoms: C_10  and  C_11
REMARK    8  A    between atoms: C_11  and  C_12
REMARK    9  A    between atoms: C_11  and  C_13
REMARK   10  A    between atoms: C_11  and  N_16
REMARK                            x       y       z     vdW  Elec       q    Type
REMARK                         _______ _______ _______ _____ _____    ______ ____
ROOT
ATOM      1  C   UNL     1      -0.686  -0.584   3.457  0.00  0.00    +0.228 C 
ENDROOT
BRANCH   1   2
ATOM      2  O   UNL     1      -0.443   0.122   2.238  0.00  0.00    -0.492 OA
BRANCH   2   9
ATOM      3  C   UNL     1       0.040   1.498  -0.181  0.00  0.00    +0.047 C 
ATOM      4  C   UNL     1       0.031  -0.007  -0.090  0.00  0.00    -0.007 A 
ATOM      5  C   UNL     1       0.270  -0.770  -1.217  0.00  0.00    +0.040 A 
ATOM      6  C   UNL     1       0.261  -2.150  -1.133  0.00  0.00    +0.130 A 
ATOM      7  C   UNL     1       0.013  -2.770   0.078  0.00  0.00    -0.017 A 
ATOM      8  C   UNL     1      -0.227  -2.012   1.207  0.00  0.00    +0.051 A 
ATOM      9  C   UNL     1      -0.213  -0.626   1.127  0.00  0.00    +0.124 A 
ATOM     10  C   UNL     1       0.003  -4.274   0.165  0.00  0.00    +0.046 C 
BRANCH   6  11
ATOM     11  N   UNL     1       0.517  -2.964  -2.342  0.00  0.00    +0.057 N 
ATOM     12  O   UNL     1       1.146  -3.993  -2.255  0.00  0.00    -0.126 OA
ATOM     13  O   UNL     1       0.096  -2.601  -3.416  0.00  0.00    -0.126 OA
ENDBRANCH   6  11
ENDBRANCH   2   9
ENDBRANCH   1   2
BRANCH   1  14
ATOM     14  C   UNL     1      -0.923   0.419   4.588  0.00  0.00    +0.037 C 
BRANCH  14  15
ATOM     15  C   UNL     1      -1.183  -0.337   5.893  0.00  0.00    +0.007 C 
ATOM     16  C   UNL     1       0.074  -1.111   6.293  0.00  0.00    -0.001 C 
BRANCH  15  17
ATOM     17  C   UNL     1      -1.536   0.645   6.980  0.00  0.00    +0.199 C 
ATOM     18  O   UNL     1      -1.156   1.794   6.906  0.00  0.00    -0.278 OA
ATOM     19  N   UNL     1      -2.275   0.246   8.034  0.00  0.00    -0.330 N 
ATOM     20  H   UNL     1      -2.579  -0.673   8.094  0.00  0.00    +0.145 HD
ATOM     21  H   UNL     1      -2.502   0.878   8.734  0.00  0.00    +0.145 HD
ENDBRANCH  15  17
BRANCH  15  22
ATOM     22  N   UNL     1      -2.296  -1.276   5.701  0.00  0.00    +0.387 N 
ATOM     23  H   UNL     1      -2.059  -1.934   4.973  0.00  0.00    -0.089 HD
ATOM     24  H   UNL     1      -2.468  -1.775   6.561  0.00  0.00    -0.089 HD
ATOM     25  H   UNL     1      -3.125  -0.766   5.436  0.00  0.00    -0.089 HD
ENDBRANCH  15  22
ENDBRANCH  14  15
ENDBRANCH   1  14
TORSDOF 7
