REMARK  Name = ZINC41645383
REMARK  6 active torsions:
REMARK  status: ('A' for Active; 'I' for Inactive)
REMARK    1  A    between atoms: C_1  and  C_2
REMARK    2  A    between atoms: C_5  and  O_23
REMARK    3  A    between atoms: C_6  and  N_8
REMARK    4  A    between atoms: C_9  and  C_11
REMARK    5  A    between atoms: C_11  and  C_22
REMARK    6  A    between atoms: O_23  and  C_24
REMARK                            x       y       z     vdW  Elec       q    Type
REMARK                         _______ _______ _______ _____ _____    ______ ____
ROOT
ATOM      1  N   UNL     1       0.050  -2.795   2.399  0.00  0.00    -0.281 N 
ATOM      2  C   UNL     1       0.149  -2.130   3.568  0.00  0.00    +0.242 C 
ATOM      3  O   UNL     1       0.134  -0.917   3.579  0.00  0.00    -0.273 OA
ATOM      4  H   UNL     1      -0.002  -3.763   2.395  0.00  0.00    +0.155 HD
ENDROOT
BRANCH   2   5
ATOM      5  C   UNL     1       0.279  -2.894   4.860  0.00  0.00    +0.170 C 
ATOM      6  C   UNL     1       0.760  -1.970   5.949  0.00  0.00    +0.242 C 
ATOM      7  O   UNL     1       0.584  -0.777   5.812  0.00  0.00    -0.273 OA
ATOM      8  N   UNL     1       1.368  -2.397   7.050  0.00  0.00    -0.283 N 
ATOM      9  C   UNL     1       1.759  -3.703   7.329  0.00  0.00    +0.047 A 
ATOM     10  C   UNL     1       2.064  -4.055   8.641  0.00  0.00    +0.024 A 
ATOM     11  C   UNL     1       2.445  -5.347   8.944  0.00  0.00    +0.002 A 
ATOM     12  C   UNL     1       2.529  -6.306   7.951  0.00  0.00    +0.001 A 
ATOM     13  C   UNL     1       2.233  -5.969   6.643  0.00  0.00    +0.016 A 
ATOM     14  C   UNL     1       1.854  -4.674   6.332  0.00  0.00    +0.031 A 
ATOM     15  S   UNL     1       1.495  -4.231   4.661  0.00  0.00    -0.098 S 
ATOM     16  C   UNL     1      -1.078  -3.486   5.246  0.00  0.00    +0.043 C 
ATOM     17  H   UNL     1       1.558  -1.731   7.729  0.00  0.00    +0.155 HD
ENDBRANCH   2   5
BRANCH   1  23
ATOM     18  C   UNL     1      -1.306   1.190  -0.143  0.00  0.00    +0.044 C 
ATOM     19  C   UNL     1      -0.626  -0.153  -0.071  0.00  0.00    -0.048 A 
ATOM     20  C   UNL     1      -0.029  -0.685  -1.199  0.00  0.00    +0.007 A 
ATOM     21  C   UNL     1       0.596  -1.917  -1.139  0.00  0.00    +0.048 A 
ATOM     22  C   UNL     1       0.625  -2.622   0.054  0.00  0.00    +0.141 A 
ATOM     23  C   UNL     1       0.024  -2.086   1.190  0.00  0.00    +0.076 A 
ATOM     24  C   UNL     1      -0.596  -0.847   1.124  0.00  0.00    +0.030 A 
BRANCH  22  25
ATOM     25  O   UNL     1       1.239  -3.834   0.115  0.00  0.00    -0.493 OA
ATOM     26  C   UNL     1       1.833  -4.321  -1.090  0.00  0.00    +0.277 C 
ENDBRANCH  22  25
ENDBRANCH   1  23
TORSDOF 3
