REMARK  Name = ZINC17666932
REMARK  6 active torsions:
REMARK  status: ('A' for Active; 'I' for Inactive)
REMARK    1  A    between atoms: C_4  and  C_7
REMARK    2  A    between atoms: C_18  and  C_20
REMARK    3  A    between atoms: C_20  and  O_21
REMARK    4  A    between atoms: O_21  and  C_22
REMARK    5  A    between atoms: C_22  and  C_24
REMARK    6  A    between atoms: C_27  and  N_30
REMARK                            x       y       z     vdW  Elec       q    Type
REMARK                         _______ _______ _______ _____ _____    ______ ____
ROOT
ATOM      1  C   UNL     1      -0.518   5.971  -0.418  0.00  0.00    +0.122 C 
ATOM      2  C   UNL     1       0.004   5.348  -1.722  0.00  0.00    +0.102 C 
ATOM      3  S   UNL     1      -0.289   3.556  -1.631  0.00  0.00    -0.121 S 
ATOM      4  C   UNL     1       0.273   3.135  -0.012  0.00  0.00    +0.029 A 
ATOM      5  C   UNL     1       0.505   1.799   0.296  0.00  0.00    +0.016 A 
ATOM      6  C   UNL     1       0.931   1.441   1.560  0.00  0.00    +0.001 A 
ATOM      7  C   UNL     1       1.138   2.416   2.519  0.00  0.00    +0.002 A 
ATOM      8  C   UNL     1       0.920   3.745   2.218  0.00  0.00    +0.024 A 
ATOM      9  C   UNL     1       0.486   4.119   0.948  0.00  0.00    +0.050 A 
ATOM     10  N   UNL     1       0.290   5.478   0.694  0.00  0.00    -0.259 N 
ATOM     11  C   UNL     1       0.873   6.376   1.512  0.00  0.00    +0.258 C 
ATOM     12  O   UNL     1       0.591   7.552   1.422  0.00  0.00    -0.271 OA
ENDROOT
BRANCH   1  16
ATOM     13  C   UNL     1      -0.205  10.226  -0.638  0.00  0.00    +0.000 A 
ATOM     14  C   UNL     1      -1.108   9.643   0.232  0.00  0.00    +0.000 A 
ATOM     15  C   UNL     1      -1.209   8.266   0.303  0.00  0.00    +0.005 A 
ATOM     16  C   UNL     1      -0.408   7.472  -0.496  0.00  0.00    -0.026 A 
ATOM     17  C   UNL     1       0.499   8.055  -1.362  0.00  0.00    +0.005 A 
ATOM     18  C   UNL     1       0.596   9.431  -1.437  0.00  0.00    +0.000 A 
ENDBRANCH   1  16
BRANCH  11  19
ATOM     19  C   UNL     1       1.876   5.918   2.540  0.00  0.00    +0.328 C 
BRANCH  19  20
ATOM     20  O   UNL     1       2.821   6.989   2.804  0.00  0.00    -0.452 OA
BRANCH  20  21
ATOM     21  C   UNL     1       3.791   6.740   3.706  0.00  0.00    +0.340 C 
ATOM     22  O   UNL     1       3.845   5.659   4.257  0.00  0.00    -0.245 OA
BRANCH  21  23
ATOM     23  C   UNL     1       4.786   7.780   4.024  0.00  0.00    +0.059 A 
ATOM     24  C   UNL     1       4.729   9.024   3.387  0.00  0.00    +0.017 A 
ATOM     25  C   UNL     1       5.655   9.995   3.692  0.00  0.00    +0.024 A 
ATOM     26  C   UNL     1       6.656   9.736   4.623  0.00  0.00    +0.035 A 
ATOM     27  C   UNL     1       6.720   8.498   5.255  0.00  0.00    +0.024 A 
ATOM     28  C   UNL     1       5.793   7.524   4.960  0.00  0.00    +0.017 A 
BRANCH  26  29
ATOM     29  N   UNL     1       7.596  10.720   4.925  0.00  0.00    -0.270 N 
ATOM     30  C   UNL     1       8.827  10.369   5.348  0.00  0.00    +0.301 C 
ATOM     31  O   UNL     1       9.149   9.197   5.375  0.00  0.00    -0.253 OA
ATOM     32  N   UNL     1       9.701  11.317   5.740  0.00  0.00    -0.313 N 
ATOM     33  H   UNL     1       7.365  11.657   4.830  0.00  0.00    +0.156 HD
ATOM     34  H   UNL     1       9.444  12.252   5.718  0.00  0.00    +0.146 HD
ATOM     35  H   UNL     1      10.586  11.064   6.044  0.00  0.00    +0.146 HD
ENDBRANCH  26  29
ENDBRANCH  21  23
ENDBRANCH  20  21
ENDBRANCH  19  20
ENDBRANCH  11  19
TORSDOF 6
