REMARK  Name = ZINC58991142
REMARK  11 active torsions:
REMARK  status: ('A' for Active; 'I' for Inactive)
REMARK    1  A    between atoms: C_1  and  C_2
REMARK    2  A    between atoms: C_2  and  C_24
REMARK    3  A    between atoms: N_3  and  N_4
REMARK    4  A    between atoms: C_5  and  C_7
REMARK    5  A    between atoms: C_7  and  C_8
REMARK    6  A    between atoms: C_8  and  C_9
REMARK    7  A    between atoms: C_9  and  S_10
REMARK    8  A    between atoms: S_10  and  C_11
REMARK    9  A    between atoms: C_14  and  C_17
REMARK   10  A    between atoms: N_15  and  N_16
REMARK   11  A    between atoms: C_22  and  O_23
REMARK                            x       y       z     vdW  Elec       q    Type
REMARK                         _______ _______ _______ _____ _____    ______ ____
ROOT
ATOM      1  C   UNL     1      -3.403  -5.383   3.914  0.00  0.00    +0.078 C 
ENDROOT
BRANCH   1   2
ATOM      2  C   UNL     1      -2.540  -4.120   3.903  0.00  0.00    +0.020 C 
BRANCH   2   3
ATOM      3  C   UNL     1      -2.277  -3.694   2.457  0.00  0.00    +0.098 C 
BRANCH   3   5
ATOM      4  N   UNL     1      -1.067  -1.890   1.274  0.00  0.00    -0.207 N 
ATOM      5  C   UNL     1      -1.427  -2.450   2.446  0.00  0.00    +0.232 C 
ATOM      6  O   UNL     1      -1.065  -1.953   3.491  0.00  0.00    -0.274 OA
ATOM      7  H   UNL     1      -1.356  -2.288   0.437  0.00  0.00    +0.177 HD
BRANCH   4  10
ATOM      8  C   UNL     1       0.965   1.010   0.109  0.00  0.00    +0.068 C 
ATOM      9  C   UNL     1      -0.008  -0.141   0.140  0.00  0.00    +0.063 C 
ATOM     10  N   UNL     1      -0.276  -0.734   1.263  0.00  0.00    -0.185 NA
BRANCH   9  11
ATOM     11  C   UNL     1      -0.655  -0.594  -1.105  0.00  0.00    -0.002 A 
ATOM     12  C   UNL     1      -1.992  -0.999  -1.094  0.00  0.00    +0.012 A 
ATOM     13  C   UNL     1      -2.591  -1.420  -2.262  0.00  0.00    +0.039 A 
ATOM     14  C   UNL     1      -1.870  -1.443  -3.445  0.00  0.00    +0.123 A 
ATOM     15  C   UNL     1      -0.543  -1.043  -3.462  0.00  0.00    +0.039 A 
ATOM     16  C   UNL     1       0.066  -0.614  -2.302  0.00  0.00    +0.012 A 
ATOM     17  F   UNL     1      -2.463  -1.858  -4.586  0.00  0.00    -0.205 F 
ENDBRANCH   9  11
ENDBRANCH   4  10
ENDBRANCH   3   5
ENDBRANCH   2   3
ENDBRANCH   1   2
BRANCH   1  18
ATOM     18  S   UNL     1      -3.714  -5.887   5.628  0.00  0.00    -0.084 S 
BRANCH  18  19
ATOM     19  C   UNL     1      -4.707  -7.335   5.473  0.00  0.00    +0.209 A 
ATOM     20  N   UNL     1      -5.104  -7.891   4.351  0.00  0.00    -0.121 NA
ATOM     21  N   UNL     1      -5.813  -8.933   4.601  0.00  0.00    -0.127 NA
ATOM     22  C   UNL     1      -5.914  -9.106   5.899  0.00  0.00    +0.185 A 
ATOM     23  N   UNL     1      -5.204  -8.090   6.497  0.00  0.00    -0.224 N 
BRANCH  22  24
ATOM     24  C   UNL     1      -6.646 -10.189   6.587  0.00  0.00    +0.062 A 
ATOM     25  C   UNL     1      -7.650  -9.883   7.507  0.00  0.00    +0.015 A 
ATOM     26  C   UNL     1      -8.331 -10.899   8.146  0.00  0.00    +0.001 A 
ATOM     27  C   UNL     1      -8.022 -12.221   7.878  0.00  0.00    +0.004 A 
ATOM     28  C   UNL     1      -7.029 -12.537   6.970  0.00  0.00    +0.046 A 
ATOM     29  C   UNL     1      -6.341 -11.528   6.315  0.00  0.00    +0.128 A 
BRANCH  29  30
ATOM     30  O   UNL     1      -5.370 -11.837   5.416  0.00  0.00    -0.506 OA
ATOM     31  H   UNL     1      -4.488 -11.922   5.804  0.00  0.00    +0.292 HD
ENDBRANCH  29  30
ENDBRANCH  22  24
BRANCH  23  32
ATOM     32  N   UNL     1      -5.034  -7.880   7.836  0.00  0.00    -0.295 N 
ATOM     33  H   UNL     1      -5.810  -7.365   8.223  0.00  0.00    +0.163 HD
ATOM     34  H   UNL     1      -4.899  -8.752   8.325  0.00  0.00    +0.163 HD
ENDBRANCH  23  32
ENDBRANCH  18  19
ENDBRANCH   1  18
TORSDOF 10
