REMARK  Name = ZINC40095274
REMARK  7 active torsions:
REMARK  status: ('A' for Active; 'I' for Inactive)
REMARK    1  A    between atoms: C_1  and  C_2
REMARK    2  A    between atoms: C_7  and  C_12
REMARK    3  A    between atoms: C_12  and  C_14
REMARK    4  A    between atoms: N_18  and  C_27
REMARK    5  A    between atoms: C_19  and  C_21
REMARK    6  A    between atoms: C_27  and  C_28
REMARK    7  A    between atoms: C_28  and  O_29
REMARK                            x       y       z     vdW  Elec       q    Type
REMARK                         _______ _______ _______ _____ _____    ______ ____
ROOT
ATOM      1  C   UNL     1       7.199  -1.062  -0.040  0.00  0.00    +0.076 C 
ATOM      2  C   UNL     1       8.499  -0.911  -0.385  0.00  0.00    +0.249 C 
ATOM      3  C   UNL     1       9.351  -1.234   0.779  0.00  0.00    +0.288 C 
ATOM      4  O   UNL     1      10.565  -1.193   0.787  0.00  0.00    -0.266 OA
ATOM      5  N   UNL     1       8.583  -1.580   1.828  0.00  0.00    -0.281 N 
ATOM      6  C   UNL     1       7.180  -1.495   1.407  0.00  0.00    +0.145 C 
ATOM      7  O   UNL     1       8.948  -0.525  -1.602  0.00  0.00    -0.282 OA
ENDROOT
BRANCH   6   8
ATOM      8  C   UNL     1       6.445  -0.478   2.243  0.00  0.00    -0.022 A 
ATOM      9  C   UNL     1       6.872   0.836   2.265  0.00  0.00    +0.006 A 
ATOM     10  C   UNL     1       6.199   1.769   3.031  0.00  0.00    +0.000 A 
ATOM     11  C   UNL     1       5.098   1.387   3.775  0.00  0.00    +0.000 A 
ATOM     12  C   UNL     1       4.670   0.072   3.752  0.00  0.00    +0.000 A 
ATOM     13  C   UNL     1       5.341  -0.859   2.982  0.00  0.00    +0.006 A 
ENDBRANCH   6   8
BRANCH   1  14
ATOM     14  C   UNL     1       6.034  -0.841  -0.903  0.00  0.00    +0.195 C 
ATOM     15  O   UNL     1       5.785   0.277  -1.315  0.00  0.00    -0.287 OA
BRANCH  14  21
ATOM     16  C   UNL     1       0.456  -4.262  -1.556  0.00  0.00    +0.052 C 
ATOM     17  C   UNL     1       1.395  -4.316  -2.763  0.00  0.00    +0.175 C 
ATOM     18  C   UNL     1       1.896  -2.900  -3.131  0.00  0.00    +0.083 C 
ATOM     19  C   UNL     1       3.197  -2.817  -2.355  0.00  0.00    -0.002 A 
ATOM     20  C   UNL     1       4.000  -1.756  -2.017  0.00  0.00    +0.019 A 
ATOM     21  C   UNL     1       5.164  -1.975  -1.272  0.00  0.00    +0.023 A 
ATOM     22  C   UNL     1       5.496  -3.275  -0.880  0.00  0.00    +0.015 A 
ATOM     23  C   UNL     1       4.687  -4.330  -1.228  0.00  0.00    +0.046 A 
ATOM     24  C   UNL     1       3.526  -4.115  -1.974  0.00  0.00    +0.124 A 
ATOM     25  O   UNL     1       2.608  -5.013  -2.434  0.00  0.00    -0.488 OA
ENDBRANCH  14  21
ENDBRANCH   1  14
BRANCH   5  26
ATOM     26  C   UNL     1       9.063  -1.968   3.157  0.00  0.00    +0.137 C 
BRANCH  26  27
ATOM     27  C   UNL     1       9.361  -0.711   3.978  0.00  0.00    +0.175 C 
BRANCH  27  28
ATOM     28  O   UNL     1       8.136  -0.050   4.299  0.00  0.00    -0.393 OA
ATOM     29  H   UNL     1       8.249   0.757   4.820  0.00  0.00    +0.209 HD
ENDBRANCH  27  28
ENDBRANCH  26  27
ENDBRANCH   5  26
TORSDOF 6
