REMARK  Name = ZINC06679380
REMARK  5 active torsions:
REMARK  status: ('A' for Active; 'I' for Inactive)
REMARK    1  A    between atoms: C_1  and  C_2
REMARK    2  A    between atoms: C_4  and  C_29
REMARK    3  A    between atoms: C_11  and  C_13
REMARK    4  A    between atoms: C_14  and  C_23
REMARK    5  A    between atoms: C_17  and  C_22
REMARK                            x       y       z     vdW  Elec       q    Type
REMARK                         _______ _______ _______ _____ _____    ______ ____
ROOT
ATOM      1  C   UNL     1      -0.807   1.416   0.145  0.00  0.00    +0.066 C 
ATOM      2  C   UNL     1      -0.848  -0.090   0.173  0.00  0.00    +0.044 A 
ATOM      3  C   UNL     1      -1.141  -0.806  -0.978  0.00  0.00    +0.046 A 
ATOM      4  C   UNL     1      -1.167  -2.190  -0.907  0.00  0.00    +0.044 A 
ATOM      5  N   UNL     1      -0.913  -2.782   0.248  0.00  0.00    -0.216 NA
ATOM      6  C   UNL     1      -0.636  -2.068   1.327  0.00  0.00    +0.253 A 
ATOM      7  N   UNL     1      -0.598  -0.746   1.294  0.00  0.00    -0.216 NA
ATOM      8  N   UNL     1      -0.373  -2.726   2.528  0.00  0.00    -0.183 N 
ATOM      9  C   UNL     1       0.068  -2.136   3.694  0.00  0.00    +0.137 A 
ATOM     10  C   UNL     1       0.196  -3.120   4.610  0.00  0.00    +0.033 A 
ATOM     11  C   UNL     1      -0.175  -4.334   3.993  0.00  0.00    +0.067 A 
ATOM     12  N   UNL     1      -0.517  -4.094   2.760  0.00  0.00    -0.167 NA
ATOM     13  C   UNL     1      -0.181  -5.688   4.656  0.00  0.00    +0.068 C 
ATOM     14  C   UNL     1       0.640  -3.059   6.038  0.00  0.00    +0.112 C 
ATOM     15  S   UNL     1       1.895  -1.811   6.338  0.00  0.00    -0.135 S 
ATOM     16  C   UNL     1       1.086  -0.224   6.091  0.00  0.00    +0.130 C 
ATOM     17  C   UNL     1       0.733   0.029   4.678  0.00  0.00    +0.231 C 
ATOM     18  O   UNL     1       0.882   1.176   4.312  0.00  0.00    -0.274 OA
ATOM     19  N   UNL     1       0.288  -0.782   3.765  0.00  0.00    -0.269 N 
ATOM     20  C   UNL     1       2.023   0.886   6.569  0.00  0.00    +0.029 C 
ATOM     21  C   UNL     1      -1.482  -3.010  -2.132  0.00  0.00    +0.066 C 
ATOM     22  H   UNL     1       0.057  -0.324   2.942  0.00  0.00    +0.156 HD
ENDROOT
BRANCH  14  23
ATOM     23  C   UNL     1       1.196  -4.404   6.430  0.00  0.00    -0.030 A 
ATOM     24  C   UNL     1       2.410  -4.824   5.921  0.00  0.00    +0.005 A 
ATOM     25  C   UNL     1       2.920  -6.058   6.281  0.00  0.00    +0.000 A 
ATOM     26  C   UNL     1       2.215  -6.871   7.149  0.00  0.00    +0.000 A 
ATOM     27  C   UNL     1       1.001  -6.450   7.658  0.00  0.00    +0.000 A 
ATOM     28  C   UNL     1       0.493  -5.214   7.302  0.00  0.00    +0.005 A 
ENDBRANCH  14  23
TORSDOF 1
