REMARK  Name = ZINC67004532
REMARK  5 active torsions:
REMARK  status: ('A' for Active; 'I' for Inactive)
REMARK    1  A    between atoms: C_4  and  C_7
REMARK    2  A    between atoms: C_7  and  N_8
REMARK    3  A    between atoms: N_11  and  C_12
REMARK    4  A    between atoms: C_12  and  C_13
REMARK    5  A    between atoms: C_13  and  O_23
REMARK                            x       y       z     vdW  Elec       q    Type
REMARK                         _______ _______ _______ _____ _____    ______ ____
ROOT
ATOM      1  N   UNL     1       3.904  -1.443   1.381  0.00  0.00    -0.354 N 
ATOM      2  C   UNL     1       5.153  -1.971   1.605  0.00  0.00    +0.169 C 
ATOM      3  N   UNL     1       5.842  -2.460   0.612  0.00  0.00    -0.371 N 
ATOM      4  N   UNL     1       5.676  -1.985   2.876  0.00  0.00    -0.355 N 
ATOM      5  H   UNL     1       3.392  -1.079   2.120  0.00  0.00    +0.163 HD
ATOM      6  H   UNL     1       6.723  -2.833   0.770  0.00  0.00    +0.159 HD
ATOM      7  H   UNL     1       5.164  -1.621   3.615  0.00  0.00    +0.163 HD
ATOM      8  H   UNL     1       5.473  -2.451  -0.285  0.00  0.00    +0.159 HD
ENDROOT
BRANCH   1   9
ATOM      9  C   UNL     1       3.347  -1.429   0.026  0.00  0.00    +0.151 C 
BRANCH   9  13
ATOM     10  C   UNL     1      -0.535   0.351   0.099  0.00  0.00    +0.000 A 
ATOM     11  C   UNL     1       0.582   1.139  -0.102  0.00  0.00    +0.000 A 
ATOM     12  C   UNL     1       1.839   0.563  -0.125  0.00  0.00    +0.005 A 
ATOM     13  C   UNL     1       1.977  -0.800   0.053  0.00  0.00    -0.028 A 
ATOM     14  C   UNL     1       0.860  -1.588   0.255  0.00  0.00    +0.005 A 
ATOM     15  C   UNL     1      -0.397  -1.012   0.277  0.00  0.00    +0.000 A 
ENDBRANCH   9  13
ENDBRANCH   1   9
BRANCH   4  16
ATOM     16  C   UNL     1       7.007  -2.548   3.115  0.00  0.00    +0.155 C 
BRANCH  16  17
ATOM     17  C   UNL     1       7.293  -2.562   4.618  0.00  0.00    +0.108 C 
ATOM     18  C   UNL     1       6.204  -3.362   5.330  0.00  0.00    +0.042 C 
ATOM     19  C   UNL     1       6.620  -3.550   6.794  0.00  0.00    +0.008 C 
ATOM     20  C   UNL     1       7.804  -4.513   6.838  0.00  0.00    +0.035 C 
ATOM     21  C   UNL     1       8.882  -4.071   5.883  0.00  0.00    -0.041 A 
ATOM     22  C   UNL     1       8.646  -3.178   4.861  0.00  0.00    -0.011 A 
ATOM     23  C   UNL     1       9.683  -2.817   4.010  0.00  0.00    +0.007 A 
ATOM     24  C   UNL     1      10.947  -3.342   4.183  0.00  0.00    +0.000 A 
ATOM     25  C   UNL     1      11.184  -4.235   5.211  0.00  0.00    +0.000 A 
ATOM     26  C   UNL     1      10.155  -4.597   6.056  0.00  0.00    +0.004 A 
BRANCH  17  27
ATOM     27  O   UNL     1       7.290  -1.221   5.111  0.00  0.00    -0.382 OA
ATOM     28  H   UNL     1       7.952  -0.649   4.699  0.00  0.00    +0.211 HD
ENDBRANCH  17  27
ENDBRANCH  16  17
ENDBRANCH   4  16
TORSDOF 5
