REMARK  Name = ZINC43167491
REMARK  9 active torsions:
REMARK  status: ('A' for Active; 'I' for Inactive)
REMARK    1  A    between atoms: C_1  and  C_2
REMARK    2  A    between atoms: C_2  and  C_3
REMARK    3  A    between atoms: C_2  and  C_4
REMARK    4  A    between atoms: C_4  and  C_6
REMARK    5  A    between atoms: C_4  and  N_11
REMARK    6  A    between atoms: N_14  and  C_15
REMARK    7  A    between atoms: C_15  and  C_16
REMARK    8  A    between atoms: C_16  and  C_18
REMARK    9  A    between atoms: C_16  and  N_23
REMARK                            x       y       z     vdW  Elec       q    Type
REMARK                         _______ _______ _______ _____ _____    ______ ____
ROOT
ATOM      1  N   UNL     1       0.093  -0.051  -2.504  0.00  0.00    -0.292 N 
ATOM      2  C   UNL     1       0.437   1.124  -3.067  0.00  0.00    +0.300 C 
ATOM      3  O   UNL     1       1.423   1.719  -2.677  0.00  0.00    -0.253 OA
ATOM      4  N   UNL     1      -0.312   1.640  -4.062  0.00  0.00    -0.301 N 
ATOM      5  H   UNL     1      -0.693  -0.526  -2.815  0.00  0.00    +0.151 HD
ATOM      6  H   UNL     1      -1.098   1.165  -4.373  0.00  0.00    +0.150 HD
ENDROOT
BRANCH   1   7
ATOM      7  C   UNL     1       0.907  -0.612  -1.423  0.00  0.00    +0.114 C 
BRANCH   7   8
ATOM      8  C   UNL     1       0.730  -2.107  -1.383  0.00  0.00    +0.010 A 
ATOM      9  C   UNL     1       1.656  -3.072  -1.160  0.00  0.00    +0.013 A 
ATOM     10  C   UNL     1       1.260  -4.396  -1.170  0.00  0.00    +0.008 A 
ATOM     11  C   UNL     1      -0.042  -4.692  -1.402  0.00  0.00    +0.045 A 
ATOM     12  S   UNL     1      -0.757  -3.069  -1.611  0.00  0.00    -0.100 S 
ENDBRANCH   7   8
BRANCH   7  14
ATOM     13  C   UNL     1       0.646   1.509  -0.127  0.00  0.00    +0.009 C 
ATOM     14  C   UNL     1       0.465  -0.010  -0.087  0.00  0.00    +0.008 C 
ATOM     15  C   UNL     1      -1.008  -0.342   0.159  0.00  0.00    +0.009 C 
ENDBRANCH   7  14
ENDBRANCH   1   7
BRANCH   4  16
ATOM     16  C   UNL     1       0.062   2.917  -4.673  0.00  0.00    +0.098 C 
BRANCH  16  17
ATOM     17  C   UNL     1      -0.866   3.208  -5.855  0.00  0.00    +0.016 C 
BRANCH  17  18
ATOM     18  N   UNL     1      -0.577   4.547  -6.386  0.00  0.00    +0.387 N 
ATOM     19  C   UNL     1      -1.474   4.847  -7.531  0.00  0.00    -0.078 C 
ATOM     20  C   UNL     1      -1.459   6.395  -7.597  0.00  0.00    -0.020 C 
ATOM     21  C   UNL     1      -1.426   6.804  -6.106  0.00  0.00    -0.020 C 
ATOM     22  C   UNL     1      -0.870   5.575  -5.364  0.00  0.00    -0.078 C 
ATOM     23  H   UNL     1       0.388   4.607  -6.674  0.00  0.00    -0.081 HD
ENDBRANCH  17  18
BRANCH  17  24
ATOM     24  C   UNL     1      -0.641   2.180  -6.934  0.00  0.00    +0.093 A 
ATOM     25  C   UNL     1      -1.415   1.105  -7.169  0.00  0.00    +0.043 A 
ATOM     26  C   UNL     1      -0.841   0.419  -8.265  0.00  0.00    +0.041 A 
ATOM     27  C   UNL     1       0.248   1.117  -8.634  0.00  0.00    +0.195 A 
ATOM     28  O   UNL     1       0.361   2.186  -7.828  0.00  0.00    -0.469 OA
ENDBRANCH  17  24
ENDBRANCH  16  17
ENDBRANCH   4  16
TORSDOF 7
