REMARK  Name = ZINC67170274
REMARK  7 active torsions:
REMARK  status: ('A' for Active; 'I' for Inactive)
REMARK    1  A    between atoms: C_1  and  C_2
REMARK    2  A    between atoms: C_5  and  C_27
REMARK    3  A    between atoms: C_7  and  O_8
REMARK    4  A    between atoms: O_8  and  C_9
REMARK    5  A    between atoms: C_9  and  C_11
REMARK    6  A    between atoms: C_12  and  C_26
REMARK    7  A    between atoms: N_13  and  C_16
REMARK                            x       y       z     vdW  Elec       q    Type
REMARK                         _______ _______ _______ _____ _____    ______ ____
ROOT
ATOM      1  C   UNL     1      -0.181   0.106   4.752  0.00  0.00    +0.193 A 
ATOM      2  C   UNL     1      -0.388  -0.666   5.861  0.00  0.00    +0.076 A 
ATOM      3  N   UNL     1      -0.406   0.170   6.921  0.00  0.00    -0.216 N 
ATOM      4  N   UNL     1      -0.204   1.464   6.420  0.00  0.00    -0.060 NA
ATOM      5  N   UNL     1      -0.071   1.389   5.141  0.00  0.00    -0.122 NA
ATOM      6  C   UNL     1      -0.563  -2.162   5.894  0.00  0.00    +0.068 C 
ENDROOT
BRANCH   3   7
ATOM      7  C   UNL     1      -0.591  -0.186   8.265  0.00  0.00    +0.071 A 
ATOM      8  C   UNL     1       0.051  -1.304   8.782  0.00  0.00    +0.031 A 
ATOM      9  C   UNL     1      -0.131  -1.656  10.104  0.00  0.00    +0.051 A 
ATOM     10  C   UNL     1      -0.955  -0.895  10.921  0.00  0.00    +0.162 A 
ATOM     11  C   UNL     1      -1.597   0.226  10.408  0.00  0.00    +0.164 A 
ATOM     12  C   UNL     1      -1.411   0.581   9.081  0.00  0.00    +0.077 A 
ATOM     13  O   UNL     1      -2.403   0.989  11.195  0.00  0.00    -0.485 OA
ATOM     14  C   UNL     1      -2.856   0.397  12.417  0.00  0.00    +0.270 C 
ATOM     15  C   UNL     1      -1.655  -0.266  13.105  0.00  0.00    +0.270 C 
ATOM     16  O   UNL     1      -1.125  -1.260  12.222  0.00  0.00    -0.485 OA
ENDBRANCH   3   7
BRANCH   1  17
ATOM     17  C   UNL     1      -0.089  -0.384   3.366  0.00  0.00    +0.367 C 
ATOM     18  O   UNL     1      -0.204  -1.571   3.132  0.00  0.00    -0.243 OA
BRANCH  17  19
ATOM     19  O   UNL     1       0.124   0.484   2.357  0.00  0.00    -0.421 OA
BRANCH  19  26
ATOM     20  C   UNL     1       2.525  -0.581   1.326  0.00  0.00    +0.047 C 
ATOM     21  C   UNL     1       1.250  -0.533   0.524  0.00  0.00    -0.008 A 
ATOM     22  C   UNL     1       1.229  -1.030  -0.767  0.00  0.00    +0.008 A 
ATOM     23  C   UNL     1       0.065  -0.989  -1.507  0.00  0.00    +0.013 A 
ATOM     24  C   UNL     1      -1.095  -0.447  -0.953  0.00  0.00    +0.040 A 
ATOM     25  C   UNL     1      -1.073   0.053   0.349  0.00  0.00    +0.059 A 
ATOM     26  C   UNL     1       0.099   0.003   1.086  0.00  0.00    +0.136 A 
BRANCH  24  27
ATOM     27  C   UNL     1      -2.344  -0.402  -1.743  0.00  0.00    +0.242 C 
ATOM     28  O   UNL     1      -3.354   0.071  -1.258  0.00  0.00    -0.270 OA
ATOM     29  N   UNL     1      -2.363  -0.885  -3.001  0.00  0.00    -0.325 N 
ATOM     30  H   UNL     1      -1.558  -1.262  -3.388  0.00  0.00    +0.145 HD
ATOM     31  H   UNL     1      -3.183  -0.855  -3.520  0.00  0.00    +0.145 HD
ENDBRANCH  24  27
ENDBRANCH  19  26
ENDBRANCH  17  19
ENDBRANCH   1  17
TORSDOF 5
