REMARK  Name = ZINC08132325
REMARK  3 active torsions:
REMARK  status: ('A' for Active; 'I' for Inactive)
REMARK    1  A    between atoms: C_1  and  C_2
REMARK    2  A    between atoms: C_7  and  S_8
REMARK    3  A    between atoms: S_8  and  N_11
REMARK                            x       y       z     vdW  Elec       q    Type
REMARK                         _______ _______ _______ _____ _____    ______ ____
ROOT
ATOM      1  N   UNL     1       1.176   1.030   2.916  0.00  0.00    -0.199 N 
ATOM      2  C   UNL     1       1.214   2.177   2.143  0.00  0.00    +0.150 A 
ATOM      3  C   UNL     1       2.268   3.118   2.301  0.00  0.00    +0.052 A 
ATOM      4  C   UNL     1       3.412   3.066   3.227  0.00  0.00    -0.025 A 
ATOM      5  C   UNL     1       4.278   4.090   3.179  0.00  0.00    -0.004 A 
ATOM      6  S   UNL     1       3.642   5.177   1.923  0.00  0.00    -0.073 S 
ATOM      7  C   UNL     1       2.206   4.246   1.463  0.00  0.00    +0.114 A 
ATOM      8  N   UNL     1       1.227   4.405   0.592  0.00  0.00    -0.228 NA
ATOM      9  C   UNL     1       0.276   3.498   0.490  0.00  0.00    +0.224 A 
ATOM     10  N   UNL     1       0.273   2.412   1.242  0.00  0.00    -0.219 NA
ATOM     11  C   UNL     1       5.406   3.927   4.162  0.00  0.00    +0.043 C 
ATOM     12  C   UNL     1       5.369   2.433   4.551  0.00  0.00    +0.010 C 
ATOM     13  C   UNL     1       3.890   2.080   4.297  0.00  0.00    +0.037 C 
ATOM     14  H   UNL     1       1.909   0.825   3.517  0.00  0.00    +0.175 HD
ENDROOT
BRANCH   1  15
ATOM     15  S   UNL     1      -0.122   0.006   2.815  0.00  0.00    +0.074 S 
ATOM     16  O   UNL     1      -1.286   0.813   2.937  0.00  0.00    -0.150 OA
ATOM     17  O   UNL     1       0.147  -1.079   3.691  0.00  0.00    -0.150 OA
BRANCH  15  24
ATOM     18  C   UNL     1       2.041  -1.780   1.685  0.00  0.00    +0.046 C 
ATOM     19  C   UNL     1       0.898  -1.464   0.754  0.00  0.00    -0.024 A 
ATOM     20  C   UNL     1       0.889  -1.979  -0.529  0.00  0.00    +0.005 A 
ATOM     21  C   UNL     1      -0.161  -1.694  -1.380  0.00  0.00    +0.000 A 
ATOM     22  C   UNL     1      -1.198  -0.885  -0.953  0.00  0.00    +0.002 A 
ATOM     23  C   UNL     1      -1.186  -0.366   0.328  0.00  0.00    +0.029 A 
ATOM     24  C   UNL     1      -0.138  -0.655   1.182  0.00  0.00    +0.111 A 
ENDBRANCH  15  24
ENDBRANCH   1  15
TORSDOF 2
