REMARK  Name = ZINC40889094
REMARK  8 active torsions:
REMARK  status: ('A' for Active; 'I' for Inactive)
REMARK    1  A    between atoms: C_1  and  C_2
REMARK    2  A    between atoms: C_2  and  C_3
REMARK    3  A    between atoms: C_2  and  C_4
REMARK    4  A    between atoms: C_2  and  C_5
REMARK    5  A    between atoms: C_8  and  C_11
REMARK    6  A    between atoms: C_12  and  C_13
REMARK    7  A    between atoms: C_12  and  C_15
REMARK    8  A    between atoms: N_17  and  C_18
REMARK                            x       y       z     vdW  Elec       q    Type
REMARK                         _______ _______ _______ _____ _____    ______ ____
ROOT
ATOM      1  C   UNL     1       0.776   0.004  -1.423  0.00  0.00    -0.042 A 
ATOM      2  C   UNL     1       0.226  -1.126  -2.003  0.00  0.00    +0.005 A 
ATOM      3  C   UNL     1       0.844  -1.722  -3.081  0.00  0.00    +0.008 A 
ATOM      4  C   UNL     1       2.031  -1.181  -3.590  0.00  0.00    -0.024 A 
ATOM      5  C   UNL     1       2.580  -0.037  -2.997  0.00  0.00    +0.008 A 
ATOM      6  C   UNL     1       1.947   0.549  -1.922  0.00  0.00    +0.005 A 
ENDROOT
BRANCH   1   8
ATOM      7  C   UNL     1      -0.287   2.088  -0.599  0.00  0.00    +0.015 C 
ATOM      8  C   UNL     1       0.093   0.649  -0.244  0.00  0.00    -0.013 C 
ATOM      9  C   UNL     1       1.043   0.654   0.956  0.00  0.00    +0.015 C 
ATOM     10  C   UNL     1      -1.169  -0.140   0.109  0.00  0.00    +0.015 C 
ENDBRANCH   1   8
BRANCH   4  11
ATOM     11  C   UNL     1       2.696  -1.809  -4.737  0.00  0.00    +0.032 C 
ATOM     12  C   UNL     1       4.052  -1.974  -4.735  0.00  0.00    +0.114 C 
BRANCH  12  13
ATOM     13  C   UNL     1       4.821  -1.731  -3.502  0.00  0.00    +0.254 C 
ATOM     14  O   UNL     1       4.240  -1.515  -2.456  0.00  0.00    -0.269 OA
ATOM     15  N   UNL     1       6.168  -1.747  -3.535  0.00  0.00    -0.314 N 
ATOM     16  C   UNL     1       6.933  -1.505  -2.309  0.00  0.00    +0.128 C 
ATOM     17  H   UNL     1       6.631  -1.918  -4.370  0.00  0.00    +0.149 HD
ENDBRANCH  12  13
BRANCH  12  18
ATOM     18  C   UNL     1       4.726  -2.383  -5.930  0.00  0.00    +0.104 C 
ATOM     19  N   UNL     1       5.261  -2.707  -6.878  0.00  0.00    -0.191 NA
ENDBRANCH  12  18
ENDBRANCH   4  11
TORSDOF 4
