REMARK  Name = ZINC20806841
REMARK  9 active torsions:
REMARK  status: ('A' for Active; 'I' for Inactive)
REMARK    1  A    between atoms: C_9  and  O_36
REMARK    2  A    between atoms: C_10  and  C_11
REMARK    3  A    between atoms: N_12  and  N_13
REMARK    4  A    between atoms: C_17  and  S_20
REMARK    5  A    between atoms: N_18  and  N_19
REMARK    6  A    between atoms: S_20  and  C_21
REMARK    7  A    between atoms: C_21  and  C_22
REMARK    8  A    between atoms: N_24  and  C_25
REMARK    9  A    between atoms: C_26  and  C_34
REMARK                            x       y       z     vdW  Elec       q    Type
REMARK                         _______ _______ _______ _____ _____    ______ ____
ROOT
ATOM      1  N   UNL     1      -4.412  13.129  -7.407  0.00  0.00    -0.204 N 
ATOM      2  C   UNL     1      -4.027  12.228  -6.425  0.00  0.00    +0.254 A 
ATOM      3  N   UNL     1      -3.832  12.505  -5.158  0.00  0.00    -0.109 NA
ATOM      4  N   UNL     1      -3.460  11.320  -4.509  0.00  0.00    -0.119 NA
ATOM      5  C   UNL     1      -3.431  10.360  -5.402  0.00  0.00    +0.210 A 
ATOM      6  N   UNL     1      -3.784  10.895  -6.608  0.00  0.00    -0.211 N 
ATOM      7  H   UNL     1      -4.548  12.787  -8.444  0.00  0.00    +0.177 HD
ENDROOT
BRANCH   6   8
ATOM      8  N   UNL     1      -3.877  10.216  -7.790  0.00  0.00    -0.294 N 
ATOM      9  H   UNL     1      -3.658   9.139  -7.825  0.00  0.00    +0.163 HD
ATOM     10  H   UNL     1      -4.171  10.748  -8.708  0.00  0.00    +0.163 HD
ENDBRANCH   6   8
BRANCH   1  12
ATOM     11  C   UNL     1      -4.989  15.318  -7.998  0.00  0.00    +0.142 C 
ATOM     12  N   UNL     1      -4.628  14.473  -7.078  0.00  0.00    -0.187 NA
BRANCH  11  22
ATOM     13  C   UNL     1      -6.375  19.568 -10.569  0.00  0.00    +0.001 A 
ATOM     14  C   UNL     1      -6.170  18.239 -10.934  0.00  0.00    +0.001 A 
ATOM     15  C   UNL     1      -5.797  17.309 -10.011  0.00  0.00    +0.009 A 
ATOM     16  C   UNL     1      -5.617  17.692  -8.676  0.00  0.00    -0.006 A 
ATOM     17  C   UNL     1      -5.829  19.041  -8.300  0.00  0.00    -0.017 A 
ATOM     18  C   UNL     1      -6.218  19.972  -9.278  0.00  0.00    +0.008 A 
ATOM     19  C   UNL     1      -5.642  19.425  -6.961  0.00  0.00    +0.012 A 
ATOM     20  C   UNL     1      -5.264  18.516  -6.023  0.00  0.00    +0.046 A 
ATOM     21  C   UNL     1      -5.049  17.177  -6.343  0.00  0.00    +0.126 A 
ATOM     22  C   UNL     1      -5.216  16.728  -7.653  0.00  0.00    +0.044 A 
BRANCH  21  23
ATOM     23  O   UNL     1      -4.672  16.304  -5.374  0.00  0.00    -0.506 OA
ATOM     24  H   UNL     1      -4.501  15.246  -5.622  0.00  0.00    +0.292 HD
ENDBRANCH  21  23
ENDBRANCH  11  22
ENDBRANCH   1  12
BRANCH   5  25
ATOM     25  S   UNL     1      -3.017   8.675  -5.097  0.00  0.00    -0.075 S 
BRANCH  25  26
ATOM     26  C   UNL     1      -2.653   8.627  -3.320  0.00  0.00    +0.173 C 
BRANCH  26  27
ATOM     27  C   UNL     1      -2.279   7.222  -2.922  0.00  0.00    +0.228 C 
ATOM     28  O   UNL     1      -2.260   6.341  -3.755  0.00  0.00    -0.275 OA
ATOM     29  N   UNL     1      -1.965   6.946  -1.641  0.00  0.00    -0.278 N 
ATOM     30  H   UNL     1      -1.982   7.746  -0.886  0.00  0.00    +0.155 HD
BRANCH  29  31
ATOM     31  C   UNL     1      -1.621   5.653  -1.274  0.00  0.00    +0.090 A 
ATOM     32  C   UNL     1      -1.271   5.177  -0.019  0.00  0.00    +0.084 A 
ATOM     33  C   UNL     1      -0.951   3.765   0.100  0.00  0.00    -0.018 A 
ATOM     34  C   UNL     1      -1.032   3.059  -1.049  0.00  0.00    -0.004 A 
ATOM     35  S   UNL     1      -1.524   4.240  -2.273  0.00  0.00    -0.077 S 
ATOM     36  C   UNL     1      -0.761   1.597  -1.232  0.00  0.00    +0.043 C 
ATOM     37  C   UNL     1      -0.013   1.086   0.008  0.00  0.00    +0.005 C 
ATOM     38  C   UNL     1      -0.735   1.583   1.264  0.00  0.00    +0.005 C 
ATOM     39  C   UNL     1      -0.551   3.094   1.407  0.00  0.00    +0.037 C 
BRANCH  32  40
ATOM     40  C   UNL     1      -1.226   6.046   1.118  0.00  0.00    +0.102 C 
ATOM     41  N   UNL     1      -1.191   6.736   2.020  0.00  0.00    -0.191 NA
ENDBRANCH  32  40
ENDBRANCH  29  31
ENDBRANCH  26  27
ENDBRANCH  25  26
ENDBRANCH   5  25
TORSDOF 9
