REMARK  Name = ZINC00440677
REMARK  6 active torsions:
REMARK  status: ('A' for Active; 'I' for Inactive)
REMARK    1  A    between atoms: C_1  and  C_2
REMARK    2  A    between atoms: C_5  and  C_8
REMARK    3  A    between atoms: C_12  and  O_22
REMARK    4  A    between atoms: C_13  and  O_20
REMARK    5  A    between atoms: O_20  and  C_21
REMARK    6  A    between atoms: O_22  and  C_23
REMARK                            x       y       z     vdW  Elec       q    Type
REMARK                         _______ _______ _______ _____ _____    ______ ____
ROOT
ATOM      1  C   UNL     1       0.059  -4.275  -0.021  0.00  0.00    +0.134 C 
ATOM      2  C   UNL     1      -1.337  -4.783   0.201  0.00  0.00    -0.016 A 
ATOM      3  C   UNL     1      -2.209  -4.823  -0.879  0.00  0.00    +0.055 A 
ATOM      4  C   UNL     1      -3.503  -5.283  -0.718  0.00  0.00    +0.162 A 
ATOM      5  C   UNL     1      -3.933  -5.708   0.536  0.00  0.00    +0.162 A 
ATOM      6  C   UNL     1      -3.062  -5.667   1.609  0.00  0.00    +0.053 A 
ATOM      7  C   UNL     1      -1.765  -5.205   1.442  0.00  0.00    -0.030 A 
ATOM      8  C   UNL     1      -0.849  -5.179   2.635  0.00  0.00    +0.131 C 
ATOM      9  C   UNL     1       0.588  -5.149   2.213  0.00  0.00    +0.218 C 
ATOM     10  O   UNL     1       1.433  -5.510   3.004  0.00  0.00    -0.275 OA
ATOM     11  N   UNL     1       0.976  -4.742   1.004  0.00  0.00    -0.304 N 
ATOM     12  H   UNL     1       1.924  -4.758   0.799  0.00  0.00    +0.150 HD
ENDROOT
BRANCH   1  17
ATOM     13  C   UNL     1      -0.018   1.503   0.010  0.00  0.00    +0.044 C 
ATOM     14  C   UNL     1       0.002  -0.004   0.002  0.00  0.00    -0.050 A 
ATOM     15  C   UNL     1       0.006  -0.689  -1.199  0.00  0.00    +0.004 A 
ATOM     16  C   UNL     1       0.025  -2.071  -1.206  0.00  0.00    +0.006 A 
ATOM     17  C   UNL     1       0.040  -2.768  -0.013  0.00  0.00    -0.023 A 
ATOM     18  C   UNL     1       0.037  -2.084   1.188  0.00  0.00    +0.006 A 
ATOM     19  C   UNL     1       0.023  -0.702   1.195  0.00  0.00    +0.004 A 
ENDBRANCH   1  17
BRANCH   5  20
ATOM     20  O   UNL     1      -5.205  -6.161   0.705  0.00  0.00    -0.491 OA
ATOM     21  C   UNL     1      -5.574  -6.580   2.020  0.00  0.00    +0.277 C 
ENDBRANCH   5  20
BRANCH   4  22
ATOM     22  O   UNL     1      -4.352  -5.319  -1.780  0.00  0.00    -0.491 OA
ATOM     23  C   UNL     1      -3.841  -4.866  -3.035  0.00  0.00    +0.277 C 
ENDBRANCH   4  22
TORSDOF 3
