REMARK  Name = ZINC20503053
REMARK  9 active torsions:
REMARK  status: ('A' for Active; 'I' for Inactive)
REMARK    1  A    between atoms: C_1  and  C_2
REMARK    2  A    between atoms: C_5  and  S_7
REMARK    3  A    between atoms: S_7  and  C_8
REMARK    4  A    between atoms: C_8  and  C_9
REMARK    5  A    between atoms: N_20  and  C_21
REMARK    6  A    between atoms: C_24  and  O_29
REMARK    7  A    between atoms: C_26  and  O_27
REMARK    8  A    between atoms: O_27  and  C_28
REMARK    9  A    between atoms: O_29  and  C_30
REMARK                            x       y       z     vdW  Elec       q    Type
REMARK                         _______ _______ _______ _____ _____    ______ ____
ROOT
ATOM      1  C   UNL     1       3.774 -12.350   1.457  0.00  0.00    +0.060 A 
ATOM      2  C   UNL     1       2.695 -13.169   1.300  0.00  0.00    +0.094 A 
ATOM      3  C   UNL     1       1.475 -12.612   0.876  0.00  0.00    +0.253 A 
ATOM      4  O   UNL     1       0.489 -13.315   0.725  0.00  0.00    -0.268 OA
ATOM      5  N   UNL     1       1.415 -11.284   0.639  0.00  0.00    -0.293 N 
ATOM      6  H   UNL     1       0.584 -10.879   0.346  0.00  0.00    +0.172 HD
ATOM      7  C   UNL     1       2.525 -10.517   0.813  0.00  0.00    +0.211 A 
ATOM      8  N   UNL     1       3.662 -11.045   1.216  0.00  0.00    -0.218 NA
ATOM      9  N   UNL     1       2.456  -9.167   0.569  0.00  0.00    -0.297 N 
ATOM     10  C   UNL     1       3.533  -8.356   0.867  0.00  0.00    +0.201 C 
ATOM     11  N   UNL     1       3.433  -7.065   0.734  0.00  0.00    -0.268 NA
ATOM     12  N   UNL     1       4.712  -8.913   1.306  0.00  0.00    -0.323 N 
ATOM     13  H   UNL     1       1.651  -8.783   0.187  0.00  0.00    +0.172 HD
ATOM     14  H   UNL     1       4.759  -9.863   1.496  0.00  0.00    +0.169 HD
ATOM     15  H   UNL     1       2.581  -6.667   0.495  0.00  0.00    +0.190 HD
ENDROOT
BRANCH  12  16
ATOM     16  C   UNL     1       5.848  -8.106   1.477  0.00  0.00    +0.084 A 
ATOM     17  C   UNL     1       5.971  -6.921   0.766  0.00  0.00    +0.033 A 
ATOM     18  C   UNL     1       7.089  -6.127   0.935  0.00  0.00    +0.048 A 
ATOM     19  C   UNL     1       8.090  -6.513   1.814  0.00  0.00    +0.124 A 
ATOM     20  C   UNL     1       7.971  -7.696   2.527  0.00  0.00    +0.093 A 
ATOM     21  C   UNL     1       6.849  -8.492   2.364  0.00  0.00    +0.147 A 
BRANCH  21  22
ATOM     22  O   UNL     1       6.729  -9.651   3.066  0.00  0.00    -0.493 OA
ATOM     23  C   UNL     1       7.794  -9.983   3.958  0.00  0.00    +0.277 C 
ENDBRANCH  21  22
BRANCH  19  24
ATOM     24  O   UNL     1       9.189  -5.729   1.977  0.00  0.00    -0.495 OA
ATOM     25  C   UNL     1       9.246  -4.524   1.212  0.00  0.00    +0.277 C 
ENDBRANCH  19  24
ENDBRANCH  12  16
BRANCH   1  26
ATOM     26  C   UNL     1       5.093 -12.921   1.911  0.00  0.00    +0.132 C 
BRANCH  26  27
ATOM     27  S   UNL     1       6.233 -13.001   0.502  0.00  0.00    -0.091 S 
BRANCH  27  32
ATOM     28  C   UNL     1      11.473 -15.216   2.067  0.00  0.00    +0.075 C 
ATOM     29  C   UNL     1      10.078 -14.678   1.878  0.00  0.00    +0.100 A 
ATOM     30  N   UNL     1       9.101 -14.534   2.751  0.00  0.00    -0.146 NA
ATOM     31  N   UNL     1       7.977 -14.061   2.429  0.00  0.00    -0.135 NA
ATOM     32  C   UNL     1       7.708 -13.680   1.186  0.00  0.00    +0.159 A 
ATOM     33  S   UNL     1       9.277 -14.047   0.406  0.00  0.00    -0.044 S 
ENDBRANCH  27  32
ENDBRANCH  26  27
ENDBRANCH   1  26
TORSDOF 6
