REMARK  Name = ZINC51126435
REMARK  8 active torsions:
REMARK  status: ('A' for Active; 'I' for Inactive)
REMARK    1  A    between atoms: C_1  and  C_2
REMARK    2  A    between atoms: C_2  and  C_3
REMARK    3  A    between atoms: C_3  and  C_5
REMARK    4  A    between atoms: C_3  and  N_6
REMARK    5  A    between atoms: N_6  and  C_7
REMARK    6  A    between atoms: C_8  and  C_10
REMARK    7  A    between atoms: C_14  and  N_16
REMARK    8  A    between atoms: N_16  and  N_17
REMARK                            x       y       z     vdW  Elec       q    Type
REMARK                         _______ _______ _______ _____ _____    ______ ____
ROOT
ATOM      1  C   UNL     1      -3.629   1.501   2.311  0.00  0.00    +0.146 A 
ATOM      2  C   UNL     1      -4.693   2.385   2.150  0.00  0.00    +0.072 A 
ATOM      3  C   UNL     1      -5.205   3.041   3.263  0.00  0.00    +0.026 A 
ATOM      4  C   UNL     1      -4.636   2.790   4.497  0.00  0.00    +0.046 A 
ATOM      5  C   UNL     1      -3.572   1.892   4.589  0.00  0.00    +0.133 A 
ATOM      6  N   UNL     1      -3.110   1.280   3.514  0.00  0.00    -0.225 NA
ATOM      7 CL   UNL     1      -5.372   2.665   0.577  0.00  0.00    -0.081 Cl
ENDROOT
BRANCH   1  10
ATOM      8  N   UNL     1      -2.126  -0.146   1.296  0.00  0.00    -0.297 N 
ATOM      9  C   UNL     1      -1.730  -0.561   2.643  0.00  0.00    +0.132 C 
ATOM     10  C   UNL     1      -3.076   0.796   1.133  0.00  0.00    +0.266 C 
ATOM     11  O   UNL     1      -3.478   1.067   0.018  0.00  0.00    -0.268 OA
BRANCH   8  12
ATOM     12  C   UNL     1      -1.490  -0.755   0.125  0.00  0.00    +0.073 C 
ATOM     13  C   UNL     1      -1.742  -2.265   0.136  0.00  0.00    +0.028 C 
BRANCH  12  15
ATOM     14  C   UNL     1       0.271   1.014   0.029  0.00  0.00    +0.005 C 
ATOM     15  C   UNL     1       0.015  -0.489   0.166  0.00  0.00    +0.019 C 
ENDBRANCH  12  15
ENDBRANCH   8  12
ENDBRANCH   1  10
BRANCH   5  16
ATOM     16  N   UNL     1      -2.994   1.635   5.828  0.00  0.00    -0.268 N 
ATOM     17  H   UNL     1      -3.331   2.079   6.621  0.00  0.00    +0.167 HD
BRANCH  16  18
ATOM     18  N   UNL     1      -1.952   0.758   5.926  0.00  0.00    -0.255 NA
ATOM     19  H   UNL     1      -1.639   0.674   6.882  0.00  0.00    +0.140 HD
ATOM     20  H   UNL     1      -2.201  -0.143   5.547  0.00  0.00    +0.140 HD
ENDBRANCH  16  18
ENDBRANCH   5  16
TORSDOF 5
