REMARK  Name = ZINC56769255
REMARK  8 active torsions:
REMARK  status: ('A' for Active; 'I' for Inactive)
REMARK    1  A    between atoms: C_1  and  C_2
REMARK    2  A    between atoms: C_2  and  C_4
REMARK    3  A    between atoms: C_2  and  N_12
REMARK    4  A    between atoms: C_4  and  C_5
REMARK    5  A    between atoms: C_8  and  O_11
REMARK    6  A    between atoms: N_15  and  N_16
REMARK    7  A    between atoms: C_17  and  C_19
REMARK    8  A    between atoms: N_23  and  C_24
REMARK                            x       y       z     vdW  Elec       q    Type
REMARK                         _______ _______ _______ _____ _____    ______ ____
ROOT
ATOM      1  N   UNL     1       0.763   0.426   1.573  0.00  0.00    -0.295 N 
ATOM      2  C   UNL     1       2.110   0.387   1.589  0.00  0.00    +0.316 C 
ATOM      3  O   UNL     1       2.743   0.896   0.684  0.00  0.00    -0.251 OA
ATOM      4  N   UNL     1       2.755  -0.215   2.607  0.00  0.00    -0.218 N 
ATOM      5  H   UNL     1       0.258   0.020   2.295  0.00  0.00    +0.151 HD
ATOM      6  H   UNL     1       3.724  -0.243   2.619  0.00  0.00    +0.174 HD
ENDROOT
BRANCH   4   7
ATOM      7  N   UNL     1       2.025  -0.802   3.650  0.00  0.00    -0.228 N 
ATOM      8  C   UNL     1       2.670  -1.404   4.668  0.00  0.00    +0.277 C 
ATOM      9  O   UNL     1       3.880  -1.530   4.633  0.00  0.00    -0.267 OA
ATOM     10  H   UNL     1       1.056  -0.774   3.638  0.00  0.00    +0.173 HD
BRANCH   8  11
ATOM     11  C   UNL     1       1.914  -1.909   5.819  0.00  0.00    +0.107 A 
ATOM     12  C   UNL     1       0.541  -1.910   5.955  0.00  0.00    +0.047 A 
ATOM     13  C   UNL     1       0.252  -2.480   7.199  0.00  0.00    +0.036 A 
ATOM     14  C   UNL     1       1.427  -2.810   7.788  0.00  0.00    +0.101 A 
ATOM     15  N   UNL     1       2.444  -2.472   6.957  0.00  0.00    -0.345 N 
ATOM     16  C   UNL     1       3.870  -2.672   7.227  0.00  0.00    +0.149 C 
ATOM     17 BR   UNL     1      -1.472  -2.743   7.930  0.00  0.00    -0.049 Br
ENDBRANCH   8  11
ENDBRANCH   4   7
BRANCH   1  19
ATOM     18  C   UNL     1      -0.044   2.582   0.746  0.00  0.00    +0.028 C 
ATOM     19  C   UNL     1       0.062   1.081   0.466  0.00  0.00    +0.076 C 
BRANCH  19  20
ATOM     20  C   UNL     1      -1.341   0.487   0.328  0.00  0.00    +0.057 C 
BRANCH  20  21
ATOM     21  C   UNL     1      -1.237  -0.963  -0.069  0.00  0.00    -0.045 A 
ATOM     22  C   UNL     1      -1.203  -1.311  -1.406  0.00  0.00    +0.007 A 
ATOM     23  C   UNL     1      -1.107  -2.640  -1.772  0.00  0.00    +0.045 A 
ATOM     24  C   UNL     1      -1.045  -3.624  -0.797  0.00  0.00    +0.117 A 
ATOM     25  C   UNL     1      -1.079  -3.272   0.544  0.00  0.00    +0.045 A 
ATOM     26  C   UNL     1      -1.169  -1.942   0.905  0.00  0.00    +0.007 A 
BRANCH  24  27
ATOM     27  O   UNL     1      -0.951  -4.932  -1.155  0.00  0.00    -0.507 OA
ATOM     28  H   UNL     1      -0.043  -5.249  -1.253  0.00  0.00    +0.292 HD
ENDBRANCH  24  27
ENDBRANCH  20  21
ENDBRANCH  19  20
ENDBRANCH   1  19
TORSDOF 6
