REMARK  Name = ZINC40804335
REMARK  2 active torsions:
REMARK  status: ('A' for Active; 'I' for Inactive)
REMARK    1  A    between atoms: C_1  and  C_2
REMARK    2  A    between atoms: C_2  and  C_13
REMARK                            x       y       z     vdW  Elec       q    Type
REMARK                         _______ _______ _______ _____ _____    ______ ____
ROOT
ATOM      1  C   UNL     1      -0.019   1.526   0.010  0.00  0.00    +0.043 C 
ATOM      2  C   UNL     1       0.002  -0.004   0.002  0.00  0.00    +0.170 C 
ATOM      3  C   UNL     1      -1.409  -0.530   0.038  0.00  0.00    +0.242 C 
ATOM      4  O   UNL     1      -2.305   0.196  -0.337  0.00  0.00    -0.273 OA
ATOM      5  N   UNL     1      -1.720  -1.751   0.462  0.00  0.00    -0.283 N 
ATOM      6  C   UNL     1      -0.854  -2.677   1.034  0.00  0.00    +0.047 A 
ATOM      7  C   UNL     1      -1.239  -4.013   1.105  0.00  0.00    +0.024 A 
ATOM      8  C   UNL     1      -0.393  -4.953   1.659  0.00  0.00    +0.002 A 
ATOM      9  C   UNL     1       0.845  -4.580   2.148  0.00  0.00    +0.001 A 
ATOM     10  C   UNL     1       1.240  -3.256   2.087  0.00  0.00    +0.016 A 
ATOM     11  C   UNL     1       0.393  -2.308   1.536  0.00  0.00    +0.031 A 
ATOM     12  S   UNL     1       0.881  -0.612   1.474  0.00  0.00    -0.098 S 
ATOM     13  H   UNL     1      -2.646  -2.024   0.361  0.00  0.00    +0.155 HD
ENDROOT
BRANCH   2  14
ATOM     14  C   UNL     1       0.698  -0.494  -1.242  0.00  0.00    +0.243 C 
ATOM     15  O   UNL     1       0.050  -0.958  -2.156  0.00  0.00    -0.273 OA
ATOM     16  N   UNL     1       2.040  -0.417  -1.338  0.00  0.00    -0.266 N 
ATOM     17  C   UNL     1       2.684  -0.871  -2.489  0.00  0.00    +0.168 A 
ATOM     18  C   UNL     1       2.059  -1.426  -3.628  0.00  0.00    +0.088 A 
ATOM     19  C   UNL     1       3.016  -1.739  -4.519  0.00  0.00    +0.232 A 
ATOM     20  O   UNL     1       4.204  -1.406  -3.991  0.00  0.00    -0.361 OA
ATOM     21  N   UNL     1       3.974  -0.853  -2.708  0.00  0.00    -0.063 NA
ATOM     22  H   UNL     1       2.558  -0.047  -0.606  0.00  0.00    +0.156 HD
ENDBRANCH   2  14
TORSDOF 1
