REMARK  Name = ZINC14199232
REMARK  12 active torsions:
REMARK  status: ('A' for Active; 'I' for Inactive)
REMARK    1  A    between atoms: C_1  and  C_2
REMARK    2  A    between atoms: C_2  and  C_3
REMARK    3  A    between atoms: C_3  and  C_4
REMARK    4  A    between atoms: C_4  and  C_6
REMARK    5  A    between atoms: C_4  and  N_7
REMARK    6  A    between atoms: N_7  and  S_8
REMARK    7  A    between atoms: S_8  and  C_11
REMARK    8  A    between atoms: C_13  and  C_19
REMARK    9  A    between atoms: N_21  and  C_22
REMARK   10  A    between atoms: C_22  and  C_23
REMARK   11  A    between atoms: C_24  and  C_32
REMARK   12  A    between atoms: C_26  and  C_31
REMARK                            x       y       z     vdW  Elec       q    Type
REMARK                         _______ _______ _______ _____ _____    ______ ____
ROOT
ATOM      1  C   UNL     1      -0.766   0.580  -3.082  0.00  0.00    +0.124 A 
ATOM      2  C   UNL     1      -0.487   1.057  -4.345  0.00  0.00    +0.044 A 
ATOM      3  C   UNL     1      -1.016   2.281  -4.759  0.00  0.00    +0.057 A 
ATOM      4  C   UNL     1      -1.819   3.020  -3.885  0.00  0.00    +0.055 A 
ATOM      5  C   UNL     1      -2.087   2.533  -2.621  0.00  0.00    +0.042 A 
ATOM      6  C   UNL     1      -1.562   1.316  -2.220  0.00  0.00    +0.069 A 
ATOM      7 CL   UNL     1      -1.904   0.710  -0.629  0.00  0.00    -0.081 Cl
ATOM      8 CL   UNL     1      -2.477   4.546  -4.387  0.00  0.00    -0.083 Cl
ENDROOT
BRANCH   3   9
ATOM      9  C   UNL     1      -0.726   2.795  -6.113  0.00  0.00    +0.246 C 
ATOM     10  O   UNL     1      -1.184   3.863  -6.469  0.00  0.00    -0.270 OA
ATOM     11  N   UNL     1       0.049   2.080  -6.953  0.00  0.00    -0.307 N 
ATOM     12  H   UNL     1       0.414   1.228  -6.669  0.00  0.00    +0.149 HD
BRANCH  11  13
ATOM     13  C   UNL     1       0.337   2.590  -8.296  0.00  0.00    +0.145 C 
BRANCH  13  14
ATOM     14  C   UNL     1       1.216   1.610  -9.028  0.00  0.00    +0.037 A 
ATOM     15  C   UNL     1       0.666   0.672  -9.852  0.00  0.00    -0.039 A 
ATOM     16  C   UNL     1       1.506  -0.226 -10.525  0.00  0.00    +0.024 A 
ATOM     17  C   UNL     1       2.846  -0.163 -10.344  0.00  0.00    +0.016 A 
ATOM     18  N   UNL     1       3.392   0.767  -9.520  0.00  0.00    -0.326 N 
ATOM     19  H   UNL     1       4.354   0.798  -9.402  0.00  0.00    +0.169 HD
ATOM     20  C   UNL     1       2.612   1.647  -8.863  0.00  0.00    +0.254 A 
ATOM     21  O   UNL     1       3.117   2.478  -8.125  0.00  0.00    -0.268 OA
ATOM     22  C   UNL     1       3.742  -1.136 -11.067  0.00  0.00    +0.063 C 
ATOM     23  C   UNL     1      -0.827   0.607 -10.041  0.00  0.00    +0.044 C 
ENDBRANCH  13  14
ENDBRANCH  11  13
ENDBRANCH   3   9
BRANCH   1  24
ATOM     24  S   UNL     1      -0.104  -0.967  -2.561  0.00  0.00    +0.060 S 
ATOM     25  O   UNL     1       0.490  -0.747  -1.289  0.00  0.00    -0.153 OA
ATOM     26  O   UNL     1       0.626  -1.488  -3.663  0.00  0.00    -0.153 OA
BRANCH  24  27
ATOM     27  N   UNL     1      -1.383  -1.990  -2.315  0.00  0.00    -0.187 NA
ATOM     28  H   UNL     1      -1.567  -2.331  -1.426  0.00  0.00    +0.148 HD
BRANCH  27  29
ATOM     29  C   UNL     1      -2.237  -2.379  -3.440  0.00  0.00    +0.073 C 
ATOM     30  C   UNL     1      -3.644  -1.816  -3.231  0.00  0.00    +0.025 C 
BRANCH  29  31
ATOM     31  C   UNL     1      -2.305  -3.905  -3.525  0.00  0.00    +0.020 C 
BRANCH  31  33
ATOM     32  C   UNL     1      -0.988  -5.986  -3.942  0.00  0.00    +0.004 C 
ATOM     33  C   UNL     1      -0.919  -4.460  -3.858  0.00  0.00    -0.002 C 
ENDBRANCH  31  33
ENDBRANCH  29  31
ENDBRANCH  27  29
ENDBRANCH  24  27
ENDBRANCH   1  24
TORSDOF 8
